MODEL 1
REMARK VINA RESULT:      -7.5      0.000      0.000
REMARK  8 active torsions:
REMARK  status: ('A' for Active; 'I' for Inactive)
REMARK    1  A    between atoms: C_6  and  N_1 
REMARK    2  A    between atoms: S_10  and  C_2 
REMARK    3  A    between atoms: C_12  and  C_3 
REMARK    4  A    between atoms: C_7  and  C_8 
REMARK    5  A    between atoms: C_21  and  S_10 
REMARK    6  A    between atoms: O_15  and  C_12 
REMARK    7  A    between atoms: C_13  and  C_21 
REMARK    8  A    between atoms: C_16  and  O_15 
ROOT
ATOM      1  N   UNL d   1      51.605  33.527  53.191  0.00  0.00    -0.268 N 
ATOM      2  C   UNL d   1      51.737  32.680  53.083  0.00  0.00     0.198 A 
ATOM      3  C   UNL d   1      50.763  33.686  53.067  0.00  0.00     0.196 A 
ATOM      4  N   UNL d   1      50.970  32.310  52.891  0.00  0.00    -0.122 NA
ATOM      5  N   UNL d   1      50.375  32.941  52.884  0.00  0.00    -0.126 NA
ENDROOT
BRANCH   3   6
ATOM      6  C   UNL d   1      50.382  34.463  53.120  0.00  0.00     0.162 C 
BRANCH   6   7
ATOM      7  O   UNL d   1      49.604  34.585  52.756  0.00  0.00    -0.300 OA
BRANCH   7   8
ATOM      8  C   UNL d   1      49.020  35.151  52.885  0.00  0.00     0.118 A 
ATOM      9  C   UNL d   1      48.456  35.292  52.302  0.00  0.00     0.104 A 
ATOM     10  N   UNL d   1      48.475  34.868  51.593  0.00  0.00    -0.242 NA
ATOM     11  C   UNL d   1      47.865  35.862  52.428  0.00  0.00     0.020 A 
ATOM     12  C   UNL d   1      47.904  35.017  51.015  0.00  0.00     0.099 A 
ATOM     13  C   UNL d   1      47.327  35.579  51.146  0.00  0.00     0.021 A 
ATOM     14  C   UNL d   1      47.308  35.999  51.847  0.00  0.00     0.003 A 
ATOM     15  C   UNL d   1      47.846  36.282  53.129  0.00  0.00     0.002 A 
ATOM     16  C   UNL d   1      48.410  36.141  53.712  0.00  0.00     0.002 A 
ATOM     17  C   UNL d   1      49.004  35.568  53.588  0.00  0.00     0.026 A 
ENDBRANCH   7   8
ENDBRANCH   6   7
ENDBRANCH   3   6
BRANCH   1  18
ATOM     18  C   UNL d   1      52.178  34.085  53.378  0.00  0.00     0.067 A 
ATOM     19  C   UNL d   1      52.430  34.166  54.151  0.00  0.00     0.021 A 
ATOM     20  C   UNL d   1      52.998  34.718  54.344  0.00  0.00     0.073 A 
ATOM     21  C   UNL d   1      53.322  35.200  53.753  0.00  0.00     0.004 A 
ATOM     22  C   UNL d   1      53.064  35.115  52.973  0.00  0.00     0.001 A 
ATOM     23  C   UNL d   1      52.498  34.564  52.788  0.00  0.00     0.018 A 
BRANCH  20  24
ATOM     24  C   UNL d   1      53.256  34.800  55.134  0.00  0.00     0.419 C 
ATOM     25  F   UNL d   1      53.494  34.874  55.858  0.00  0.00    -0.166 F 
ATOM     26  F   UNL d   1      52.954  35.322  55.773  0.00  0.00    -0.166 F 
ATOM     27  F   UNL d   1      53.909  34.383  55.552  0.00  0.00    -0.166 F 
ENDBRANCH  20  24
ENDBRANCH   1  18
BRANCH   2  28
ATOM     28  S   UNL d   1      52.492  32.274  53.154  0.00  0.00    -0.064 SA
BRANCH  28  29
ATOM     29  C   UNL d   1      52.566  31.438  52.944  0.00  0.00     0.162 C 
BRANCH  29  30
ATOM     30  C   UNL d   1      53.230  30.971  53.226  0.00  0.00     0.197 C 
ATOM     31  O   UNL d   1      53.999  31.349  53.359  0.00  0.00    -0.647 OA
ATOM     32  O   UNL d   1      53.131  30.128  53.377  0.00  0.00    -0.647 OA
ENDBRANCH  29  30
ENDBRANCH  28  29
ENDBRANCH   2  28
TORSDOF 8
ENDMDL
MODEL 2
REMARK VINA RESULT:      -6.9      1.994      3.023
REMARK  8 active torsions:
REMARK  status: ('A' for Active; 'I' for Inactive)
REMARK    1  A    between atoms: C_6  and  N_1 
REMARK    2  A    between atoms: S_10  and  C_2 
REMARK    3  A    between atoms: C_12  and  C_3 
REMARK    4  A    between atoms: C_7  and  C_8 
REMARK    5  A    between atoms: C_21  and  S_10 
REMARK    6  A    between atoms: O_15  and  C_12 
REMARK    7  A    between atoms: C_13  and  C_21 
REMARK    8  A    between atoms: C_16  and  O_15 
ROOT
ATOM      1  N   UNL d   1      52.161  33.605  53.327  0.00  0.00    -0.268 N 
ATOM      2  C   UNL d   1      52.805  33.996  53.751  0.00  0.00     0.198 A 
ATOM      3  C   UNL d   1      51.711  34.212  52.903  0.00  0.00     0.196 A 
ATOM      4  N   UNL d   1      52.754  34.852  53.589  0.00  0.00    -0.122 NA
ATOM      5  N   UNL d   1      52.074  34.974  53.064  0.00  0.00    -0.126 NA
ENDROOT
BRANCH   3   6
ATOM      6  C   UNL d   1      51.015  34.071  52.405  0.00  0.00     0.162 C 
BRANCH   6   7
ATOM      7  O   UNL d   1      50.353  34.629  52.425  0.00  0.00    -0.300 OA
BRANCH   7   8
ATOM      8  C   UNL d   1      49.674  34.694  51.963  0.00  0.00     0.118 A 
ATOM      9  C   UNL d   1      49.028  35.117  52.248  0.00  0.00     0.104 A 
ATOM     10  N   UNL d   1      49.059  35.473  52.992  0.00  0.00    -0.242 NA
ATOM     11  C   UNL d   1      48.341  35.184  51.784  0.00  0.00     0.020 A 
ATOM     12  C   UNL d   1      48.404  35.895  53.269  0.00  0.00     0.099 A 
ATOM     13  C   UNL d   1      47.733  35.956  52.807  0.00  0.00     0.021 A 
ATOM     14  C   UNL d   1      47.702  35.604  52.071  0.00  0.00     0.003 A 
ATOM     15  C   UNL d   1      48.310  34.831  51.048  0.00  0.00     0.002 A 
ATOM     16  C   UNL d   1      48.956  34.408  50.763  0.00  0.00     0.002 A 
ATOM     17  C   UNL d   1      49.647  34.339  51.227  0.00  0.00     0.026 A 
ENDBRANCH   7   8
ENDBRANCH   6   7
ENDBRANCH   3   6
BRANCH   1  18
ATOM     18  C   UNL d   1      52.002  32.800  53.324  0.00  0.00     0.067 A 
ATOM     19  C   UNL d   1      52.543  32.279  53.002  0.00  0.00     0.021 A 
ATOM     20  C   UNL d   1      52.392  31.478  52.996  0.00  0.00     0.073 A 
ATOM     21  C   UNL d   1      51.686  31.189  53.320  0.00  0.00     0.004 A 
ATOM     22  C   UNL d   1      51.142  31.718  53.645  0.00  0.00     0.001 A 
ATOM     23  C   UNL d   1      51.299  32.514  53.647  0.00  0.00     0.018 A 
BRANCH  20  24
ATOM     24  C   UNL d   1      52.945  30.947  52.666  0.00  0.00     0.419 C 
ATOM     25  F   UNL d   1      53.453  30.459  52.365  0.00  0.00    -0.166 F 
ATOM     26  F   UNL d   1      52.963  30.576  51.869  0.00  0.00    -0.166 F 
ATOM     27  F   UNL d   1      53.671  30.604  53.027  0.00  0.00    -0.166 F 
ENDBRANCH  20  24
ENDBRANCH   1  18
BRANCH   2  28
ATOM     28  S   UNL d   1      53.392  33.607  54.245  0.00  0.00    -0.064 SA
BRANCH  28  29
ATOM     29  C   UNL d   1      53.916  34.069  54.755  0.00  0.00     0.162 C 
BRANCH  29  30
ATOM     30  C   UNL d   1      54.561  33.691  55.179  0.00  0.00     0.197 C 
ATOM     31  O   UNL d   1      55.350  34.052  55.178  0.00  0.00    -0.647 OA
ATOM     32  O   UNL d   1      54.424  32.955  55.606  0.00  0.00    -0.647 OA
ENDBRANCH  29  30
ENDBRANCH  28  29
ENDBRANCH   2  28
TORSDOF 8
ENDMDL
MODEL 3
REMARK VINA RESULT:      -6.7      1.515      2.037
REMARK  8 active torsions:
REMARK  status: ('A' for Active; 'I' for Inactive)
REMARK    1  A    between atoms: C_6  and  N_1 
REMARK    2  A    between atoms: S_10  and  C_2 
REMARK    3  A    between atoms: C_12  and  C_3 
REMARK    4  A    between atoms: C_7  and  C_8 
REMARK    5  A    between atoms: C_21  and  S_10 
REMARK    6  A    between atoms: O_15  and  C_12 
REMARK    7  A    between atoms: C_13  and  C_21 
REMARK    8  A    between atoms: C_16  and  O_15 
ROOT
ATOM      1  N   UNL d   1      52.820  32.025  53.309  0.00  0.00    -0.268 N 
ATOM      2  C   UNL d   1      52.703  31.168  53.317  0.00  0.00     0.198 A 
ATOM      3  C   UNL d   1      52.089  32.394  53.030  0.00  0.00     0.196 A 
ATOM      4  N   UNL d   1      51.891  31.006  53.041  0.00  0.00    -0.122 NA
ATOM      5  N   UNL d   1      51.520  31.770  52.866  0.00  0.00    -0.126 NA
ENDROOT
BRANCH   3   6
ATOM      6  C   UNL d   1      51.956  33.246  52.934  0.00  0.00     0.162 C 
BRANCH   6   7
ATOM      7  O   UNL d   1      51.246  33.526  52.524  0.00  0.00    -0.300 OA
BRANCH   7   8
ATOM      8  C   UNL d   1      50.676  34.084  52.731  0.00  0.00     0.118 A 
ATOM      9  C   UNL d   1      50.091  34.286  52.188  0.00  0.00     0.104 A 
ATOM     10  N   UNL d   1      50.075  33.932  51.442  0.00  0.00    -0.242 NA
ATOM     11  C   UNL d   1      49.514  34.849  52.393  0.00  0.00     0.020 A 
ATOM     12  C   UNL d   1      49.483  34.143  50.905  0.00  0.00     0.099 A 
ATOM     13  C   UNL d   1      48.920  34.696  51.114  0.00  0.00     0.021 A 
ATOM     14  C   UNL d   1      48.936  35.046  51.852  0.00  0.00     0.003 A 
ATOM     15  C   UNL d   1      49.530  35.199  53.131  0.00  0.00     0.002 A 
ATOM     16  C   UNL d   1      50.115  34.996  53.674  0.00  0.00     0.002 A 
ATOM     17  C   UNL d   1      50.695  34.431  53.470  0.00  0.00     0.026 A 
ENDBRANCH   7   8
ENDBRANCH   6   7
ENDBRANCH   3   6
BRANCH   1  18
ATOM     18  C   UNL d   1      53.506  32.420  53.528  0.00  0.00     0.067 A 
ATOM     19  C   UNL d   1      53.601  32.676  54.298  0.00  0.00     0.021 A 
ATOM     20  C   UNL d   1      54.278  33.069  54.522  0.00  0.00     0.073 A 
ATOM     21  C   UNL d   1      54.876  33.211  53.965  0.00  0.00     0.004 A 
ATOM     22  C   UNL d   1      54.776  32.951  53.188  0.00  0.00     0.001 A 
ATOM     23  C   UNL d   1      54.099  32.560  52.972  0.00  0.00     0.018 A 
BRANCH  20  24
ATOM     24  C   UNL d   1      54.375  33.331  55.309  0.00  0.00     0.419 C 
ATOM     25  F   UNL d   1      54.462  33.572  56.030  0.00  0.00    -0.166 F 
ATOM     26  F   UNL d   1      54.737  32.921  55.997  0.00  0.00    -0.166 F 
ATOM     27  F   UNL d   1      54.138  34.096  55.674  0.00  0.00    -0.166 F 
ENDBRANCH  20  24
ENDBRANCH   1  18
BRANCH   2  28
ATOM     28  S   UNL d   1      53.284  30.582  53.556  0.00  0.00    -0.064 SA
BRANCH  28  29
ATOM     29  C   UNL d   1      53.059  29.753  53.660  0.00  0.00     0.162 C 
BRANCH  29  30
ATOM     30  C   UNL d   1      53.536  29.225  54.143  0.00  0.00     0.197 C 
ATOM     31  O   UNL d   1      53.172  28.797  54.804  0.00  0.00    -0.647 OA
ATOM     32  O   UNL d   1      54.374  29.122  53.972  0.00  0.00    -0.647 OA
ENDBRANCH  29  30
ENDBRANCH  28  29
ENDBRANCH   2  28
TORSDOF 8
ENDMDL
MODEL 4
REMARK VINA RESULT:      -6.4      2.826      5.724
REMARK  8 active torsions:
REMARK  status: ('A' for Active; 'I' for Inactive)
REMARK    1  A    between atoms: C_6  and  N_1 
REMARK    2  A    between atoms: S_10  and  C_2 
REMARK    3  A    between atoms: C_12  and  C_3 
REMARK    4  A    between atoms: C_7  and  C_8 
REMARK    5  A    between atoms: C_21  and  S_10 
REMARK    6  A    between atoms: O_15  and  C_12 
REMARK    7  A    between atoms: C_13  and  C_21 
REMARK    8  A    between atoms: C_16  and  O_15 
ROOT
ATOM      1  N   UNL d   1      52.771  33.453  53.636  0.00  0.00    -0.268 N 
ATOM      2  C   UNL d   1      53.203  34.070  54.061  0.00  0.00     0.198 A 
ATOM      3  C   UNL d   1      53.284  32.758  53.575  0.00  0.00     0.196 A 
ATOM      4  N   UNL d   1      53.991  33.754  54.265  0.00  0.00    -0.122 NA
ATOM      5  N   UNL d   1      54.030  32.943  53.960  0.00  0.00    -0.126 NA
ENDROOT
BRANCH   3   6
ATOM      6  C   UNL d   1      53.077  32.008  53.192  0.00  0.00     0.162 C 
BRANCH   6   7
ATOM      7  O   UNL d   1      53.388  31.264  53.510  0.00  0.00    -0.300 OA
BRANCH   7   8
ATOM      8  C   UNL d   1      53.184  30.478  53.369  0.00  0.00     0.118 A 
ATOM      9  C   UNL d   1      53.237  29.930  53.981  0.00  0.00     0.104 A 
ATOM     10  N   UNL d   1      53.492  30.165  54.730  0.00  0.00    -0.242 NA
ATOM     11  C   UNL d   1      53.032  29.136  53.842  0.00  0.00     0.020 A 
ATOM     12  C   UNL d   1      53.540  29.606  55.337  0.00  0.00     0.099 A 
ATOM     13  C   UNL d   1      53.337  28.828  55.193  0.00  0.00     0.021 A 
ATOM     14  C   UNL d   1      53.085  28.595  54.451  0.00  0.00     0.003 A 
ATOM     15  C   UNL d   1      52.779  28.904  53.101  0.00  0.00     0.002 A 
ATOM     16  C   UNL d   1      52.727  29.452  52.489  0.00  0.00     0.002 A 
ATOM     17  C   UNL d   1      52.932  30.250  52.626  0.00  0.00     0.026 A 
ENDBRANCH   7   8
ENDBRANCH   6   7
ENDBRANCH   3   6
BRANCH   1  18
ATOM     18  C   UNL d   1      52.007  33.514  53.341  0.00  0.00     0.067 A 
ATOM     19  C   UNL d   1      51.882  33.819  52.593  0.00  0.00     0.021 A 
ATOM     20  C   UNL d   1      51.127  33.883  52.294  0.00  0.00     0.073 A 
ATOM     21  C   UNL d   1      50.481  33.637  52.751  0.00  0.00     0.004 A 
ATOM     22  C   UNL d   1      50.611  33.329  53.506  0.00  0.00     0.001 A 
ATOM     23  C   UNL d   1      51.365  33.269  53.797  0.00  0.00     0.018 A 
BRANCH  20  24
ATOM     24  C   UNL d   1      51.001  34.194  51.530  0.00  0.00     0.419 C 
ATOM     25  F   UNL d   1      50.882  34.479  50.829  0.00  0.00    -0.166 F 
ATOM     26  F   UNL d   1      51.580  34.386  50.897  0.00  0.00    -0.166 F 
ATOM     27  F   UNL d   1      50.245  34.419  51.139  0.00  0.00    -0.166 F 
ENDBRANCH  20  24
ENDBRANCH   1  18
BRANCH   2  28
ATOM     28  S   UNL d   1      52.907  34.855  54.248  0.00  0.00    -0.064 SA
BRANCH  28  29
ATOM     29  C   UNL d   1      53.334  35.369  54.798  0.00  0.00     0.162 C 
BRANCH  29  30
ATOM     30  C   UNL d   1      53.239  36.222  54.765  0.00  0.00     0.197 C 
ATOM     31  O   UNL d   1      52.561  36.597  55.156  0.00  0.00    -0.647 OA
ATOM     32  O   UNL d   1      53.816  36.706  54.344  0.00  0.00    -0.647 OA
ENDBRANCH  29  30
ENDBRANCH  28  29
ENDBRANCH   2  28
TORSDOF 8
ENDMDL
MODEL 5
REMARK VINA RESULT:      -5.3      1.279      4.977
REMARK  8 active torsions:
REMARK  status: ('A' for Active; 'I' for Inactive)
REMARK    1  A    between atoms: C_6  and  N_1 
REMARK    2  A    between atoms: S_10  and  C_2 
REMARK    3  A    between atoms: C_12  and  C_3 
REMARK    4  A    between atoms: C_7  and  C_8 
REMARK    5  A    between atoms: C_21  and  S_10 
REMARK    6  A    between atoms: O_15  and  C_12 
REMARK    7  A    between atoms: C_13  and  C_21 
REMARK    8  A    between atoms: C_16  and  O_15 
ROOT
ATOM      1  N   UNL d   1      51.462  33.754  53.054  0.00  0.00    -0.268 N 
ATOM      2  C   UNL d   1      50.617  33.917  52.966  0.00  0.00     0.198 A 
ATOM      3  C   UNL d   1      51.598  32.923  52.855  0.00  0.00     0.196 A 
ATOM      4  N   UNL d   1      50.226  33.179  52.711  0.00  0.00    -0.122 NA
ATOM      5  N   UNL d   1      50.842  32.571  52.645  0.00  0.00    -0.126 NA
ENDROOT
BRANCH   3   6
ATOM      6  C   UNL d   1      52.365  32.519  52.867  0.00  0.00     0.162 C 
BRANCH   6   7
ATOM      7  O   UNL d   1      52.397  31.663  53.003  0.00  0.00    -0.300 OA
BRANCH   7   8
ATOM      8  C   UNL d   1      53.020  31.159  53.194  0.00  0.00     0.118 A 
ATOM      9  C   UNL d   1      52.860  30.388  53.432  0.00  0.00     0.104 A 
ATOM     10  N   UNL d   1      52.080  30.120  53.479  0.00  0.00    -0.242 NA
ATOM     11  C   UNL d   1      53.486  29.877  53.626  0.00  0.00     0.020 A 
ATOM     12  C   UNL d   1      51.931  29.343  53.720  0.00  0.00     0.099 A 
ATOM     13  C   UNL d   1      52.552  28.848  53.909  0.00  0.00     0.021 A 
ATOM     14  C   UNL d   1      53.323  29.113  53.862  0.00  0.00     0.003 A 
ATOM     15  C   UNL d   1      54.258  30.142  53.580  0.00  0.00     0.002 A 
ATOM     16  C   UNL d   1      54.418  30.913  53.342  0.00  0.00     0.002 A 
ATOM     17  C   UNL d   1      53.790  31.428  53.146  0.00  0.00     0.026 A 
ENDBRANCH   7   8
ENDBRANCH   6   7
ENDBRANCH   3   6
BRANCH   1  18
ATOM     18  C   UNL d   1      52.036  34.293  53.286  0.00  0.00     0.067 A 
ATOM     19  C   UNL d   1      52.273  34.326  54.067  0.00  0.00     0.021 A 
ATOM     20  C   UNL d   1      52.842  34.858  54.305  0.00  0.00     0.073 A 
ATOM     21  C   UNL d   1      53.183  35.372  53.750  0.00  0.00     0.004 A 
ATOM     22  C   UNL d   1      52.941  35.336  52.961  0.00  0.00     0.001 A 
ATOM     23  C   UNL d   1      52.374  34.803  52.732  0.00  0.00     0.018 A 
BRANCH  20  24
ATOM     24  C   UNL d   1      53.083  34.891  55.103  0.00  0.00     0.419 C 
ATOM     25  F   UNL d   1      53.306  34.919  55.835  0.00  0.00    -0.166 F 
ATOM     26  F   UNL d   1      52.862  35.460  55.735  0.00  0.00    -0.166 F 
ATOM     27  F   UNL d   1      53.633  34.360  55.540  0.00  0.00    -0.166 F 
ENDBRANCH  20  24
ENDBRANCH   1  18
BRANCH   2  28
ATOM     28  S   UNL d   1      50.232  34.672  53.106  0.00  0.00    -0.064 SA
BRANCH  28  29
ATOM     29  C   UNL d   1      49.383  34.768  52.970  0.00  0.00     0.162 C 
BRANCH  29  30
ATOM     30  C   UNL d   1      48.995  35.519  53.123  0.00  0.00     0.197 C 
ATOM     31  O   UNL d   1      49.206  35.979  53.827  0.00  0.00    -0.647 OA
ATOM     32  O   UNL d   1      48.396  35.815  52.578  0.00  0.00    -0.647 OA
ENDBRANCH  29  30
ENDBRANCH  28  29
ENDBRANCH   2  28
TORSDOF 8
ENDMDL
MODEL 6
REMARK VINA RESULT:      -4.5      2.894      5.344
REMARK  8 active torsions:
REMARK  status: ('A' for Active; 'I' for Inactive)
REMARK    1  A    between atoms: C_6  and  N_1 
REMARK    2  A    between atoms: S_10  and  C_2 
REMARK    3  A    between atoms: C_12  and  C_3 
REMARK    4  A    between atoms: C_7  and  C_8 
REMARK    5  A    between atoms: C_21  and  S_10 
REMARK    6  A    between atoms: O_15  and  C_12 
REMARK    7  A    between atoms: C_13  and  C_21 
REMARK    8  A    between atoms: C_16  and  O_15 
ROOT
ATOM      1  N   UNL d   1      53.153  33.322  53.407  0.00  0.00    -0.268 N 
ATOM      2  C   UNL d   1      52.623  34.004  53.437  0.00  0.00     0.198 A 
ATOM      3  C   UNL d   1      52.702  32.644  53.111  0.00  0.00     0.196 A 
ATOM      4  N   UNL d   1      51.837  33.747  53.157  0.00  0.00    -0.122 NA
ATOM      5  N   UNL d   1      51.897  32.905  52.958  0.00  0.00    -0.126 NA
ENDROOT
BRANCH   3   6
ATOM      6  C   UNL d   1      53.013  31.844  52.992  0.00  0.00     0.162 C 
BRANCH   6   7
ATOM      7  O   UNL d   1      52.680  31.183  53.444  0.00  0.00    -0.300 OA
BRANCH   7   8
ATOM      8  C   UNL d   1      52.770  30.367  53.371  0.00  0.00     0.118 A 
ATOM      9  C   UNL d   1      52.978  29.922  54.032  0.00  0.00     0.104 A 
ATOM     10  N   UNL d   1      53.096  30.290  54.762  0.00  0.00    -0.242 NA
ATOM     11  C   UNL d   1      53.070  29.099  53.963  0.00  0.00     0.020 A 
ATOM     12  C   UNL d   1      53.305  29.833  55.418  0.00  0.00     0.099 A 
ATOM     13  C   UNL d   1      53.393  29.025  55.342  0.00  0.00     0.021 A 
ATOM     14  C   UNL d   1      53.276  28.661  54.620  0.00  0.00     0.003 A 
ATOM     15  C   UNL d   1      52.954  28.734  53.241  0.00  0.00     0.002 A 
ATOM     16  C   UNL d   1      52.746  29.179  52.580  0.00  0.00     0.002 A 
ATOM     17  C   UNL d   1      52.653  30.007  52.647  0.00  0.00     0.026 A 
ENDBRANCH   7   8
ENDBRANCH   6   7
ENDBRANCH   3   6
BRANCH   1  18
ATOM     18  C   UNL d   1      53.945  33.316  53.622  0.00  0.00     0.067 A 
ATOM     19  C   UNL d   1      54.155  33.400  54.407  0.00  0.00     0.021 A 
ATOM     20  C   UNL d   1      54.939  33.396  54.628  0.00  0.00     0.073 A 
ATOM     21  C   UNL d   1      55.529  33.305  54.053  0.00  0.00     0.004 A 
ATOM     22  C   UNL d   1      55.313  33.220  53.260  0.00  0.00     0.001 A 
ATOM     23  C   UNL d   1      54.530  33.226  53.048  0.00  0.00     0.018 A 
BRANCH  20  24
ATOM     24  C   UNL d   1      55.153  33.482  55.430  0.00  0.00     0.419 C 
ATOM     25  F   UNL d   1      55.347  33.559  56.167  0.00  0.00    -0.166 F 
ATOM     26  F   UNL d   1      55.679  34.073  55.812  0.00  0.00    -0.166 F 
ATOM     27  F   UNL d   1      54.909  33.000  56.126  0.00  0.00    -0.166 F 
ENDBRANCH  20  24
ENDBRANCH   1  18
BRANCH   2  28
ATOM     28  S   UNL d   1      52.834  34.796  53.697  0.00  0.00    -0.064 SA
BRANCH  28  29
ATOM     29  C   UNL d   1      52.244  35.315  54.060  0.00  0.00     0.162 C 
BRANCH  29  30
ATOM     30  C   UNL d   1      52.484  36.013  54.500  0.00  0.00     0.197 C 
ATOM     31  O   UNL d   1      53.257  36.376  54.347  0.00  0.00    -0.647 OA
ATOM     32  O   UNL d   1      51.958  36.351  55.094  0.00  0.00    -0.647 OA
ENDBRANCH  29  30
ENDBRANCH  28  29
ENDBRANCH   2  28
TORSDOF 8
ENDMDL
