MODEL 1
REMARK VINA RESULT:      -8.7      0.000      0.000
REMARK  0 active torsions:
REMARK  status: ('A' for Active; 'I' for Inactive)
ROOT
ATOM      1  C   UNL d   1     -47.342  12.920  23.195  0.00  0.00     0.062 A 
ATOM      2  C   UNL d   1     -48.082  12.570  23.307  0.00  0.00     0.116 A 
ATOM      3  C   UNL d   1     -46.645  12.468  23.339  0.00  0.00     0.192 A 
ATOM      4  N   UNL d   1     -46.725  11.675  23.592  0.00  0.00    -0.171 N 
ATOM      5  N   UNL d   1     -48.139  11.784  23.558  0.00  0.00    -0.217 NA
ATOM      6  S   UNL d   1     -48.625  13.167  23.117  0.00  0.00    -0.068 SA
ATOM      7  C   UNL d   1     -47.423  13.688  22.950  0.00  0.00     0.011 A 
ATOM      8  N   UNL d   1     -45.441  11.940  23.507  0.00  0.00    -0.022 NA
ATOM      9  N   UNL d   1     -45.956  11.342  23.698  0.00  0.00    -0.037 NA
ATOM     10  N   UNL d   1     -45.858  12.634  23.286  0.00  0.00    -0.108 NA
ATOM     11  C   UNL d   1     -48.241  13.833  22.904  0.00  0.00     0.031 A 
ATOM     12  C   UNL d   1     -47.474  11.347  23.697  0.00  0.00     0.204 A 
ATOM     13  C   UNL d   1     -47.076  14.402  22.722  0.00  0.00     0.001 A 
ATOM     14  C   UNL d   1     -48.376  14.593  22.662  0.00  0.00     0.006 A 
ATOM     15  C   UNL d   1     -47.660  14.940  22.551  0.00  0.00     0.001 A 
ENDROOT
TORSDOF 0
ENDMDL
MODEL 2
REMARK VINA RESULT:      -8.6      1.115      2.106
REMARK  0 active torsions:
REMARK  status: ('A' for Active; 'I' for Inactive)
ROOT
ATOM      1  C   UNL d   1     -47.939  12.714  23.283  0.00  0.00     0.062 A 
ATOM      2  C   UNL d   1     -48.202  13.434  22.972  0.00  0.00     0.116 A 
ATOM      3  C   UNL d   1     -47.113  12.593  23.402  0.00  0.00     0.192 A 
ATOM      4  N   UNL d   1     -46.583  13.206  23.200  0.00  0.00    -0.171 N 
ATOM      5  N   UNL d   1     -47.660  14.028  22.779  0.00  0.00    -0.217 NA
ATOM      6  S   UNL d   1     -49.026  13.355  22.934  0.00  0.00    -0.068 SA
ATOM      7  C   UNL d   1     -48.564  12.221  23.429  0.00  0.00     0.011 A 
ATOM      8  N   UNL d   1     -45.874  12.202  23.663  0.00  0.00    -0.022 NA
ATOM      9  N   UNL d   1     -45.794  12.954  23.367  0.00  0.00    -0.037 NA
ATOM     10  N   UNL d   1     -46.681  11.974  23.687  0.00  0.00    -0.108 NA
ATOM     11  C   UNL d   1     -49.248  12.638  23.204  0.00  0.00     0.031 A 
ATOM     12  C   UNL d   1     -46.868  13.916  22.891  0.00  0.00     0.204 A 
ATOM     13  C   UNL d   1     -48.848  11.494  23.698  0.00  0.00     0.001 A 
ATOM     14  C   UNL d   1     -49.906  12.184  23.331  0.00  0.00     0.006 A 
ATOM     15  C   UNL d   1     -49.659  11.482  23.634  0.00  0.00     0.001 A 
ENDROOT
TORSDOF 0
ENDMDL
MODEL 3
REMARK VINA RESULT:      -8.2      1.421      2.207
REMARK  0 active torsions:
REMARK  status: ('A' for Active; 'I' for Inactive)
ROOT
ATOM      1  C   UNL d   1     -48.221  12.947  23.124  0.00  0.00     0.062 A 
ATOM      2  C   UNL d   1     -48.705  13.586  22.921  0.00  0.00     0.116 A 
ATOM      3  C   UNL d   1     -48.575  12.212  23.337  0.00  0.00     0.192 A 
ATOM      4  N   UNL d   1     -49.409  12.152  23.336  0.00  0.00    -0.171 N 
ATOM      5  N   UNL d   1     -49.527  13.505  22.927  0.00  0.00    -0.217 NA
ATOM      6  S   UNL d   1     -48.176  14.201  22.749  0.00  0.00    -0.068 SA
ATOM      7  C   UNL d   1     -47.440  13.155  23.080  0.00  0.00     0.011 A 
ATOM      8  N   UNL d   1     -48.925  10.986  23.698  0.00  0.00    -0.022 NA
ATOM      9  N   UNL d   1     -49.628  11.369  23.567  0.00  0.00    -0.037 NA
ATOM     10  N   UNL d   1     -48.274  11.498  23.559  0.00  0.00    -0.108 NA
ATOM     11  C   UNL d   1     -47.423  13.951  22.841  0.00  0.00     0.031 A 
ATOM     12  C   UNL d   1     -49.871  12.803  23.131  0.00  0.00     0.204 A 
ATOM     13  C   UNL d   1     -46.644  12.950  23.159  0.00  0.00     0.001 A 
ATOM     14  C   UNL d   1     -46.658  14.209  22.780  0.00  0.00     0.006 A 
ATOM     15  C   UNL d   1     -46.182  13.593  22.976  0.00  0.00     0.001 A 
ENDROOT
TORSDOF 0
ENDMDL
MODEL 4
REMARK VINA RESULT:      -7.8      1.100      1.540
REMARK  0 active torsions:
REMARK  status: ('A' for Active; 'I' for Inactive)
ROOT
ATOM      1  C   UNL d   1     -48.037  12.569  23.011  0.00  0.00     0.062 A 
ATOM      2  C   UNL d   1     -48.231  11.840  23.348  0.00  0.00     0.116 A 
ATOM      3  C   UNL d   1     -47.234  12.826  23.019  0.00  0.00     0.192 A 
ATOM      4  N   UNL d   1     -46.657  12.334  23.368  0.00  0.00    -0.171 N 
ATOM      5  N   UNL d   1     -47.645  11.367  23.688  0.00  0.00    -0.217 NA
ATOM      6  S   UNL d   1     -49.051  11.773  23.240  0.00  0.00    -0.068 SA
ATOM      7  C   UNL d   1     -48.697  12.932  22.713  0.00  0.00     0.011 A 
ATOM      8  N   UNL d   1     -46.047  13.410  22.926  0.00  0.00    -0.022 NA
ATOM      9  N   UNL d   1     -45.902  12.709  23.308  0.00  0.00    -0.037 NA
ATOM     10  N   UNL d   1     -46.864  13.489  22.746  0.00  0.00    -0.108 NA
ATOM     11  C   UNL d   1     -49.334  12.418  22.865  0.00  0.00     0.031 A 
ATOM     12  C   UNL d   1     -46.874  11.610  23.698  0.00  0.00     0.204 A 
ATOM     13  C   UNL d   1     -49.042  13.575  22.328  0.00  0.00     0.001 A 
ATOM     14  C   UNL d   1     -50.023  12.737  22.584  0.00  0.00     0.006 A 
ATOM     15  C   UNL d   1     -49.841  13.447  22.255  0.00  0.00     0.001 A 
ENDROOT
TORSDOF 0
ENDMDL
MODEL 5
REMARK VINA RESULT:      -7.8      2.057      2.781
REMARK  0 active torsions:
REMARK  status: ('A' for Active; 'I' for Inactive)
ROOT
ATOM      1  C   UNL d   1     -48.366  12.467  22.650  0.00  0.00     0.062 A 
ATOM      2  C   UNL d   1     -48.533  11.859  23.185  0.00  0.00     0.116 A 
ATOM      3  C   UNL d   1     -48.971  12.732  22.125  0.00  0.00     0.192 A 
ATOM      4  N   UNL d   1     -49.724  12.371  22.163  0.00  0.00    -0.171 N 
ATOM      5  N   UNL d   1     -49.285  11.516  23.207  0.00  0.00    -0.217 NA
ATOM      6  S   UNL d   1     -47.824  11.748  23.601  0.00  0.00    -0.068 SA
ATOM      7  C   UNL d   1     -47.600  12.716  22.729  0.00  0.00     0.011 A 
ATOM      8  N   UNL d   1     -49.769  13.290  21.225  0.00  0.00    -0.022 NA
ATOM      9  N   UNL d   1     -50.230  12.729  21.588  0.00  0.00    -0.037 NA
ATOM     10  N   UNL d   1     -48.995  13.297  21.550  0.00  0.00    -0.108 NA
ATOM     11  C   UNL d   1     -47.266  12.254  23.335  0.00  0.00     0.031 A 
ATOM     12  C   UNL d   1     -49.867  11.767  22.706  0.00  0.00     0.204 A 
ATOM     13  C   UNL d   1     -46.987  13.215  22.493  0.00  0.00     0.001 A 
ATOM     14  C   UNL d   1     -46.494  12.465  23.454  0.00  0.00     0.006 A 
ATOM     15  C   UNL d   1     -46.325  13.055  22.937  0.00  0.00     0.001 A 
ENDROOT
TORSDOF 0
ENDMDL
MODEL 6
REMARK VINA RESULT:      -6.5      2.029      2.490
REMARK  0 active torsions:
REMARK  status: ('A' for Active; 'I' for Inactive)
ROOT
ATOM      1  C   UNL d   1     -49.519  13.776  23.042  0.00  0.00     0.062 A 
ATOM      2  C   UNL d   1     -50.132  13.323  23.361  0.00  0.00     0.116 A 
ATOM      3  C   UNL d   1     -48.872  13.389  22.665  0.00  0.00     0.192 A 
ATOM      4  N   UNL d   1     -48.870  12.554  22.626  0.00  0.00    -0.171 N 
ATOM      5  N   UNL d   1     -50.110  12.498  23.312  0.00  0.00    -0.217 NA
ATOM      6  S   UNL d   1     -50.659  13.879  23.678  0.00  0.00    -0.068 SA
ATOM      7  C   UNL d   1     -49.659  14.566  23.155  0.00  0.00     0.011 A 
ATOM      8  N   UNL d   1     -47.776  12.984  22.039  0.00  0.00    -0.022 NA
ATOM      9  N   UNL d   1     -48.170  12.299  22.227  0.00  0.00    -0.037 NA
ATOM     10  N   UNL d   1     -48.201  13.657  22.305  0.00  0.00    -0.108 NA
ATOM     11  C   UNL d   1     -50.384  14.619  23.559  0.00  0.00     0.031 A 
ATOM     12  C   UNL d   1     -49.492  12.122  22.952  0.00  0.00     0.204 A 
ATOM     13  C   UNL d   1     -49.422  15.351  23.059  0.00  0.00     0.001 A 
ATOM     14  C   UNL d   1     -50.571  15.394  23.698  0.00  0.00     0.006 A 
ATOM     15  C   UNL d   1     -49.979  15.842  23.390  0.00  0.00     0.001 A 
ENDROOT
TORSDOF 0
ENDMDL
MODEL 7
REMARK VINA RESULT:      -6.0      9.477     10.217
REMARK  0 active torsions:
REMARK  status: ('A' for Active; 'I' for Inactive)
ROOT
ATOM      1  C   UNL d   1     -39.613  14.644  17.052  0.00  0.00     0.062 A 
ATOM      2  C   UNL d   1     -39.667  15.418  16.764  0.00  0.00     0.116 A 
ATOM      3  C   UNL d   1     -40.172  14.376  17.623  0.00  0.00     0.192 A 
ATOM      4  N   UNL d   1     -40.768  14.902  17.881  0.00  0.00    -0.171 N 
ATOM      5  N   UNL d   1     -40.264  15.922  17.033  0.00  0.00    -0.217 NA
ATOM      6  S   UNL d   1     -39.040  15.483  16.226  0.00  0.00    -0.068 SA
ATOM      7  C   UNL d   1     -38.989  14.256  16.712  0.00  0.00     0.011 A 
ATOM      8  N   UNL d   1     -40.941  13.763  18.512  0.00  0.00    -0.022 NA
ATOM      9  N   UNL d   1     -41.256  14.509  18.448  0.00  0.00    -0.037 NA
ATOM     10  N   UNL d   1     -40.275  13.675  18.008  0.00  0.00    -0.108 NA
ATOM     11  C   UNL d   1     -38.634  14.797  16.190  0.00  0.00     0.031 A 
ATOM     12  C   UNL d   1     -40.803  15.669  17.580  0.00  0.00     0.204 A 
ATOM     13  C   UNL d   1     -38.534  13.571  16.636  0.00  0.00     0.001 A 
ATOM     14  C   UNL d   1     -38.000  14.455  15.821  0.00  0.00     0.006 A 
ATOM     15  C   UNL d   1     -37.940  13.703  16.096  0.00  0.00     0.001 A 
ENDROOT
TORSDOF 0
ENDMDL
