MODEL 1
REMARK VINA RESULT:      -9.3      0.000      0.000
REMARK  5 active torsions:
REMARK  status: ('A' for Active; 'I' for Inactive)
REMARK    1  A    between atoms: C_8  and  C_1 
REMARK    2  A    between atoms: C_7  and  C_4 
REMARK    3  A    between atoms: O_10  and  C_8 
REMARK    4  A    between atoms: C_16  and  O_10 
REMARK    5  A    between atoms: C_19  and  C_16 
ROOT
ATOM      1  C   UNL d   1      53.252  31.984  53.330  0.00  0.00     0.098 A 
ATOM      2  C   UNL d   1      52.804  31.340  53.029  0.00  0.00     0.075 A 
ATOM      3  C   UNL d   1      53.510  30.445  53.891  0.00  0.00     0.354 A 
ATOM      4  C   UNL d   1      53.820  31.849  53.903  0.00  0.00     0.093 A 
ATOM      5  N   UNL d   1      52.935  30.580  53.310  0.00  0.00    -0.256 N 
ATOM      6  N   UNL d   1      53.953  31.080  54.188  0.00  0.00    -0.192 NA
ATOM      7  O   UNL d   1      53.643  29.682  54.175  0.00  0.00    -0.244 OA
ATOM      8  C   UNL d   1      52.235  31.468  52.455  0.00  0.00     0.019 C 
ATOM      9  C   UNL d   1      52.494  29.948  53.015  0.00  0.00     0.104 C 
ENDROOT
BRANCH   1  10
ATOM     10  C   UNL d   1      53.131  32.754  53.056  0.00  0.00     0.303 C 
ATOM     11  O   UNL d   1      53.659  33.086  52.522  0.00  0.00    -0.259 OA
BRANCH  10  12
ATOM     12  O   UNL d   1      52.484  33.179  53.320  0.00  0.00    -0.271 OA
BRANCH  12  13
ATOM     13  C   UNL d   1      52.157  33.759  52.835  0.00  0.00     0.126 C 
BRANCH  13  14
ATOM     14  C   UNL d   1      51.567  34.258  53.126  0.00  0.00     0.025 C 
ATOM     15  C   UNL d   1      51.765  34.902  53.578  0.00  0.00     0.002 C 
ATOM     16  C   UNL d   1      50.777  34.115  52.966  0.00  0.00     0.002 C 
ENDBRANCH  13  14
ENDBRANCH  12  13
ENDBRANCH  10  12
ENDBRANCH   1  10
BRANCH   4  17
ATOM     17  C   UNL d   1      54.259  32.478  54.197  0.00  0.00     0.029 A 
ATOM     18  C   UNL d   1      54.179  32.706  54.991  0.00  0.00     0.059 A 
ATOM     19 CL   UNL d   1      53.656  32.296  55.485  0.00  0.00    -0.082 Cl
ATOM     20  C   UNL d   1      54.627  33.349  55.292  0.00  0.00     0.011 A 
ATOM     21  C   UNL d   1      55.148  33.753  54.793  0.00  0.00     0.001 A 
ATOM     22  C   UNL d   1      55.228  33.529  54.008  0.00  0.00     0.000 A 
ATOM     23  C   UNL d   1      54.762  32.861  53.696  0.00  0.00     0.002 A 
ENDBRANCH   4  17
TORSDOF 5
ENDMDL
MODEL 2
REMARK VINA RESULT:      -9.0      1.558      3.631
REMARK  5 active torsions:
REMARK  status: ('A' for Active; 'I' for Inactive)
REMARK    1  A    between atoms: C_8  and  C_1 
REMARK    2  A    between atoms: C_7  and  C_4 
REMARK    3  A    between atoms: O_10  and  C_8 
REMARK    4  A    between atoms: C_16  and  O_10 
REMARK    5  A    between atoms: C_19  and  C_16 
ROOT
ATOM      1  C   UNL d   1      53.326  33.119  53.792  0.00  0.00     0.098 A 
ATOM      2  C   UNL d   1      54.040  33.115  54.235  0.00  0.00     0.075 A 
ATOM      3  C   UNL d   1      53.621  34.296  54.922  0.00  0.00     0.354 A 
ATOM      4  C   UNL d   1      52.774  33.709  53.920  0.00  0.00     0.093 A 
ATOM      5  N   UNL d   1      54.181  33.701  54.794  0.00  0.00    -0.256 N 
ATOM      6  N   UNL d   1      52.917  34.300  54.485  0.00  0.00    -0.192 NA
ATOM      7  O   UNL d   1      53.761  34.885  55.483  0.00  0.00    -0.244 OA
ATOM      8  C   UNL d   1      54.597  32.528  54.113  0.00  0.00     0.019 C 
ATOM      9  C   UNL d   1      54.882  33.696  55.230  0.00  0.00     0.104 C 
ENDROOT
BRANCH   1  10
ATOM     10  C   UNL d   1      53.171  32.537  53.227  0.00  0.00     0.303 C 
ATOM     11  O   UNL d   1      53.225  32.718  52.428  0.00  0.00    -0.259 OA
BRANCH  10  12
ATOM     12  O   UNL d   1      52.965  31.783  53.470  0.00  0.00    -0.271 OA
BRANCH  12  13
ATOM     13  C   UNL d   1      53.154  31.139  52.992  0.00  0.00     0.126 C 
BRANCH  13  14
ATOM     14  C   UNL d   1      52.947  30.376  53.226  0.00  0.00     0.025 C 
ATOM     15  C   UNL d   1      52.251  30.046  52.970  0.00  0.00     0.002 C 
ATOM     16  C   UNL d   1      53.434  29.937  53.716  0.00  0.00     0.002 C 
ENDBRANCH  13  14
ENDBRANCH  12  13
ENDBRANCH  10  12
ENDBRANCH   1  10
BRANCH   4  17
ATOM     17  C   UNL d   1      52.076  33.713  53.487  0.00  0.00     0.029 A 
ATOM     18  C   UNL d   1      51.977  34.250  52.862  0.00  0.00     0.059 A 
ATOM     19 CL   UNL d   1      52.585  34.781  52.678  0.00  0.00    -0.082 Cl
ATOM     20  C   UNL d   1      51.264  34.255  52.419  0.00  0.00     0.011 A 
ATOM     21  C   UNL d   1      50.662  33.722  52.609  0.00  0.00     0.001 A 
ATOM     22  C   UNL d   1      50.757  33.190  53.226  0.00  0.00     0.000 A 
ATOM     23  C   UNL d   1      51.499  33.185  53.686  0.00  0.00     0.002 A 
ENDBRANCH   4  17
TORSDOF 5
ENDMDL
MODEL 3
REMARK VINA RESULT:      -8.4      1.400      2.944
REMARK  5 active torsions:
REMARK  status: ('A' for Active; 'I' for Inactive)
REMARK    1  A    between atoms: C_8  and  C_1 
REMARK    2  A    between atoms: C_7  and  C_4 
REMARK    3  A    between atoms: O_10  and  C_8 
REMARK    4  A    between atoms: C_16  and  O_10 
REMARK    5  A    between atoms: C_19  and  C_16 
ROOT
ATOM      1  C   UNL d   1      52.677  33.178  53.226  0.00  0.00     0.098 A 
ATOM      2  C   UNL d   1      51.919  33.338  52.903  0.00  0.00     0.075 A 
ATOM      3  C   UNL d   1      51.894  34.594  53.583  0.00  0.00     0.354 A 
ATOM      4  C   UNL d   1      53.031  33.726  53.720  0.00  0.00     0.093 A 
ATOM      5  N   UNL d   1      51.534  34.041  53.083  0.00  0.00    -0.256 N 
ATOM      6  N   UNL d   1      52.643  34.437  53.902  0.00  0.00    -0.192 NA
ATOM      7  O   UNL d   1      51.510  35.302  53.764  0.00  0.00    -0.244 OA
ATOM      8  C   UNL d   1      51.559  32.794  52.408  0.00  0.00     0.019 C 
ATOM      9  C   UNL d   1      50.789  34.198  52.765  0.00  0.00     0.104 C 
ENDROOT
BRANCH   1  10
ATOM     10  C   UNL d   1      53.075  32.475  53.054  0.00  0.00     0.303 C 
ATOM     11  O   UNL d   1      53.694  32.476  52.515  0.00  0.00    -0.259 OA
BRANCH  10  12
ATOM     12  O   UNL d   1      52.848  31.781  53.424  0.00  0.00    -0.271 OA
BRANCH  12  13
ATOM     13  C   UNL d   1      52.977  31.061  53.045  0.00  0.00     0.126 C 
BRANCH  13  14
ATOM     14  C   UNL d   1      52.889  30.353  53.461  0.00  0.00     0.025 C 
ATOM     15  C   UNL d   1      52.160  30.000  53.515  0.00  0.00     0.002 C 
ATOM     16  C   UNL d   1      53.530  29.995  53.823  0.00  0.00     0.002 C 
ENDBRANCH  13  14
ENDBRANCH  12  13
ENDBRANCH  10  12
ENDBRANCH   1  10
BRANCH   4  17
ATOM     17  C   UNL d   1      53.772  33.570  54.036  0.00  0.00     0.029 A 
ATOM     18  C   UNL d   1      53.868  33.495  54.858  0.00  0.00     0.059 A 
ATOM     19 CL   UNL d   1      53.212  33.578  55.355  0.00  0.00    -0.082 Cl
ATOM     20  C   UNL d   1      54.626  33.335  55.180  0.00  0.00     0.011 A 
ATOM     21  C   UNL d   1      55.276  33.253  54.677  0.00  0.00     0.001 A 
ATOM     22  C   UNL d   1      55.185  33.326  53.865  0.00  0.00     0.000 A 
ATOM     23  C   UNL d   1      54.396  33.492  53.529  0.00  0.00     0.002 A 
ENDBRANCH   4  17
TORSDOF 5
ENDMDL
MODEL 4
REMARK VINA RESULT:      -7.7      1.378      2.795
REMARK  5 active torsions:
REMARK  status: ('A' for Active; 'I' for Inactive)
REMARK    1  A    between atoms: C_8  and  C_1 
REMARK    2  A    between atoms: C_7  and  C_4 
REMARK    3  A    between atoms: O_10  and  C_8 
REMARK    4  A    between atoms: C_16  and  O_10 
REMARK    5  A    between atoms: C_19  and  C_16 
ROOT
ATOM      1  C   UNL d   1      52.993  32.862  53.230  0.00  0.00     0.098 A 
ATOM      2  C   UNL d   1      53.552  32.271  53.439  0.00  0.00     0.075 A 
ATOM      3  C   UNL d   1      52.636  31.256  53.023  0.00  0.00     0.354 A 
ATOM      4  C   UNL d   1      52.267  32.642  52.922  0.00  0.00     0.093 A 
ATOM      5  N   UNL d   1      53.371  31.476  53.335  0.00  0.00    -0.256 N 
ATOM      6  N   UNL d   1      52.084  31.839  52.816  0.00  0.00    -0.192 NA
ATOM      7  O   UNL d   1      52.452  30.459  52.917  0.00  0.00    -0.244 OA
ATOM      8  C   UNL d   1      54.280  32.483  53.747  0.00  0.00     0.019 C 
ATOM      9  C   UNL d   1      53.920  30.896  53.540  0.00  0.00     0.104 C 
ENDROOT
BRANCH   1  10
ATOM     10  C   UNL d   1      53.162  33.664  53.329  0.00  0.00     0.303 C 
ATOM     11  O   UNL d   1      53.423  34.109  52.691  0.00  0.00    -0.259 OA
BRANCH  10  12
ATOM     12  O   UNL d   1      53.067  34.009  54.065  0.00  0.00    -0.271 OA
BRANCH  12  13
ATOM     13  C   UNL d   1      53.524  34.663  54.267  0.00  0.00     0.126 C 
BRANCH  13  14
ATOM     14  C   UNL d   1      53.309  35.138  54.906  0.00  0.00     0.025 C 
ATOM     15  C   UNL d   1      53.055  35.899  54.781  0.00  0.00     0.002 C 
ATOM     16  C   UNL d   1      53.347  34.855  55.673  0.00  0.00     0.002 C 
ENDBRANCH  13  14
ENDBRANCH  12  13
ENDBRANCH  10  12
ENDBRANCH   1  10
BRANCH   4  17
ATOM     17  C   UNL d   1      51.721  33.219  52.717  0.00  0.00     0.029 A 
ATOM     18  C   UNL d   1      51.005  33.282  53.133  0.00  0.00     0.059 A 
ATOM     19 CL   UNL d   1      50.846  32.759  53.755  0.00  0.00    -0.082 Cl
ATOM     20  C   UNL d   1      50.446  33.872  52.924  0.00  0.00     0.011 A 
ATOM     21  C   UNL d   1      50.612  34.390  52.303  0.00  0.00     0.001 A 
ATOM     22  C   UNL d   1      51.318  34.331  51.889  0.00  0.00     0.000 A 
ATOM     23  C   UNL d   1      51.900  33.717  52.107  0.00  0.00     0.002 A 
ENDBRANCH   4  17
TORSDOF 5
ENDMDL
MODEL 5
REMARK VINA RESULT:      -7.0      1.317      2.646
REMARK  5 active torsions:
REMARK  status: ('A' for Active; 'I' for Inactive)
REMARK    1  A    between atoms: C_8  and  C_1 
REMARK    2  A    between atoms: C_7  and  C_4 
REMARK    3  A    between atoms: O_10  and  C_8 
REMARK    4  A    between atoms: C_16  and  O_10 
REMARK    5  A    between atoms: C_19  and  C_16 
ROOT
ATOM      1  C   UNL d   1      53.505  33.272  53.848  0.00  0.00     0.098 A 
ATOM      2  C   UNL d   1      53.693  34.025  54.169  0.00  0.00     0.075 A 
ATOM      3  C   UNL d   1      54.637  33.413  55.051  0.00  0.00     0.354 A 
ATOM      4  C   UNL d   1      53.884  32.605  54.131  0.00  0.00     0.093 A 
ATOM      5  N   UNL d   1      54.255  34.090  54.765  0.00  0.00    -0.256 N 
ATOM      6  N   UNL d   1      54.451  32.670  54.733  0.00  0.00    -0.192 NA
ATOM      7  O   UNL d   1      55.201  33.476  55.649  0.00  0.00    -0.244 OA
ATOM      8  C   UNL d   1      53.319  34.697  53.891  0.00  0.00     0.019 C 
ATOM      9  C   UNL d   1      54.440  34.829  55.081  0.00  0.00     0.104 C 
ENDROOT
BRANCH   1  10
ATOM     10  C   UNL d   1      52.942  33.193  53.248  0.00  0.00     0.303 C 
ATOM     11  O   UNL d   1      53.184  33.036  52.479  0.00  0.00    -0.259 OA
BRANCH  10  12
ATOM     12  O   UNL d   1      52.148  33.271  53.427  0.00  0.00    -0.271 OA
BRANCH  12  13
ATOM     13  C   UNL d   1      51.623  33.507  52.838  0.00  0.00     0.126 C 
BRANCH  13  14
ATOM     14  C   UNL d   1      50.819  33.585  53.006  0.00  0.00     0.025 C 
ATOM     15  C   UNL d   1      50.432  34.277  52.835  0.00  0.00     0.002 C 
ATOM     16  C   UNL d   1      50.398  32.971  53.347  0.00  0.00     0.002 C 
ENDBRANCH  13  14
ENDBRANCH  12  13
ENDBRANCH  10  12
ENDBRANCH   1  10
BRANCH   4  17
ATOM     17  C   UNL d   1      53.700  31.869  53.817  0.00  0.00     0.029 A 
ATOM     18  C   UNL d   1      53.405  31.268  54.308  0.00  0.00     0.059 A 
ATOM     19 CL   UNL d   1      53.299  31.415  55.116  0.00  0.00    -0.082 Cl
ATOM     20  C   UNL d   1      53.217  30.516  53.987  0.00  0.00     0.011 A 
ATOM     21  C   UNL d   1      53.326  30.377  53.180  0.00  0.00     0.001 A 
ATOM     22  C   UNL d   1      53.617  30.969  52.692  0.00  0.00     0.000 A 
ATOM     23  C   UNL d   1      53.813  31.751  53.026  0.00  0.00     0.002 A 
ENDBRANCH   4  17
TORSDOF 5
ENDMDL
MODEL 6
REMARK VINA RESULT:      -6.3      1.465      3.284
REMARK  5 active torsions:
REMARK  status: ('A' for Active; 'I' for Inactive)
REMARK    1  A    between atoms: C_8  and  C_1 
REMARK    2  A    between atoms: C_7  and  C_4 
REMARK    3  A    between atoms: O_10  and  C_8 
REMARK    4  A    between atoms: C_16  and  O_10 
REMARK    5  A    between atoms: C_19  and  C_16 
ROOT
ATOM      1  C   UNL d   1      52.872  32.989  53.423  0.00  0.00     0.098 A 
ATOM      2  C   UNL d   1      52.508  33.737  53.309  0.00  0.00     0.075 A 
ATOM      3  C   UNL d   1      51.241  33.095  53.148  0.00  0.00     0.354 A 
ATOM      4  C   UNL d   1      52.418  32.309  53.398  0.00  0.00     0.093 A 
ATOM      5  N   UNL d   1      51.699  33.784  53.173  0.00  0.00    -0.256 N 
ATOM      6  N   UNL d   1      51.601  32.357  53.261  0.00  0.00    -0.192 NA
ATOM      7  O   UNL d   1      50.428  33.141  53.012  0.00  0.00    -0.244 OA
ATOM      8  C   UNL d   1      52.955  34.421  53.332  0.00  0.00     0.019 C 
ATOM      9  C   UNL d   1      51.341  34.519  53.060  0.00  0.00     0.104 C 
ENDROOT
BRANCH   1  10
ATOM     10  C   UNL d   1      53.684  32.926  53.561  0.00  0.00     0.303 C 
ATOM     11  O   UNL d   1      54.182  32.672  52.960  0.00  0.00    -0.259 OA
BRANCH  10  12
ATOM     12  O   UNL d   1      53.985  33.118  54.297  0.00  0.00    -0.271 OA
BRANCH  12  13
ATOM     13  C   UNL d   1      54.781  33.317  54.369  0.00  0.00     0.126 C 
BRANCH  13  14
ATOM     14  C   UNL d   1      55.072  33.614  55.082  0.00  0.00     0.025 C 
ATOM     15  C   UNL d   1      55.719  34.103  55.086  0.00  0.00     0.002 C 
ATOM     16  C   UNL d   1      54.716  33.423  55.794  0.00  0.00     0.002 C 
ENDBRANCH  13  14
ENDBRANCH  12  13
ENDBRANCH  10  12
ENDBRANCH   1  10
BRANCH   4  17
ATOM     17  C   UNL d   1      52.774  31.578  53.510  0.00  0.00     0.029 A 
ATOM     18  C   UNL d   1      52.885  31.065  52.867  0.00  0.00     0.059 A 
ATOM     19 CL   UNL d   1      52.634  31.295  52.112  0.00  0.00    -0.082 Cl
ATOM     20  C   UNL d   1      53.249  30.318  52.981  0.00  0.00     0.011 A 
ATOM     21  C   UNL d   1      53.496  30.095  53.737  0.00  0.00     0.001 A 
ATOM     22  C   UNL d   1      53.389  30.599  54.375  0.00  0.00     0.000 A 
ATOM     23  C   UNL d   1      53.010  31.377  54.256  0.00  0.00     0.002 A 
ENDBRANCH   4  17
TORSDOF 5
ENDMDL
MODEL 7
REMARK VINA RESULT:      -6.3      1.355      1.897
REMARK  5 active torsions:
REMARK  status: ('A' for Active; 'I' for Inactive)
REMARK    1  A    between atoms: C_8  and  C_1 
REMARK    2  A    between atoms: C_7  and  C_4 
REMARK    3  A    between atoms: O_10  and  C_8 
REMARK    4  A    between atoms: C_16  and  O_10 
REMARK    5  A    between atoms: C_19  and  C_16 
ROOT
ATOM      1  C   UNL d   1      52.461  32.969  53.463  0.00  0.00     0.098 A 
ATOM      2  C   UNL d   1      52.451  32.179  53.180  0.00  0.00     0.075 A 
ATOM      3  C   UNL d   1      53.874  32.122  53.290  0.00  0.00     0.354 A 
ATOM      4  C   UNL d   1      53.174  33.322  53.655  0.00  0.00     0.093 A 
ATOM      5  N   UNL d   1      53.154  31.762  53.096  0.00  0.00    -0.256 N 
ATOM      6  N   UNL d   1      53.884  32.902  53.570  0.00  0.00    -0.192 NA
ATOM      7  O   UNL d   1      54.582  31.705  53.207  0.00  0.00    -0.244 OA
ATOM      8  C   UNL d   1      51.742  31.819  52.986  0.00  0.00     0.019 C 
ATOM      9  C   UNL d   1      53.145  30.986  52.817  0.00  0.00     0.104 C 
ENDROOT
BRANCH   1  10
ATOM     10  C   UNL d   1      51.761  33.400  53.553  0.00  0.00     0.303 C 
ATOM     11  O   UNL d   1      51.442  33.510  54.301  0.00  0.00    -0.259 OA
BRANCH  10  12
ATOM     12  O   UNL d   1      51.392  33.713  52.893  0.00  0.00    -0.271 OA
BRANCH  12  13
ATOM     13  C   UNL d   1      50.571  33.777  52.881  0.00  0.00     0.126 C 
BRANCH  13  14
ATOM     14  C   UNL d   1      50.202  34.276  52.338  0.00  0.00     0.025 C 
ATOM     15  C   UNL d   1      49.670  34.833  52.592  0.00  0.00     0.002 C 
ATOM     16  C   UNL d   1      50.363  34.220  51.537  0.00  0.00     0.002 C 
ENDBRANCH  13  14
ENDBRANCH  12  13
ENDBRANCH  10  12
ENDBRANCH   1  10
BRANCH   4  17
ATOM     17  C   UNL d   1      53.183  34.095  53.932  0.00  0.00     0.029 A 
ATOM     18  C   UNL d   1      53.316  34.248  54.737  0.00  0.00     0.059 A 
ATOM     19 CL   UNL d   1      53.440  33.617  55.258  0.00  0.00    -0.082 Cl
ATOM     20  C   UNL d   1      53.326  35.038  55.020  0.00  0.00     0.011 A 
ATOM     21  C   UNL d   1      53.202  35.662  54.493  0.00  0.00     0.001 A 
ATOM     22  C   UNL d   1      53.070  35.515  53.697  0.00  0.00     0.000 A 
ATOM     23  C   UNL d   1      53.060  34.693  53.403  0.00  0.00     0.002 A 
ENDBRANCH   4  17
TORSDOF 5
ENDMDL
