MODEL 1
REMARK VINA RESULT:      17.1      0.000      0.000
REMARK  5 active torsions:
REMARK  status: ('A' for Active; 'I' for Inactive)
REMARK    1  A    between atoms: C_4  and  S_1 
REMARK    2  A    between atoms: N_12  and  S_1 
REMARK    3  A    between atoms: N_2  and  C_17 
REMARK    4  A    between atoms: C_16  and  N_12 
REMARK    5  A    between atoms: C_17  and  C_16 
ROOT
ATOM      1  N   UNL d   1      45.765 -15.876  43.912  0.00  0.00    -0.155 NA
ENDROOT
BRANCH   1   2
ATOM      2  S   UNL d   1      45.238 -15.477  44.402  0.00  0.00     0.285 S 
ATOM      3  O   UNL d   1      44.655 -15.285  44.953  0.00  0.00    -0.198 OA
ATOM      4  O   UNL d   1      45.115 -16.283  44.548  0.00  0.00    -0.198 OA
BRANCH   2   5
ATOM      5  C   UNL d   1      45.376 -14.673  44.242  0.00  0.00     0.105 A 
ATOM      6  C   UNL d   1      46.065 -14.314  44.518  0.00  0.00     0.012 A 
ATOM      7  C   UNL d   1      46.206 -13.521  44.363  0.00  0.00     0.001 A 
ATOM      8  C   UNL d   1      46.619 -14.750  44.955  0.00  0.00     0.001 C 
ATOM      9  C   UNL d   1      45.655 -13.078  43.926  0.00  0.00     0.000 A 
ATOM     10  C   UNL d   1      44.964 -13.448  43.652  0.00  0.00     0.001 A 
ATOM     11  C   UNL d   1      45.784 -12.282  43.763  0.00  0.00     0.000 C 
ATOM     12  C   UNL d   1      44.832 -14.247  43.814  0.00  0.00     0.012 A 
ATOM     13  C   UNL d   1      44.145 -14.610  43.540  0.00  0.00     0.001 C 
ENDBRANCH   2   5
ENDBRANCH   1   2
BRANCH   1  14
ATOM     14  C   UNL d   1      45.823 -16.699  43.943  0.00  0.00     0.131 C 
BRANCH  14  15
ATOM     15  C   UNL d   1      46.431 -17.084  43.541  0.00  0.00     0.102 C 
BRANCH  15  16
ATOM     16  N   UNL d   1      46.448 -17.908  43.514  0.00  0.00    -0.304 N 
ATOM     17  C   UNL d   1      46.407 -18.416  44.166  0.00  0.00     0.064 A 
ATOM     18  C   UNL d   1      46.442 -19.191  43.889  0.00  0.00     0.019 A 
ATOM     19  C   UNL d   1      46.343 -18.187  44.955  0.00  0.00     0.019 C 
ATOM     20  C   UNL d   1      46.504 -19.169  43.067  0.00  0.00     0.018 A 
ATOM     21  C   UNL d   1      46.508 -18.378  42.832  0.00  0.00     0.064 A 
ATOM     22  C   UNL d   1      46.558 -19.759  42.495  0.00  0.00     0.002 A 
ATOM     23  C   UNL d   1      46.565 -18.175  42.038  0.00  0.00     0.018 A 
ATOM     24  C   UNL d   1      46.619 -18.763  41.466  0.00  0.00     0.002 A 
ATOM     25  C   UNL d   1      46.616 -19.568  41.688  0.00  0.00     0.000 A 
ENDBRANCH  15  16
ENDBRANCH  14  15
ENDBRANCH   1  14
TORSDOF 5
ENDMDL
