MODEL 1
REMARK VINA RESULT:      -7.9      0.000      0.000
REMARK  6 active torsions:
REMARK  status: ('A' for Active; 'I' for Inactive)
REMARK    1  A    between atoms: C_8  and  C_6 
REMARK    2  A    between atoms: C_10  and  C_8 
REMARK       I    between atoms: N_13  and  C_10 
REMARK    3  A    between atoms: C_11  and  C_14 
REMARK    4  A    between atoms: O_20  and  C_11 
REMARK    5  A    between atoms: C_19  and  N_13 
REMARK    6  A    between atoms: C_23  and  O_20 
ROOT
ATOM      1  C   UNL d   1      53.413  32.899  53.330  0.00  0.00     0.280 C 
ATOM      2  N   UNL d   1      53.186  33.694  53.342  0.00  0.00    -0.208 NA
ATOM      3  O   UNL d   1      54.184  32.693  53.540  0.00  0.00    -0.265 OA
ENDROOT
BRANCH   1   4
ATOM      4  C   UNL d   1      52.874  32.318  53.109  0.00  0.00     0.074 C 
BRANCH   4   5
ATOM      5  C   UNL d   1      52.992  31.533  53.344  0.00  0.00     0.095 A 
ATOM      6  C   UNL d   1      52.817  30.863  52.899  0.00  0.00     0.288 A 
ATOM      7  N   UNL d   1      53.021  30.203  53.342  0.00  0.00    -0.169 N 
ATOM      8  O   UNL d   1      52.492  30.857  52.141  0.00  0.00    -0.265 OA
ATOM      9  C   UNL d   1      53.326  30.463  54.067  0.00  0.00     0.200 A 
ATOM     10  N   UNL d   1      53.039  29.378  53.340  0.00  0.00    -0.138 NA
ATOM     11  N   UNL d   1      53.532  29.800  54.513  0.00  0.00    -0.197 NA
ATOM     12  S   UNL d   1      53.308  31.288  54.068  0.00  0.00    -0.043 SA
ATOM     13  C   UNL d   1      53.355  29.126  54.064  0.00  0.00     0.222 A 
ENDBRANCH   4   5
ENDBRANCH   1   4
BRANCH   2  14
ATOM     14  C   UNL d   1      52.416  33.897  53.132  0.00  0.00     0.085 A 
ATOM     15  C   UNL d   1      52.250  34.104  52.348  0.00  0.00     0.019 A 
ATOM     16  C   UNL d   1      51.489  34.308  52.126  0.00  0.00     0.007 A 
ATOM     17  C   UNL d   1      50.879  34.306  52.692  0.00  0.00     0.064 A 
ATOM     18  C   UNL d   1      51.047  34.098  53.476  0.00  0.00     0.007 A 
ATOM     19  C   UNL d   1      51.813  33.895  53.694  0.00  0.00     0.019 A 
BRANCH  17  20
ATOM     20  C   UNL d   1      50.113  34.509  52.479  0.00  0.00     0.300 C 
ATOM     21  O   UNL d   1      49.615  34.877  53.030  0.00  0.00    -0.259 OA
BRANCH  20  22
ATOM     22  O   UNL d   1      49.837  34.348  51.720  0.00  0.00    -0.271 OA
BRANCH  22  23
ATOM     23  C   UNL d   1      49.063  34.556  51.512  0.00  0.00     0.126 C 
ATOM     24  C   UNL d   1      48.815  34.486  50.727  0.00  0.00     0.029 C 
ENDBRANCH  22  23
ENDBRANCH  20  22
ENDBRANCH  17  20
ENDBRANCH   2  14
TORSDOF 6
ENDMDL
MODEL 2
REMARK VINA RESULT:      -7.6      1.987      2.655
REMARK  6 active torsions:
REMARK  status: ('A' for Active; 'I' for Inactive)
REMARK    1  A    between atoms: C_8  and  C_6 
REMARK    2  A    between atoms: C_10  and  C_8 
REMARK       I    between atoms: N_13  and  C_10 
REMARK    3  A    between atoms: C_11  and  C_14 
REMARK    4  A    between atoms: O_20  and  C_11 
REMARK    5  A    between atoms: C_19  and  N_13 
REMARK    6  A    between atoms: C_23  and  O_20 
ROOT
ATOM      1  C   UNL d   1      52.512  32.987  52.870  0.00  0.00     0.280 C 
ATOM      2  N   UNL d   1      51.833  32.896  52.408  0.00  0.00    -0.208 NA
ATOM      3  O   UNL d   1      53.137  32.454  52.784  0.00  0.00    -0.265 OA
ENDROOT
BRANCH   1   4
ATOM      4  C   UNL d   1      52.565  33.603  53.413  0.00  0.00     0.074 C 
BRANCH   4   5
ATOM      5  C   UNL d   1      53.198  33.632  53.947  0.00  0.00     0.095 A 
ATOM      6  C   UNL d   1      53.531  34.314  54.266  0.00  0.00     0.288 A 
ATOM      7  N   UNL d   1      54.141  34.088  54.766  0.00  0.00    -0.169 N 
ATOM      8  O   UNL d   1      53.292  35.088  54.110  0.00  0.00    -0.265 OA
ATOM      9  C   UNL d   1      54.188  33.261  54.758  0.00  0.00     0.200 A 
ATOM     10  N   UNL d   1      54.726  34.371  55.274  0.00  0.00    -0.138 NA
ATOM     11  N   UNL d   1      54.802  33.033  55.262  0.00  0.00    -0.197 NA
ATOM     12  S   UNL d   1      53.603  32.978  54.250  0.00  0.00    -0.043 SA
ATOM     13  C   UNL d   1      55.137  33.721  55.582  0.00  0.00     0.222 A 
ENDBRANCH   4   5
ENDBRANCH   1   4
BRANCH   2  14
ATOM     14  C   UNL d   1      51.210  33.430  52.497  0.00  0.00     0.085 A 
ATOM     15  C   UNL d   1      51.139  34.061  51.967  0.00  0.00     0.019 A 
ATOM     16  C   UNL d   1      50.526  34.598  52.045  0.00  0.00     0.007 A 
ATOM     17  C   UNL d   1      49.972  34.508  52.658  0.00  0.00     0.064 A 
ATOM     18  C   UNL d   1      50.046  33.874  53.188  0.00  0.00     0.007 A 
ATOM     19  C   UNL d   1      50.663  33.337  53.106  0.00  0.00     0.019 A 
BRANCH  17  20
ATOM     20  C   UNL d   1      49.354  35.041  52.744  0.00  0.00     0.300 C 
ATOM     21  O   UNL d   1      49.335  35.548  53.400  0.00  0.00    -0.259 OA
BRANCH  20  22
ATOM     22  O   UNL d   1      48.754  35.074  52.182  0.00  0.00    -0.271 OA
BRANCH  22  23
ATOM     23  C   UNL d   1      48.117  35.592  52.291  0.00  0.00     0.126 C 
ATOM     24  C   UNL d   1      47.515  35.629  51.726  0.00  0.00     0.029 C 
ENDBRANCH  22  23
ENDBRANCH  20  22
ENDBRANCH  17  20
ENDBRANCH   2  14
TORSDOF 6
ENDMDL
MODEL 3
REMARK VINA RESULT:      -7.6      2.352      4.938
REMARK  6 active torsions:
REMARK  status: ('A' for Active; 'I' for Inactive)
REMARK    1  A    between atoms: C_8  and  C_6 
REMARK    2  A    between atoms: C_10  and  C_8 
REMARK       I    between atoms: N_13  and  C_10 
REMARK    3  A    between atoms: C_11  and  C_14 
REMARK    4  A    between atoms: O_20  and  C_11 
REMARK    5  A    between atoms: C_19  and  N_13 
REMARK    6  A    between atoms: C_23  and  O_20 
ROOT
ATOM      1  C   UNL d   1      52.623  32.819  52.717  0.00  0.00     0.280 C 
ATOM      2  N   UNL d   1      52.527  32.095  52.329  0.00  0.00    -0.208 NA
ATOM      3  O   UNL d   1      52.486  33.522  52.308  0.00  0.00    -0.265 OA
ENDROOT
BRANCH   1   4
ATOM      4  C   UNL d   1      52.854  32.838  53.508  0.00  0.00     0.074 C 
BRANCH   4   5
ATOM      5  C   UNL d   1      52.935  33.564  53.898  0.00  0.00     0.095 A 
ATOM      6  C   UNL d   1      53.330  33.690  54.609  0.00  0.00     0.288 A 
ATOM      7  N   UNL d   1      53.274  34.487  54.793  0.00  0.00    -0.169 N 
ATOM      8  O   UNL d   1      53.716  33.114  55.056  0.00  0.00    -0.265 OA
ATOM      9  C   UNL d   1      52.841  34.860  54.194  0.00  0.00     0.200 A 
ATOM     10  N   UNL d   1      53.484  35.060  55.349  0.00  0.00    -0.138 NA
ATOM     11  N   UNL d   1      52.783  35.663  54.379  0.00  0.00    -0.197 NA
ATOM     12  S   UNL d   1      52.630  34.288  53.638  0.00  0.00    -0.043 SA
ATOM     13  C   UNL d   1      53.182  35.789  55.095  0.00  0.00     0.222 A 
ENDBRANCH   4   5
ENDBRANCH   1   4
BRANCH   2  14
ATOM     14  C   UNL d   1      52.666  31.395  52.742  0.00  0.00     0.085 A 
ATOM     15  C   UNL d   1      52.035  31.017  53.122  0.00  0.00     0.019 A 
ATOM     16  C   UNL d   1      52.160  30.321  53.535  0.00  0.00     0.007 A 
ATOM     17  C   UNL d   1      52.922  29.993  53.572  0.00  0.00     0.064 A 
ATOM     18  C   UNL d   1      53.552  30.373  53.190  0.00  0.00     0.007 A 
ATOM     19  C   UNL d   1      53.423  31.072  52.777  0.00  0.00     0.019 A 
BRANCH  17  20
ATOM     20  C   UNL d   1      53.056  29.295  53.984  0.00  0.00     0.300 C 
ATOM     21  O   UNL d   1      53.028  28.569  53.584  0.00  0.00    -0.259 OA
BRANCH  20  22
ATOM     22  O   UNL d   1      53.218  29.314  54.790  0.00  0.00    -0.271 OA
BRANCH  22  23
ATOM     23  C   UNL d   1      53.332  28.605  55.203  0.00  0.00     0.126 C 
ATOM     24  C   UNL d   1      53.406  28.615  56.026  0.00  0.00     0.029 C 
ENDBRANCH  22  23
ENDBRANCH  20  22
ENDBRANCH  17  20
ENDBRANCH   2  14
TORSDOF 6
ENDMDL
MODEL 4
REMARK VINA RESULT:      -7.0      2.051      4.786
REMARK  6 active torsions:
REMARK  status: ('A' for Active; 'I' for Inactive)
REMARK    1  A    between atoms: C_8  and  C_6 
REMARK    2  A    between atoms: C_10  and  C_8 
REMARK       I    between atoms: N_13  and  C_10 
REMARK    3  A    between atoms: C_11  and  C_14 
REMARK    4  A    between atoms: O_20  and  C_11 
REMARK    5  A    between atoms: C_19  and  N_13 
REMARK    6  A    between atoms: C_23  and  O_20 
ROOT
ATOM      1  C   UNL d   1      52.738  34.286  53.476  0.00  0.00     0.280 C 
ATOM      2  N   UNL d   1      53.408  33.956  53.831  0.00  0.00    -0.208 NA
ATOM      3  O   UNL d   1      52.626  35.103  53.499  0.00  0.00    -0.265 OA
ENDROOT
BRANCH   1   4
ATOM      4  C   UNL d   1      52.185  33.802  53.103  0.00  0.00     0.074 C 
BRANCH   4   5
ATOM      5  C   UNL d   1      51.429  34.094  52.933  0.00  0.00     0.095 A 
ATOM      6  C   UNL d   1      51.069  34.101  52.192  0.00  0.00     0.288 A 
ATOM      7  N   UNL d   1      50.326  34.437  52.274  0.00  0.00    -0.169 N 
ATOM      8  O   UNL d   1      51.400  33.820  51.491  0.00  0.00    -0.265 OA
ATOM      9  C   UNL d   1      50.221  34.640  53.070  0.00  0.00     0.200 A 
ATOM     10  N   UNL d   1      49.641  34.650  51.866  0.00  0.00    -0.138 NA
ATOM     11  N   UNL d   1      49.472  34.978  53.154  0.00  0.00    -0.197 NA
ATOM     12  S   UNL d   1      50.905  34.427  53.479  0.00  0.00    -0.043 SA
ATOM     13  C   UNL d   1      49.111  34.985  52.408  0.00  0.00     0.222 A 
ENDBRANCH   4   5
ENDBRANCH   1   4
BRANCH   2  14
ATOM     14  C   UNL d   1      53.516  33.139  53.806  0.00  0.00     0.085 A 
ATOM     15  C   UNL d   1      53.309  32.682  54.463  0.00  0.00     0.019 A 
ATOM     16  C   UNL d   1      53.412  31.870  54.451  0.00  0.00     0.007 A 
ATOM     17  C   UNL d   1      53.726  31.503  53.774  0.00  0.00     0.064 A 
ATOM     18  C   UNL d   1      53.934  31.963  53.117  0.00  0.00     0.007 A 
ATOM     19  C   UNL d   1      53.829  32.779  53.133  0.00  0.00     0.019 A 
BRANCH  17  20
ATOM     20  C   UNL d   1      53.833  30.690  53.753  0.00  0.00     0.300 C 
ATOM     21  O   UNL d   1      54.365  30.358  53.210  0.00  0.00    -0.259 OA
BRANCH  20  22
ATOM     22  O   UNL d   1      53.414  30.203  54.267  0.00  0.00    -0.271 OA
BRANCH  22  23
ATOM     23  C   UNL d   1      53.404  29.385  54.141  0.00  0.00     0.126 C 
ATOM     24  C   UNL d   1      53.251  28.872  54.771  0.00  0.00     0.029 C 
ENDBRANCH  22  23
ENDBRANCH  20  22
ENDBRANCH  17  20
ENDBRANCH   2  14
TORSDOF 6
ENDMDL
MODEL 5
REMARK VINA RESULT:      -6.9      3.024      5.650
REMARK  6 active torsions:
REMARK  status: ('A' for Active; 'I' for Inactive)
REMARK    1  A    between atoms: C_8  and  C_6 
REMARK    2  A    between atoms: C_10  and  C_8 
REMARK       I    between atoms: N_13  and  C_10 
REMARK    3  A    between atoms: C_11  and  C_14 
REMARK    4  A    between atoms: O_20  and  C_11 
REMARK    5  A    between atoms: C_19  and  N_13 
REMARK    6  A    between atoms: C_23  and  O_20 
ROOT
ATOM      1  C   UNL d   1      49.801  34.370  51.869  0.00  0.00     0.280 C 
ATOM      2  N   UNL d   1      50.522  33.971  51.801  0.00  0.00    -0.208 NA
ATOM      3  O   UNL d   1      49.245  34.314  51.262  0.00  0.00    -0.265 OA
ENDROOT
BRANCH   1   4
ATOM      4  C   UNL d   1      49.638  34.820  52.540  0.00  0.00     0.074 C 
BRANCH   4   5
ATOM      5  C   UNL d   1      48.939  35.261  52.582  0.00  0.00     0.095 A 
ATOM      6  C   UNL d   1      48.705  35.739  53.211  0.00  0.00     0.288 A 
ATOM      7  N   UNL d   1      47.980  36.071  53.021  0.00  0.00    -0.169 N 
ATOM      8  O   UNL d   1      49.128  35.860  53.909  0.00  0.00    -0.265 OA
ATOM      9  C   UNL d   1      47.760  35.800  52.270  0.00  0.00     0.200 A 
ATOM     10  N   UNL d   1      47.385  36.573  53.294  0.00  0.00    -0.138 NA
ATOM     11  N   UNL d   1      47.029  36.134  52.079  0.00  0.00    -0.197 NA
ATOM     12  S   UNL d   1      48.355  35.298  51.998  0.00  0.00    -0.043 SA
ATOM     13  C   UNL d   1      46.795  36.614  52.713  0.00  0.00     0.222 A 
ENDBRANCH   4   5
ENDBRANCH   1   4
BRANCH   2  14
ATOM     14  C   UNL d   1      51.074  34.029  52.410  0.00  0.00     0.085 A 
ATOM     15  C   UNL d   1      51.684  34.585  52.353  0.00  0.00     0.019 A 
ATOM     16  C   UNL d   1      52.239  34.653  52.951  0.00  0.00     0.007 A 
ATOM     17  C   UNL d   1      52.189  34.160  53.619  0.00  0.00     0.064 A 
ATOM     18  C   UNL d   1      51.577  33.603  53.674  0.00  0.00     0.007 A 
ATOM     19  C   UNL d   1      51.023  33.539  53.071  0.00  0.00     0.019 A 
BRANCH  17  20
ATOM     20  C   UNL d   1      52.741  34.221  54.223  0.00  0.00     0.300 C 
ATOM     21  O   UNL d   1      52.788  34.918  54.670  0.00  0.00    -0.259 OA
BRANCH  20  22
ATOM     22  O   UNL d   1      53.247  33.593  54.388  0.00  0.00    -0.271 OA
BRANCH  22  23
ATOM     23  C   UNL d   1      53.888  33.705  54.899  0.00  0.00     0.126 C 
ATOM     24  C   UNL d   1      54.391  33.074  55.074  0.00  0.00     0.029 C 
ENDBRANCH  22  23
ENDBRANCH  20  22
ENDBRANCH  17  20
ENDBRANCH   2  14
TORSDOF 6
ENDMDL
