MODEL 1
REMARK VINA RESULT:      -2.9      0.000      0.000
REMARK  2 active torsions:
REMARK  status: ('A' for Active; 'I' for Inactive)
REMARK    1  A    between atoms: C_6  and  C_2 
REMARK    2  A    between atoms: C_7  and  C_6 
ROOT
ATOM      1  N   UNL d   1      30.348  17.740 -24.854  0.00  0.00    -0.193 NA
ATOM      2  C   UNL d   1      29.805  16.734 -24.168  0.00  0.00     0.153 A 
ATOM      3  N   UNL d   1      30.615  16.726 -24.028  0.00  0.00    -0.306 N 
ATOM      4  C   UNL d   1      30.951  17.347 -24.452  0.00  0.00     0.147 A 
ATOM      5  C   UNL d   1      29.632  17.359 -24.678  0.00  0.00     0.276 A 
ATOM      6  C   UNL d   1      31.098  16.232 -23.569  0.00  0.00     0.077 A 
ATOM      7  C   UNL d   1      31.774  17.483 -24.422  0.00  0.00     0.037 A 
ATOM      8  O   UNL d   1      28.886  17.569 -24.962  0.00  0.00    -0.268 OA
ATOM      9  C   UNL d   1      31.908  16.363 -23.537  0.00  0.00     0.019 A 
ATOM     10  C   UNL d   1      32.247  16.991 -23.965  0.00  0.00     0.005 A 
ATOM     11  C   UNL d   1      29.886  16.090 -23.659  0.00  0.00     0.033 C 
ENDROOT
BRANCH   2  12
ATOM     12  C   UNL d   1      28.991  16.763 -24.324  0.00  0.00     0.128 C 
BRANCH  12  13
ATOM     13  C   UNL d   1      28.486  16.227 -23.953  0.00  0.00     0.188 C 
ATOM     14  O   UNL d   1      28.335  15.492 -24.289  0.00  0.00    -0.647 OA
ATOM     15  O   UNL d   1      28.129  16.433 -23.234  0.00  0.00    -0.647 OA
ENDBRANCH  12  13
ENDBRANCH   2  12
TORSDOF 2
ENDMDL
MODEL 2
REMARK VINA RESULT:      -2.8      0.745      1.595
REMARK  2 active torsions:
REMARK  status: ('A' for Active; 'I' for Inactive)
REMARK    1  A    between atoms: C_6  and  C_2 
REMARK    2  A    between atoms: C_7  and  C_6 
ROOT
ATOM      1  N   UNL d   1      31.028  16.118 -23.265  0.00  0.00    -0.193 NA
ATOM      2  C   UNL d   1      29.868  16.435 -23.840  0.00  0.00     0.153 A 
ATOM      3  N   UNL d   1      30.460  16.866 -24.214  0.00  0.00    -0.306 N 
ATOM      4  C   UNL d   1      31.177  16.670 -23.859  0.00  0.00     0.147 A 
ATOM      5  C   UNL d   1      30.212  15.970 -23.251  0.00  0.00     0.276 A 
ATOM      6  C   UNL d   1      30.444  17.415 -24.835  0.00  0.00     0.077 A 
ATOM      7  C   UNL d   1      31.888  17.021 -24.121  0.00  0.00     0.037 A 
ATOM      8  O   UNL d   1      29.820  15.453 -22.742  0.00  0.00    -0.268 OA
ATOM      9  C   UNL d   1      31.141  17.762 -25.096  0.00  0.00     0.019 A 
ATOM     10  C   UNL d   1      31.866  17.564 -24.737  0.00  0.00     0.005 A 
ATOM     11  C   UNL d   1      29.442  16.863 -24.402  0.00  0.00     0.033 C 
ENDROOT
BRANCH   2  12
ATOM     12  C   UNL d   1      29.289  15.990 -23.447  0.00  0.00     0.128 C 
BRANCH  12  13
ATOM     13  C   UNL d   1      28.499  16.063 -23.671  0.00  0.00     0.188 C 
ATOM     14  O   UNL d   1      28.020  16.642 -23.338  0.00  0.00    -0.647 OA
ATOM     15  O   UNL d   1      28.186  15.546 -24.239  0.00  0.00    -0.647 OA
ENDBRANCH  12  13
ENDBRANCH   2  12
TORSDOF 2
ENDMDL
MODEL 3
REMARK VINA RESULT:      -2.8      1.772      3.070
REMARK  2 active torsions:
REMARK  status: ('A' for Active; 'I' for Inactive)
REMARK    1  A    between atoms: C_6  and  C_2 
REMARK    2  A    between atoms: C_7  and  C_6 
ROOT
ATOM      1  N   UNL d   1      30.706  15.549 -23.118  0.00  0.00    -0.193 NA
ATOM      2  C   UNL d   1      30.840  16.628 -23.888  0.00  0.00     0.153 A 
ATOM      3  N   UNL d   1      30.039  16.446 -23.847  0.00  0.00    -0.306 N 
ATOM      4  C   UNL d   1      29.956  15.778 -23.371  0.00  0.00     0.147 A 
ATOM      5  C   UNL d   1      31.259  16.077 -23.438  0.00  0.00     0.276 A 
ATOM      6  C   UNL d   1      29.368  16.799 -24.182  0.00  0.00     0.077 A 
ATOM      7  C   UNL d   1      29.201  15.456 -23.224  0.00  0.00     0.037 A 
ATOM      8  O   UNL d   1      32.076  16.055 -23.328  0.00  0.00    -0.268 OA
ATOM      9  C   UNL d   1      28.623  16.485 -24.039  0.00  0.00     0.019 A 
ATOM     10  C   UNL d   1      28.539  15.810 -23.558  0.00  0.00     0.005 A 
ATOM     11  C   UNL d   1      30.504  17.219 -24.356  0.00  0.00     0.033 C 
ENDROOT
BRANCH   2  12
ATOM     12  C   UNL d   1      31.653  16.792 -23.913  0.00  0.00     0.128 C 
BRANCH  12  13
ATOM     13  C   UNL d   1      31.918  17.474 -24.294  0.00  0.00     0.188 C 
ATOM     14  O   UNL d   1      31.976  18.185 -23.887  0.00  0.00    -0.647 OA
ATOM     15  O   UNL d   1      32.127  17.438 -25.096  0.00  0.00    -0.647 OA
ENDBRANCH  12  13
ENDBRANCH   2  12
TORSDOF 2
ENDMDL
MODEL 4
REMARK VINA RESULT:      -2.4      5.595      6.452
REMARK  2 active torsions:
REMARK  status: ('A' for Active; 'I' for Inactive)
REMARK    1  A    between atoms: C_6  and  C_2 
REMARK    2  A    between atoms: C_7  and  C_6 
ROOT
ATOM      1  N   UNL d   1      32.714  20.679 -20.655  0.00  0.00    -0.193 NA
ATOM      2  C   UNL d   1      32.714  21.740 -21.462  0.00  0.00     0.153 A 
ATOM      3  N   UNL d   1      32.900  21.079 -21.915  0.00  0.00    -0.306 N 
ATOM      4  C   UNL d   1      32.900  20.423 -21.416  0.00  0.00     0.147 A 
ATOM      5  C   UNL d   1      32.597  21.499 -20.682  0.00  0.00     0.276 A 
ATOM      6  C   UNL d   1      33.072  20.983 -22.721  0.00  0.00     0.077 A 
ATOM      7  C   UNL d   1      33.072  19.664 -21.717  0.00  0.00     0.037 A 
ATOM      8  O   UNL d   1      32.400  21.984 -20.044  0.00  0.00    -0.268 OA
ATOM      9  C   UNL d   1      33.241  20.238 -23.020  0.00  0.00     0.019 A 
ATOM     10  C   UNL d   1      33.241  19.575 -22.516  0.00  0.00     0.005 A 
ATOM     11  C   UNL d   1      32.812  22.067 -22.214  0.00  0.00     0.033 C 
ENDROOT
BRANCH   2  12
ATOM     12  C   UNL d   1      32.524  22.391 -20.985  0.00  0.00     0.128 C 
BRANCH  12  13
ATOM     13  C   UNL d   1      32.493  23.144 -21.319  0.00  0.00     0.188 C 
ATOM     14  O   UNL d   1      33.181  23.574 -21.447  0.00  0.00    -0.647 OA
ATOM     15  O   UNL d   1      31.759  23.468 -21.527  0.00  0.00    -0.647 OA
ENDBRANCH  12  13
ENDBRANCH   2  12
TORSDOF 2
ENDMDL
MODEL 5
REMARK VINA RESULT:      -1.9      6.429      7.260
REMARK  2 active torsions:
REMARK  status: ('A' for Active; 'I' for Inactive)
REMARK    1  A    between atoms: C_6  and  C_2 
REMARK    2  A    between atoms: C_7  and  C_6 
ROOT
ATOM      1  N   UNL d   1      33.110  21.463 -22.137  0.00  0.00    -0.193 NA
ATOM      2  C   UNL d   1      32.833  22.558 -21.430  0.00  0.00     0.153 A 
ATOM      3  N   UNL d   1      32.934  22.783 -22.215  0.00  0.00    -0.306 N 
ATOM      4  C   UNL d   1      33.105  22.106 -22.652  0.00  0.00     0.147 A 
ATOM      5  C   UNL d   1      32.941  21.742 -21.375  0.00  0.00     0.276 A 
ATOM      6  C   UNL d   1      32.892  23.520 -22.595  0.00  0.00     0.077 A 
ATOM      7  C   UNL d   1      33.237  22.157 -23.474  0.00  0.00     0.037 A 
ATOM      8  O   UNL d   1      32.890  21.286 -20.689  0.00  0.00    -0.268 OA
ATOM      9  C   UNL d   1      33.022  23.573 -23.404  0.00  0.00     0.019 A 
ATOM     10  C   UNL d   1      33.195  22.889 -23.845  0.00  0.00     0.005 A 
ATOM     11  C   UNL d   1      32.710  23.373 -21.393  0.00  0.00     0.033 C 
ENDROOT
BRANCH   2  12
ATOM     12  C   UNL d   1      32.736  22.306 -20.646  0.00  0.00     0.128 C 
BRANCH  12  13
ATOM     13  C   UNL d   1      32.605  22.864 -20.053  0.00  0.00     0.188 C 
ATOM     14  O   UNL d   1      33.232  23.176 -19.625  0.00  0.00    -0.647 OA
ATOM     15  O   UNL d   1      31.830  23.112 -19.891  0.00  0.00    -0.647 OA
ENDBRANCH  12  13
ENDBRANCH   2  12
TORSDOF 2
ENDMDL
MODEL 6
REMARK VINA RESULT:      -1.6      1.879      2.650
REMARK  2 active torsions:
REMARK  status: ('A' for Active; 'I' for Inactive)
REMARK    1  A    between atoms: C_6  and  C_2 
REMARK    2  A    between atoms: C_7  and  C_6 
ROOT
ATOM      1  N   UNL d   1      32.612  17.647 -23.252  0.00  0.00    -0.193 NA
ATOM      2  C   UNL d   1      31.751  17.441 -24.248  0.00  0.00     0.153 A 
ATOM      3  N   UNL d   1      32.186  18.116 -24.427  0.00  0.00    -0.306 N 
ATOM      4  C   UNL d   1      32.718  18.243 -23.811  0.00  0.00     0.147 A 
ATOM      5  C   UNL d   1      32.010  17.146 -23.523  0.00  0.00     0.276 A 
ATOM      6  C   UNL d   1      32.169  18.637 -25.072  0.00  0.00     0.077 A 
ATOM      7  C   UNL d   1      33.241  18.893 -23.833  0.00  0.00     0.037 A 
ATOM      8  O   UNL d   1      31.723  16.475 -23.136  0.00  0.00    -0.268 OA
ATOM      9  C   UNL d   1      32.682  19.277 -25.097  0.00  0.00     0.019 A 
ATOM     10  C   UNL d   1      33.221  19.406 -24.474  0.00  0.00     0.005 A 
ATOM     11  C   UNL d   1      31.432  17.665 -24.976  0.00  0.00     0.033 C 
ENDROOT
BRANCH   2  12
ATOM     12  C   UNL d   1      31.326  16.758 -24.046  0.00  0.00     0.128 C 
BRANCH  12  13
ATOM     13  C   UNL d   1      30.841  16.400 -24.609  0.00  0.00     0.188 C 
ATOM     14  O   UNL d   1      31.128  15.794 -25.084  0.00  0.00    -0.647 OA
ATOM     15  O   UNL d   1      30.057  16.655 -24.695  0.00  0.00    -0.647 OA
ENDBRANCH  12  13
ENDBRANCH   2  12
TORSDOF 2
ENDMDL
