MODEL 1
REMARK VINA RESULT:     -10.2      0.000      0.000
REMARK  1 active torsions:
REMARK  status: ('A' for Active; 'I' for Inactive)
REMARK    1  A    between atoms: C_7  and  C_1 
ROOT
ATOM      1  C   UNL d   1      51.905  33.815  53.287  0.00  0.00     0.062 A 
ATOM      2  C   UNL d   1      52.398  34.368  53.642  0.00  0.00     0.202 A 
ATOM      3  C   UNL d   1      53.035  34.146  54.100  0.00  0.00     0.101 A 
ATOM      4  C   UNL d   1      52.062  33.002  53.400  0.00  0.00     0.103 A 
ATOM      5  C   UNL d   1      53.193  33.333  54.213  0.00  0.00     0.109 A 
ATOM      6  O   UNL d   1      52.709  32.762  53.865  0.00  0.00    -0.307 OA
ATOM      7  C   UNL d   1      53.509  34.694  54.441  0.00  0.00     0.204 A 
ATOM      8  C   UNL d   1      53.820  33.087  54.664  0.00  0.00     0.067 A 
ATOM      9  C   UNL d   1      54.149  34.473  54.901  0.00  0.00     0.084 A 
ATOM     10  O   UNL d   1      52.242  35.176  53.530  0.00  0.00    -0.286 OA
ATOM     11  C   UNL d   1      54.306  33.660  55.014  0.00  0.00     0.201 A 
ATOM     12  O   UNL d   1      53.353  35.502  54.329  0.00  0.00    -0.286 OA
ATOM     13  C   UNL d   1      51.576  32.429  53.050  0.00  0.00     0.027 C 
ATOM     14  O   UNL d   1      54.947  33.418  55.474  0.00  0.00    -0.286 OA
ENDROOT
BRANCH   1  15
ATOM     15  C   UNL d   1      51.261  34.055  52.824  0.00  0.00     0.007 A 
ATOM     16  C   UNL d   1      50.614  34.376  53.192  0.00  0.00     0.027 A 
ATOM     17  C   UNL d   1      49.975  34.614  52.729  0.00  0.00     0.123 A 
ATOM     18  O   UNL d   1      49.381  34.921  53.200  0.00  0.00    -0.303 OA
ATOM     19  C   UNL d   1      49.996  34.527  51.923  0.00  0.00     0.123 A 
ATOM     20  C   UNL d   1      48.660  35.218  52.973  0.00  0.00     0.125 A 
ATOM     21  C   UNL d   1      48.350  35.282  52.213  0.00  0.00     0.053 A 
ATOM     22  C   UNL d   1      48.700  35.058  51.493  0.00  0.00     0.125 A 
ATOM     23  O   UNL d   1      49.431  34.723  51.366  0.00  0.00    -0.303 OA
ATOM     24  C   UNL d   1      50.658  34.199  51.556  0.00  0.00     0.027 A 
ATOM     25  C   UNL d   1      51.302  33.959  52.020  0.00  0.00     0.002 A 
ENDBRANCH   1  15
TORSDOF 1
ENDMDL
MODEL 2
REMARK VINA RESULT:      -9.4      0.645      1.455
REMARK  1 active torsions:
REMARK  status: ('A' for Active; 'I' for Inactive)
REMARK    1  A    between atoms: C_7  and  C_1 
ROOT
ATOM      1  C   UNL d   1      52.306  34.156  53.412  0.00  0.00     0.062 A 
ATOM      2  C   UNL d   1      52.583  33.416  53.637  0.00  0.00     0.202 A 
ATOM      3  C   UNL d   1      53.212  33.329  54.149  0.00  0.00     0.101 A 
ATOM      4  C   UNL d   1      52.681  34.838  53.717  0.00  0.00     0.103 A 
ATOM      5  C   UNL d   1      53.587  34.011  54.454  0.00  0.00     0.109 A 
ATOM      6  O   UNL d   1      53.323  34.764  54.240  0.00  0.00    -0.307 OA
ATOM      7  C   UNL d   1      53.474  32.603  54.362  0.00  0.00     0.204 A 
ATOM      8  C   UNL d   1      54.214  33.951  54.965  0.00  0.00     0.067 A 
ATOM      9  C   UNL d   1      54.104  32.514  54.876  0.00  0.00     0.084 A 
ATOM     10  O   UNL d   1      52.211  32.738  53.334  0.00  0.00    -0.286 OA
ATOM     11  C   UNL d   1      54.479  33.196  55.181  0.00  0.00     0.201 A 
ATOM     12  O   UNL d   1      53.102  31.925  54.059  0.00  0.00    -0.286 OA
ATOM     13  C   UNL d   1      52.415  35.593  53.500  0.00  0.00     0.027 C 
ATOM     14  O   UNL d   1      55.117  33.126  55.700  0.00  0.00    -0.286 OA
ENDROOT
BRANCH   1  15
ATOM     15  C   UNL d   1      51.666  34.229  52.891  0.00  0.00     0.007 A 
ATOM     16  C   UNL d   1      50.945  34.449  53.187  0.00  0.00     0.027 A 
ATOM     17  C   UNL d   1      50.309  34.522  52.667  0.00  0.00     0.123 A 
ATOM     18  O   UNL d   1      49.635  34.747  53.070  0.00  0.00    -0.303 OA
ATOM     19  C   UNL d   1      50.408  34.374  51.875  0.00  0.00     0.123 A 
ATOM     20  C   UNL d   1      48.890  34.881  52.774  0.00  0.00     0.125 A 
ATOM     21  C   UNL d   1      48.633  34.821  51.994  0.00  0.00     0.053 A 
ATOM     22  C   UNL d   1      49.072  34.610  51.321  0.00  0.00     0.125 A 
ATOM     23  O   UNL d   1      49.861  34.412  51.270  0.00  0.00    -0.303 OA
ATOM     24  C   UNL d   1      51.145  34.150  51.581  0.00  0.00     0.027 A 
ATOM     25  C   UNL d   1      51.785  34.077  52.103  0.00  0.00     0.002 A 
ENDBRANCH   1  15
TORSDOF 1
ENDMDL
MODEL 3
REMARK VINA RESULT:      -9.2      2.174      4.213
REMARK  1 active torsions:
REMARK  status: ('A' for Active; 'I' for Inactive)
REMARK    1  A    between atoms: C_7  and  C_1 
ROOT
ATOM      1  C   UNL d   1      53.390  32.778  53.784  0.00  0.00     0.062 A 
ATOM      2  C   UNL d   1      52.741  33.279  53.838  0.00  0.00     0.202 A 
ATOM      3  C   UNL d   1      52.821  34.070  54.015  0.00  0.00     0.101 A 
ATOM      4  C   UNL d   1      54.154  33.091  53.914  0.00  0.00     0.103 A 
ATOM      5  C   UNL d   1      53.585  34.384  54.144  0.00  0.00     0.109 A 
ATOM      6  O   UNL d   1      54.250  33.897  54.094  0.00  0.00    -0.307 OA
ATOM      7  C   UNL d   1      52.182  34.549  54.065  0.00  0.00     0.204 A 
ATOM      8  C   UNL d   1      53.691  35.168  54.321  0.00  0.00     0.067 A 
ATOM      9  C   UNL d   1      52.261  35.344  54.242  0.00  0.00     0.084 A 
ATOM     10  O   UNL d   1      51.982  32.967  53.709  0.00  0.00    -0.286 OA
ATOM     11  C   UNL d   1      53.025  35.657  54.372  0.00  0.00     0.201 A 
ATOM     12  O   UNL d   1      51.422  34.238  53.936  0.00  0.00    -0.286 OA
ATOM     13  C   UNL d   1      54.821  32.601  53.863  0.00  0.00     0.027 C 
ATOM     14  O   UNL d   1      53.124  36.457  54.551  0.00  0.00    -0.286 OA
ENDROOT
BRANCH   1  15
ATOM     15  C   UNL d   1      53.294  31.975  53.604  0.00  0.00     0.007 A 
ATOM     16  C   UNL d   1      53.343  31.431  54.203  0.00  0.00     0.027 A 
ATOM     17  C   UNL d   1      53.247  30.633  54.021  0.00  0.00     0.123 A 
ATOM     18  O   UNL d   1      53.316  30.177  54.696  0.00  0.00    -0.303 OA
ATOM     19  C   UNL d   1      53.105  30.400  53.257  0.00  0.00     0.123 A 
ATOM     20  C   UNL d   1      53.259  29.370  54.768  0.00  0.00     0.125 A 
ATOM     21  C   UNL d   1      53.118  28.814  54.178  0.00  0.00     0.053 A 
ATOM     22  C   UNL d   1      52.999  28.942  53.366  0.00  0.00     0.125 A 
ATOM     23  O   UNL d   1      52.994  29.648  52.959  0.00  0.00    -0.303 OA
ATOM     24  C   UNL d   1      53.056  30.959  52.653  0.00  0.00     0.027 A 
ATOM     25  C   UNL d   1      53.153  31.762  52.834  0.00  0.00     0.002 A 
ENDBRANCH   1  15
TORSDOF 1
ENDMDL
MODEL 4
REMARK VINA RESULT:      -8.4      0.801      4.507
REMARK  1 active torsions:
REMARK  status: ('A' for Active; 'I' for Inactive)
REMARK    1  A    between atoms: C_7  and  C_1 
ROOT
ATOM      1  C   UNL d   1      51.457  34.385  52.819  0.00  0.00     0.062 A 
ATOM      2  C   UNL d   1      50.723  34.652  53.073  0.00  0.00     0.202 A 
ATOM      3  C   UNL d   1      50.075  34.669  52.578  0.00  0.00     0.101 A 
ATOM      4  C   UNL d   1      51.541  34.123  52.029  0.00  0.00     0.103 A 
ATOM      5  C   UNL d   1      50.159  34.407  51.788  0.00  0.00     0.109 A 
ATOM      6  O   UNL d   1      50.888  34.135  51.513  0.00  0.00    -0.307 OA
ATOM      7  C   UNL d   1      49.365  34.931  52.836  0.00  0.00     0.204 A 
ATOM      8  C   UNL d   1      49.530  34.414  51.277  0.00  0.00     0.067 A 
ATOM      9  C   UNL d   1      48.714  34.949  52.341  0.00  0.00     0.084 A 
ATOM     10  O   UNL d   1      50.640  34.912  53.857  0.00  0.00    -0.286 OA
ATOM     11  C   UNL d   1      48.798  34.687  51.551  0.00  0.00     0.201 A 
ATOM     12  O   UNL d   1      49.281  35.191  53.621  0.00  0.00    -0.286 OA
ATOM     13  C   UNL d   1      52.274  33.851  51.755  0.00  0.00     0.027 C 
ATOM     14  O   UNL d   1      48.152  34.697  51.037  0.00  0.00    -0.286 OA
ENDROOT
BRANCH   1  15
ATOM     15  C   UNL d   1      52.107  34.374  53.333  0.00  0.00     0.007 A 
ATOM     16  C   UNL d   1      52.353  33.663  53.636  0.00  0.00     0.027 A 
ATOM     17  C   UNL d   1      52.999  33.654  54.147  0.00  0.00     0.123 A 
ATOM     18  O   UNL d   1      53.159  32.891  54.391  0.00  0.00    -0.303 OA
ATOM     19  C   UNL d   1      53.379  34.344  54.341  0.00  0.00     0.123 A 
ATOM     20  C   UNL d   1      53.744  32.633  54.892  0.00  0.00     0.125 A 
ATOM     21  C   UNL d   1      54.319  33.078  55.277  0.00  0.00     0.053 A 
ATOM     22  C   UNL d   1      54.441  33.899  55.247  0.00  0.00     0.125 A 
ATOM     23  O   UNL d   1      54.022  34.461  54.831  0.00  0.00    -0.303 OA
ATOM     24  C   UNL d   1      53.123  35.064  54.029  0.00  0.00     0.027 A 
ATOM     25  C   UNL d   1      52.473  35.074  53.514  0.00  0.00     0.002 A 
ENDBRANCH   1  15
TORSDOF 1
ENDMDL
MODEL 5
REMARK VINA RESULT:      -8.2      1.128      4.840
REMARK  1 active torsions:
REMARK  status: ('A' for Active; 'I' for Inactive)
REMARK    1  A    between atoms: C_7  and  C_1 
ROOT
ATOM      1  C   UNL d   1      49.587  34.696  52.472  0.00  0.00     0.062 A 
ATOM      2  C   UNL d   1      49.127  35.191  52.940  0.00  0.00     0.202 A 
ATOM      3  C   UNL d   1      48.450  35.546  52.656  0.00  0.00     0.101 A 
ATOM      4  C   UNL d   1      49.352  34.553  51.682  0.00  0.00     0.103 A 
ATOM      5  C   UNL d   1      48.216  35.403  51.867  0.00  0.00     0.109 A 
ATOM      6  O   UNL d   1      48.664  34.909  51.380  0.00  0.00    -0.307 OA
ATOM      7  C   UNL d   1      48.010  36.026  53.121  0.00  0.00     0.204 A 
ATOM      8  C   UNL d   1      47.546  35.744  51.562  0.00  0.00     0.067 A 
ATOM      9  C   UNL d   1      47.330  36.383  52.838  0.00  0.00     0.084 A 
ATOM     10  O   UNL d   1      49.360  35.332  53.725  0.00  0.00    -0.286 OA
ATOM     11  C   UNL d   1      47.096  36.240  52.048  0.00  0.00     0.201 A 
ATOM     12  O   UNL d   1      48.243  36.168  53.906  0.00  0.00    -0.286 OA
ATOM     13  C   UNL d   1      49.804  34.057  51.195  0.00  0.00     0.027 C 
ATOM     14  O   UNL d   1      46.413  36.591  51.745  0.00  0.00    -0.286 OA
ENDROOT
BRANCH   1  15
ATOM     15  C   UNL d   1      50.273  34.342  52.774  0.00  0.00     0.007 A 
ATOM     16  C   UNL d   1      50.961  34.770  52.784  0.00  0.00     0.027 A 
ATOM     17  C   UNL d   1      51.642  34.415  53.084  0.00  0.00     0.123 A 
ATOM     18  O   UNL d   1      52.273  34.934  53.046  0.00  0.00    -0.303 OA
ATOM     19  C   UNL d   1      51.619  33.654  53.363  0.00  0.00     0.123 A 
ATOM     20  C   UNL d   1      53.041  34.812  53.281  0.00  0.00     0.125 A 
ATOM     21  C   UNL d   1      53.371  34.136  53.615  0.00  0.00     0.053 A 
ATOM     22  C   UNL d   1      53.000  33.414  53.794  0.00  0.00     0.125 A 
ATOM     23  O   UNL d   1      52.222  33.202  53.681  0.00  0.00    -0.303 OA
ATOM     24  C   UNL d   1      50.915  33.225  53.350  0.00  0.00     0.027 A 
ATOM     25  C   UNL d   1      50.230  33.580  53.048  0.00  0.00     0.002 A 
ENDBRANCH   1  15
TORSDOF 1
ENDMDL
MODEL 6
REMARK VINA RESULT:      -7.9      2.617      4.016
REMARK  1 active torsions:
REMARK  status: ('A' for Active; 'I' for Inactive)
REMARK    1  A    between atoms: C_7  and  C_1 
ROOT
ATOM      1  C   UNL d   1      53.567  32.268  54.202  0.00  0.00     0.062 A 
ATOM      2  C   UNL d   1      53.275  31.921  53.517  0.00  0.00     0.202 A 
ATOM      3  C   UNL d   1      53.165  31.116  53.455  0.00  0.00     0.101 A 
ATOM      4  C   UNL d   1      53.755  31.779  54.854  0.00  0.00     0.103 A 
ATOM      5  C   UNL d   1      53.353  30.627  54.106  0.00  0.00     0.109 A 
ATOM      6  O   UNL d   1      53.647  30.956  54.804  0.00  0.00    -0.307 OA
ATOM      7  C   UNL d   1      52.880  30.788  52.782  0.00  0.00     0.204 A 
ATOM      8  C   UNL d   1      53.252  29.823  54.069  0.00  0.00     0.067 A 
ATOM      9  C   UNL d   1      52.768  29.980  52.718  0.00  0.00     0.084 A 
ATOM     10  O   UNL d   1      53.088  32.407  52.869  0.00  0.00    -0.286 OA
ATOM     11  C   UNL d   1      52.956  29.492  53.370  0.00  0.00     0.201 A 
ATOM     12  O   UNL d   1      52.693  31.274  52.134  0.00  0.00    -0.286 OA
ATOM     13  C   UNL d   1      54.051  32.112  55.554  0.00  0.00     0.027 C 
ATOM     14  O   UNL d   1      52.850  28.674  53.324  0.00  0.00    -0.286 OA
ENDROOT
BRANCH   1  15
ATOM     15  C   UNL d   1      53.674  33.088  54.251  0.00  0.00     0.007 A 
ATOM     16  C   UNL d   1      53.030  33.559  54.395  0.00  0.00     0.027 A 
ATOM     17  C   UNL d   1      53.140  34.374  54.443  0.00  0.00     0.123 A 
ATOM     18  O   UNL d   1      52.428  34.748  54.590  0.00  0.00    -0.303 OA
ATOM     19  C   UNL d   1      53.878  34.695  54.347  0.00  0.00     0.123 A 
ATOM     20  C   UNL d   1      52.285  35.543  54.678  0.00  0.00     0.125 A 
ATOM     21  C   UNL d   1      52.822  36.166  54.640  0.00  0.00     0.053 A 
ATOM     22  C   UNL d   1      53.641  36.133  54.503  0.00  0.00     0.125 A 
ATOM     23  O   UNL d   1      54.108  35.479  54.373  0.00  0.00    -0.303 OA
ATOM     24  C   UNL d   1      54.529  34.211  54.201  0.00  0.00     0.027 A 
ATOM     25  C   UNL d   1      54.421  33.390  54.152  0.00  0.00     0.002 A 
ENDBRANCH   1  15
TORSDOF 1
ENDMDL
