MODEL 1
REMARK VINA RESULT:      -3.7      0.000      0.000
REMARK  6 active torsions:
REMARK  status: ('A' for Active; 'I' for Inactive)
REMARK    1  A    between atoms: N_6  and  C_1 
REMARK    2  A    between atoms: C_4  and  C_2 
REMARK    3  A    between atoms: C_7  and  C_4 
REMARK    4  A    between atoms: C_8  and  C_4 
REMARK    5  A    between atoms: O_12  and  C_7 
REMARK    6  A    between atoms: C_16  and  O_12 
ROOT
ATOM      1  C   UNL d   1     -39.579  14.978  19.958  0.00  0.00     0.166 A 
ATOM      2  C   UNL d   1     -40.387  14.966  19.791  0.00  0.00     0.122 A 
ATOM      3  N   UNL d   1     -39.032  15.185  19.369  0.00  0.00    -0.225 NA
ATOM      4  N   UNL d   1     -40.648  15.162  19.031  0.00  0.00    -0.241 NA
ATOM      5  C   UNL d   1     -39.302  15.380  18.612  0.00  0.00     0.101 A 
ATOM      6  C   UNL d   1     -40.106  15.368  18.445  0.00  0.00     0.099 A 
ATOM      7  C   UNL d   1     -38.762  15.583  18.034  0.00  0.00     0.021 A 
ATOM      8  C   UNL d   1     -40.371  15.563  17.689  0.00  0.00     0.021 A 
ATOM      9  C   UNL d   1     -39.831  15.767  17.106  0.00  0.00     0.002 A 
ATOM     10  C   UNL d   1     -39.023  15.779  17.274  0.00  0.00     0.002 A 
ENDROOT
BRANCH   2  11
ATOM     11  C   UNL d   1     -40.933  14.760  20.380  0.00  0.00     0.105 C 
BRANCH  11  12
ATOM     12  C   UNL d   1     -41.342  14.045  20.331  0.00  0.00     0.303 C 
ATOM     13  O   UNL d   1     -41.220  13.546  19.688  0.00  0.00    -0.259 OA
BRANCH  12  14
ATOM     14  O   UNL d   1     -41.869  13.831  20.923  0.00  0.00    -0.273 OA
BRANCH  14  15
ATOM     15  C   UNL d   1     -42.442  13.318  21.210  0.00  0.00     0.103 A 
ATOM     16  C   UNL d   1     -43.233  13.433  21.006  0.00  0.00     0.025 A 
ATOM     17  C   UNL d   1     -43.808  12.924  21.291  0.00  0.00     0.002 A 
ATOM     18  C   UNL d   1     -43.596  12.302  21.776  0.00  0.00     0.000 A 
ATOM     19  C   UNL d   1     -42.814  12.184  21.981  0.00  0.00     0.002 A 
ATOM     20  C   UNL d   1     -42.229  12.697  21.696  0.00  0.00     0.025 A 
ENDBRANCH  14  15
ENDBRANCH  12  14
ENDBRANCH  11  12
BRANCH  11  21
ATOM     21  C   UNL d   1     -41.074  15.269  21.021  0.00  0.00     0.129 C 
ATOM     22  N   UNL d   1     -41.766  15.922  21.022  0.00  0.00    -0.146 N 
ENDBRANCH  11  21
ENDBRANCH   2  11
BRANCH   1  23
ATOM     23  N   UNL d   1     -39.310  14.784  20.716  0.00  0.00    -0.288 N 
ATOM     24  C   UNL d   1     -38.974  14.035  20.850  0.00  0.00     0.082 A 
ATOM     25  C   UNL d   1     -38.706  13.845  21.614  0.00  0.00     0.018 A 
ATOM     26  C   UNL d   1     -38.371  13.102  21.755  0.00  0.00     0.002 C 
ATOM     27  C   UNL d   1     -38.772  14.395  22.233  0.00  0.00     0.003 A 
ATOM     28  C   UNL d   1     -39.107  15.133  22.086  0.00  0.00     0.019 A 
ATOM     29  C   UNL d   1     -39.376  15.333  21.334  0.00  0.00     0.082 A 
ENDBRANCH   1  23
TORSDOF 6
ENDMDL
MODEL 2
REMARK VINA RESULT:      -1.6      2.190      3.493
REMARK  6 active torsions:
REMARK  status: ('A' for Active; 'I' for Inactive)
REMARK    1  A    between atoms: N_6  and  C_1 
REMARK    2  A    between atoms: C_4  and  C_2 
REMARK    3  A    between atoms: C_7  and  C_4 
REMARK    4  A    between atoms: C_8  and  C_4 
REMARK    5  A    between atoms: O_12  and  C_7 
REMARK    6  A    between atoms: C_16  and  O_12 
ROOT
ATOM      1  C   UNL d   1     -39.859  14.275  17.326  0.00  0.00     0.166 A 
ATOM      2  C   UNL d   1     -39.984  14.756  17.984  0.00  0.00     0.122 A 
ATOM      3  N   UNL d   1     -40.366  14.320  16.671  0.00  0.00    -0.225 NA
ATOM      4  N   UNL d   1     -40.619  15.286  17.986  0.00  0.00    -0.241 NA
ATOM      5  C   UNL d   1     -41.000  14.853  16.682  0.00  0.00     0.101 A 
ATOM      6  C   UNL d   1     -41.124  15.332  17.337  0.00  0.00     0.099 A 
ATOM      7  C   UNL d   1     -41.498  14.895  16.036  0.00  0.00     0.021 A 
ATOM      8  C   UNL d   1     -41.756  15.861  17.343  0.00  0.00     0.021 A 
ATOM      9  C   UNL d   1     -42.258  15.907  16.696  0.00  0.00     0.002 A 
ATOM     10  C   UNL d   1     -42.134  15.425  16.038  0.00  0.00     0.002 A 
ENDROOT
BRANCH   2  11
ATOM     11  C   UNL d   1     -39.476  14.711  18.639  0.00  0.00     0.105 C 
BRANCH  11  12
ATOM     12  C   UNL d   1     -39.764  14.454  19.368  0.00  0.00     0.303 C 
ATOM     13  O   UNL d   1     -40.498  14.082  19.410  0.00  0.00    -0.259 OA
BRANCH  12  14
ATOM     14  O   UNL d   1     -39.321  14.568  20.049  0.00  0.00    -0.273 OA
BRANCH  14  15
ATOM     15  C   UNL d   1     -39.258  14.537  20.867  0.00  0.00     0.103 A 
ATOM     16  C   UNL d   1     -39.763  14.995  21.332  0.00  0.00     0.025 A 
ATOM     17  C   UNL d   1     -39.704  14.968  22.149  0.00  0.00     0.002 A 
ATOM     18  C   UNL d   1     -39.145  14.488  22.501  0.00  0.00     0.000 A 
ATOM     19  C   UNL d   1     -38.643  14.033  22.044  0.00  0.00     0.002 A 
ATOM     20  C   UNL d   1     -38.699  14.057  21.217  0.00  0.00     0.025 A 
ENDBRANCH  14  15
ENDBRANCH  12  14
ENDBRANCH  11  12
BRANCH  11  21
ATOM     21  C   UNL d   1     -38.676  14.923  18.566  0.00  0.00     0.129 C 
ATOM     22  N   UNL d   1     -38.358  15.805  18.729  0.00  0.00    -0.146 N 
ENDBRANCH  11  21
ENDBRANCH   2  11
BRANCH   1  23
ATOM     23  N   UNL d   1     -39.226  13.743  17.316  0.00  0.00    -0.288 N 
ATOM     24  C   UNL d   1     -39.256  13.064  17.795  0.00  0.00     0.082 A 
ATOM     25  C   UNL d   1     -38.615  12.532  17.781  0.00  0.00     0.018 A 
ATOM     26  C   UNL d   1     -38.638  11.855  18.255  0.00  0.00     0.002 C 
ATOM     27  C   UNL d   1     -37.957  12.678  17.296  0.00  0.00     0.003 A 
ATOM     28  C   UNL d   1     -37.941  13.355  16.826  0.00  0.00     0.019 A 
ATOM     29  C   UNL d   1     -38.568  13.889  16.831  0.00  0.00     0.082 A 
ENDBRANCH   1  23
TORSDOF 6
ENDMDL
MODEL 3
REMARK VINA RESULT:      -0.8      5.581      8.987
REMARK  6 active torsions:
REMARK  status: ('A' for Active; 'I' for Inactive)
REMARK    1  A    between atoms: N_6  and  C_1 
REMARK    2  A    between atoms: C_4  and  C_2 
REMARK    3  A    between atoms: C_7  and  C_4 
REMARK    4  A    between atoms: C_8  and  C_4 
REMARK    5  A    between atoms: O_12  and  C_7 
REMARK    6  A    between atoms: C_16  and  O_12 
ROOT
ATOM      1  C   UNL d   1     -49.058  13.298  22.551  0.00  0.00     0.166 A 
ATOM      2  C   UNL d   1     -48.530  12.664  22.532  0.00  0.00     0.122 A 
ATOM      3  N   UNL d   1     -49.826  13.195  22.846  0.00  0.00    -0.225 NA
ATOM      4  N   UNL d   1     -48.773  11.924  22.811  0.00  0.00    -0.241 NA
ATOM      5  C   UNL d   1     -50.061  12.451  23.123  0.00  0.00     0.101 A 
ATOM      6  C   UNL d   1     -49.536  11.821  23.104  0.00  0.00     0.099 A 
ATOM      7  C   UNL d   1     -50.819  12.352  23.413  0.00  0.00     0.021 A 
ATOM      8  C   UNL d   1     -49.774  11.081  23.381  0.00  0.00     0.021 A 
ATOM      9  C   UNL d   1     -50.533  10.979  23.673  0.00  0.00     0.002 A 
ATOM     10  C   UNL d   1     -51.061  11.612  23.692  0.00  0.00     0.002 A 
ENDROOT
BRANCH   2  11
ATOM     11  C   UNL d   1     -47.762  12.767  22.237  0.00  0.00     0.105 C 
BRANCH  11  12
ATOM     12  C   UNL d   1     -47.112  12.693  22.740  0.00  0.00     0.303 C 
ATOM     13  O   UNL d   1     -47.222  12.440  23.516  0.00  0.00    -0.259 OA
BRANCH  12  14
ATOM     14  O   UNL d   1     -46.359  12.872  22.468  0.00  0.00    -0.273 OA
BRANCH  14  15
ATOM     15  C   UNL d   1     -45.563  12.677  22.406  0.00  0.00     0.103 A 
ATOM     16  C   UNL d   1     -45.076  13.113  21.902  0.00  0.00     0.025 A 
ATOM     17  C   UNL d   1     -44.282  12.923  21.836  0.00  0.00     0.002 A 
ATOM     18  C   UNL d   1     -43.974  12.303  22.270  0.00  0.00     0.000 A 
ATOM     19  C   UNL d   1     -44.454  11.869  22.769  0.00  0.00     0.002 A 
ATOM     20  C   UNL d   1     -45.258  12.057  22.840  0.00  0.00     0.025 A 
ENDBRANCH  14  15
ENDBRANCH  12  14
ENDBRANCH  11  12
BRANCH  11  21
ATOM     21  C   UNL d   1     -47.640  12.945  21.434  0.00  0.00     0.129 C 
ATOM     22  N   UNL d   1     -47.746  12.303  20.740  0.00  0.00    -0.146 N 
ENDBRANCH  11  21
ENDBRANCH   2  11
BRANCH   1  23
ATOM     23  N   UNL d   1     -48.823  14.041  22.274  0.00  0.00    -0.288 N 
ATOM     24  C   UNL d   1     -48.540  14.607  22.814  0.00  0.00     0.082 A 
ATOM     25  C   UNL d   1     -48.305  15.353  22.528  0.00  0.00     0.018 A 
ATOM     26  C   UNL d   1     -48.023  15.921  23.059  0.00  0.00     0.002 C 
ATOM     27  C   UNL d   1     -48.352  15.528  21.718  0.00  0.00     0.003 A 
ATOM     28  C   UNL d   1     -48.633  14.958  21.195  0.00  0.00     0.019 A 
ATOM     29  C   UNL d   1     -48.869  14.216  21.464  0.00  0.00     0.082 A 
ENDBRANCH   1  23
TORSDOF 6
ENDMDL
