MODEL 1
REMARK VINA RESULT:      -2.8      0.000      0.000
REMARK  3 active torsions:
REMARK  status: ('A' for Active; 'I' for Inactive)
REMARK    1  A    between atoms: C_8  and  N_2 
REMARK    2  A    between atoms: C_6  and  C_3 
REMARK    3  A    between atoms: C_7  and  C_4 
ROOT
ATOM      1  N   UNL d   1      57.997  -1.228  30.354  0.00  0.00    -0.159 NA
ATOM      2  N   UNL d   1      58.554  -1.142  29.741  0.00  0.00    -0.234 N 
ATOM      3  C   UNL d   1      57.751  -0.490  30.573  0.00  0.00     0.167 A 
ATOM      4  C   UNL d   1      58.641  -0.347  29.593  0.00  0.00     0.062 A 
ATOM      5  C   UNL d   1      58.145   0.066  30.106  0.00  0.00     0.042 A 
ENDROOT
BRANCH   2   6
ATOM      6  C   UNL d   1      58.926  -1.782  29.378  0.00  0.00     0.083 A 
ATOM      7  C   UNL d   1      59.695  -1.981  29.575  0.00  0.00     0.019 A 
ATOM      8  C   UNL d   1      60.058  -2.617  29.211  0.00  0.00     0.002 A 
ATOM      9  C   UNL d   1      59.659  -3.055  28.652  0.00  0.00     0.000 A 
ATOM     10  C   UNL d   1      58.890  -2.856  28.456  0.00  0.00     0.002 A 
ATOM     11  C   UNL d   1      58.518  -2.215  28.819  0.00  0.00     0.019 A 
ENDBRANCH   2   6
BRANCH   4  12
ATOM     12  C   UNL d   1      59.142   0.001  29.024  0.00  0.00     0.036 C 
ATOM     13  C   UNL d   1      59.641   0.349  28.456  0.00  0.00     0.006 C 
ATOM     14  C   UNL d   1      58.535  -0.059  28.455  0.00  0.00     0.006 C 
ATOM     15  C   UNL d   1      59.744   0.060  29.597  0.00  0.00     0.006 C 
ENDBRANCH   4  12
BRANCH   3  16
ATOM     16  C   UNL d   1      57.197  -0.319  31.165  0.00  0.00     0.231 C 
ATOM     17  O   UNL d   1      57.094   0.458  31.423  0.00  0.00    -0.643 OA
ATOM     18  O   UNL d   1      56.753  -0.929  31.491  0.00  0.00    -0.643 OA
ENDBRANCH   3  16
TORSDOF 3
ENDMDL
MODEL 2
REMARK VINA RESULT:      -2.7      3.210      5.358
REMARK  3 active torsions:
REMARK  status: ('A' for Active; 'I' for Inactive)
REMARK    1  A    between atoms: C_8  and  N_2 
REMARK    2  A    between atoms: C_6  and  C_3 
REMARK    3  A    between atoms: C_7  and  C_4 
ROOT
ATOM      1  N   UNL d   1      56.516   0.581  32.442  0.00  0.00    -0.159 NA
ATOM      2  N   UNL d   1      56.098   0.032  32.908  0.00  0.00    -0.234 N 
ATOM      3  C   UNL d   1      56.902   0.173  31.860  0.00  0.00     0.167 A 
ATOM      4  C   UNL d   1      56.235  -0.709  32.603  0.00  0.00     0.062 A 
ATOM      5  C   UNL d   1      56.734  -0.631  31.951  0.00  0.00     0.042 A 
ENDROOT
BRANCH   2   6
ATOM      6  C   UNL d   1      55.639   0.249  33.556  0.00  0.00     0.083 A 
ATOM      7  C   UNL d   1      54.842   0.410  33.466  0.00  0.00     0.019 A 
ATOM      8  C   UNL d   1      54.392   0.625  34.113  0.00  0.00     0.002 A 
ATOM      9  C   UNL d   1      54.732   0.682  34.852  0.00  0.00     0.000 A 
ATOM     10  C   UNL d   1      55.529   0.521  34.942  0.00  0.00     0.002 A 
ATOM     11  C   UNL d   1      55.988   0.303  34.293  0.00  0.00     0.019 A 
ENDBRANCH   2   6
BRANCH   4  12
ATOM     12  C   UNL d   1      55.930  -1.430  32.890  0.00  0.00     0.036 C 
ATOM     13  C   UNL d   1      55.626  -2.151  33.178  0.00  0.00     0.006 C 
ATOM     14  C   UNL d   1      56.617  -1.536  33.352  0.00  0.00     0.006 C 
ATOM     15  C   UNL d   1      55.246  -1.321  32.427  0.00  0.00     0.006 C 
ENDBRANCH   4  12
BRANCH   3  16
ATOM     16  C   UNL d   1      57.383   0.504  31.273  0.00  0.00     0.231 C 
ATOM     17  O   UNL d   1      57.076   0.653  30.522  0.00  0.00    -0.643 OA
ATOM     18  O   UNL d   1      58.167   0.681  31.446  0.00  0.00    -0.643 OA
ENDBRANCH   3  16
TORSDOF 3
ENDMDL
MODEL 3
REMARK VINA RESULT:      -2.3      1.803      3.075
REMARK  3 active torsions:
REMARK  status: ('A' for Active; 'I' for Inactive)
REMARK    1  A    between atoms: C_8  and  N_2 
REMARK    2  A    between atoms: C_6  and  C_3 
REMARK    3  A    between atoms: C_7  and  C_4 
ROOT
ATOM      1  N   UNL d   1      58.792  -2.059  29.088  0.00  0.00    -0.159 NA
ATOM      2  N   UNL d   1      59.144  -1.319  29.238  0.00  0.00    -0.234 N 
ATOM      3  C   UNL d   1      59.379  -2.581  28.903  0.00  0.00     0.167 A 
ATOM      4  C   UNL d   1      59.947  -1.401  29.141  0.00  0.00     0.062 A 
ATOM      5  C   UNL d   1      60.102  -2.183  28.932  0.00  0.00     0.042 A 
ENDROOT
BRANCH   2   6
ATOM      6  C   UNL d   1      58.711  -0.649  29.446  0.00  0.00     0.083 A 
ATOM      7  C   UNL d   1      58.482  -0.109  28.875  0.00  0.00     0.019 A 
ATOM      8  C   UNL d   1      58.054   0.554  29.088  0.00  0.00     0.002 A 
ATOM      9  C   UNL d   1      57.852   0.682  29.867  0.00  0.00     0.000 A 
ATOM     10  C   UNL d   1      58.080   0.142  30.437  0.00  0.00     0.002 A 
ATOM     11  C   UNL d   1      58.513  -0.529  30.229  0.00  0.00     0.019 A 
ENDBRANCH   2   6
BRANCH   4  12
ATOM     12  C   UNL d   1      60.523  -0.805  29.234  0.00  0.00     0.036 C 
ATOM     13  C   UNL d   1      61.098  -0.209  29.326  0.00  0.00     0.006 C 
ATOM     14  C   UNL d   1      60.377  -0.544  28.455  0.00  0.00     0.006 C 
ATOM     15  C   UNL d   1      60.665  -1.069  30.011  0.00  0.00     0.006 C 
ENDBRANCH   4  12
BRANCH   3  16
ATOM     16  C   UNL d   1      59.275  -3.382  28.714  0.00  0.00     0.231 C 
ATOM     17  O   UNL d   1      58.516  -3.706  28.695  0.00  0.00    -0.643 OA
ATOM     18  O   UNL d   1      59.931  -3.846  28.548  0.00  0.00    -0.643 OA
ENDBRANCH   3  16
TORSDOF 3
ENDMDL
MODEL 4
REMARK VINA RESULT:      -2.0      1.737      2.815
REMARK  3 active torsions:
REMARK  status: ('A' for Active; 'I' for Inactive)
REMARK    1  A    between atoms: C_8  and  N_2 
REMARK    2  A    between atoms: C_6  and  C_3 
REMARK    3  A    between atoms: C_7  and  C_4 
ROOT
ATOM      1  N   UNL d   1      59.641  -1.916  29.028  0.00  0.00    -0.159 NA
ATOM      2  N   UNL d   1      59.456  -1.122  29.198  0.00  0.00    -0.234 N 
ATOM      3  C   UNL d   1      58.959  -2.347  29.078  0.00  0.00     0.167 A 
ATOM      4  C   UNL d   1      58.658  -1.079  29.350  0.00  0.00     0.062 A 
ATOM      5  C   UNL d   1      58.341  -1.836  29.278  0.00  0.00     0.042 A 
ENDROOT
BRANCH   2   6
ATOM      6  C   UNL d   1      60.018  -0.519  29.199  0.00  0.00     0.083 A 
ATOM      7  C   UNL d   1      60.493  -0.395  29.854  0.00  0.00     0.019 A 
ATOM      8  C   UNL d   1      61.048   0.205  29.849  0.00  0.00     0.002 A 
ATOM      9  C   UNL d   1      61.133   0.682  29.194  0.00  0.00     0.000 A 
ATOM     10  C   UNL d   1      60.659   0.558  28.539  0.00  0.00     0.002 A 
ATOM     11  C   UNL d   1      60.097  -0.046  28.538  0.00  0.00     0.019 A 
ENDBRANCH   2   6
BRANCH   4  12
ATOM     12  C   UNL d   1      58.225  -0.394  29.547  0.00  0.00     0.036 C 
ATOM     13  C   UNL d   1      57.792   0.291  29.742  0.00  0.00     0.006 C 
ATOM     14  C   UNL d   1      58.153  -0.208  28.737  0.00  0.00     0.006 C 
ATOM     15  C   UNL d   1      58.299  -0.584  30.355  0.00  0.00     0.006 C 
ENDBRANCH   4  12
BRANCH   3  16
ATOM     16  C   UNL d   1      58.891  -3.163  28.950  0.00  0.00     0.231 C 
ATOM     17  O   UNL d   1      58.184  -3.479  28.665  0.00  0.00    -0.643 OA
ATOM     18  O   UNL d   1      59.532  -3.651  29.108  0.00  0.00    -0.643 OA
ENDBRANCH   3  16
TORSDOF 3
ENDMDL
MODEL 5
REMARK VINA RESULT:      -0.1      1.975      3.263
REMARK  3 active torsions:
REMARK  status: ('A' for Active; 'I' for Inactive)
REMARK    1  A    between atoms: C_8  and  N_2 
REMARK    2  A    between atoms: C_6  and  C_3 
REMARK    3  A    between atoms: C_7  and  C_4 
ROOT
ATOM      1  N   UNL d   1      59.102   0.324  31.367  0.00  0.00    -0.159 NA
ATOM      2  N   UNL d   1      58.423   0.143  30.920  0.00  0.00    -0.234 N 
ATOM      3  C   UNL d   1      59.734   0.343  30.864  0.00  0.00     0.167 A 
ATOM      4  C   UNL d   1      58.652   0.053  30.145  0.00  0.00     0.062 A 
ATOM      5  C   UNL d   1      59.466   0.176  30.101  0.00  0.00     0.042 A 
ENDROOT
BRANCH   2   6
ATOM      6  C   UNL d   1      57.671   0.076  31.251  0.00  0.00     0.083 A 
ATOM      7  C   UNL d   1      57.114   0.664  31.137  0.00  0.00     0.019 A 
ATOM      8  C   UNL d   1      56.370   0.592  31.468  0.00  0.00     0.002 A 
ATOM      9  C   UNL d   1      56.178  -0.064  31.912  0.00  0.00     0.000 A 
ATOM     10  C   UNL d   1      56.735  -0.653  32.025  0.00  0.00     0.002 A 
ATOM     11  C   UNL d   1      57.487  -0.585  31.694  0.00  0.00     0.019 A 
ENDBRANCH   2   6
BRANCH   4  12
ATOM     12  C   UNL d   1      58.159  -0.132  29.499  0.00  0.00     0.036 C 
ATOM     13  C   UNL d   1      57.666  -0.315  28.852  0.00  0.00     0.006 C 
ATOM     14  C   UNL d   1      58.071   0.681  29.335  0.00  0.00     0.006 C 
ATOM     15  C   UNL d   1      58.250  -0.943  29.666  0.00  0.00     0.006 C 
ENDBRANCH   4  12
BRANCH   3  16
ATOM     16  C   UNL d   1      60.519   0.504  31.077  0.00  0.00     0.231 C 
ATOM     17  O   UNL d   1      60.707   0.675  31.862  0.00  0.00    -0.643 OA
ATOM     18  O   UNL d   1      61.104   0.491  30.501  0.00  0.00    -0.643 OA
ENDBRANCH   3  16
TORSDOF 3
ENDMDL
