MODEL 1
REMARK VINA RESULT:      67.4      0.000      0.000
REMARK  4 active torsions:
REMARK  status: ('A' for Active; 'I' for Inactive)
REMARK    1  A    between atoms: N_7  and  S_1 
REMARK    2  A    between atoms: C_11  and  S_1 
REMARK    3  A    between atoms: C_14  and  N_7 
REMARK    4  A    between atoms: C_13  and  C_14 
ROOT
ATOM      1  N   UNL d   1      56.796  49.475  55.001  0.00  0.00    -0.304 N 
ATOM      2  C   UNL d   1      57.563  49.606  55.288  0.00  0.00     0.064 A 
ATOM      3  C   UNL d   1      56.827  49.497  54.174  0.00  0.00     0.064 A 
ATOM      4  C   UNL d   1      57.608  49.640  53.952  0.00  0.00     0.018 A 
ATOM      5  C   UNL d   1      58.058  49.707  54.637  0.00  0.00     0.019 A 
ATOM      6  C   UNL d   1      56.242  49.404  53.600  0.00  0.00     0.018 A 
ATOM      7  C   UNL d   1      57.808  49.691  53.149  0.00  0.00     0.003 A 
ATOM      8  C   UNL d   1      57.224  49.598  52.577  0.00  0.00     0.020 A 
ATOM      9  C   UNL d   1      56.439  49.454  52.803  0.00  0.00     0.003 A 
ATOM     10  C   UNL d   1      56.126  49.348  55.454  0.00  0.00     0.099 C 
ATOM     11  C   UNL d   1      57.780  49.630  56.083  0.00  0.00     0.019 C 
ENDROOT
BRANCH   8  12
ATOM     12  C   UNL d   1      57.428  49.649  51.776  0.00  0.00     0.112 C 
BRANCH  12  13
ATOM     13  N   UNL d   1      58.229  49.683  51.559  0.00  0.00    -0.157 NA
BRANCH  13  14
ATOM     14  S   UNL d   1      58.514  49.199  50.956  0.00  0.00     0.285 S 
ATOM     15  O   UNL d   1      58.586  48.695  50.308  0.00  0.00    -0.198 OA
ATOM     16  O   UNL d   1      57.689  49.189  50.866  0.00  0.00    -0.198 OA
BRANCH  14  17
ATOM     17  C   UNL d   1      59.326  49.076  50.872  0.00  0.00     0.105 A 
ATOM     18  C   UNL d   1      59.643  48.352  51.075  0.00  0.00     0.013 A 
ATOM     19  C   UNL d   1      60.457  48.226  50.991  0.00  0.00     0.001 A 
ATOM     20  C   UNL d   1      60.941  48.834  50.702  0.00  0.00     0.000 A 
ATOM     21  C   UNL d   1      60.609  49.560  50.500  0.00  0.00     0.001 A 
ATOM     22  C   UNL d   1      59.803  49.683  50.584  0.00  0.00     0.013 A 
ENDBRANCH  14  17
ENDBRANCH  13  14
ENDBRANCH  12  13
ENDBRANCH   8  12
TORSDOF 4
ENDMDL
MODEL 2
REMARK VINA RESULT:      69.8      3.069      5.735
REMARK  4 active torsions:
REMARK  status: ('A' for Active; 'I' for Inactive)
REMARK    1  A    between atoms: N_7  and  S_1 
REMARK    2  A    between atoms: C_11  and  S_1 
REMARK    3  A    between atoms: C_14  and  N_7 
REMARK    4  A    between atoms: C_13  and  C_14 
ROOT
ATOM      1  N   UNL d   1      61.990  45.285  49.263  0.00  0.00    -0.304 N 
ATOM      2  C   UNL d   1      61.296  44.839  49.345  0.00  0.00     0.064 A 
ATOM      3  C   UNL d   1      61.893  45.986  49.693  0.00  0.00     0.064 A 
ATOM      4  C   UNL d   1      61.143  45.972  50.038  0.00  0.00     0.018 A 
ATOM      5  C   UNL d   1      60.779  45.267  49.823  0.00  0.00     0.019 A 
ATOM      6  C   UNL d   1      62.393  46.631  49.812  0.00  0.00     0.018 A 
ATOM      7  C   UNL d   1      60.891  46.608  50.505  0.00  0.00     0.003 A 
ATOM      8  C   UNL d   1      61.390  47.252  50.623  0.00  0.00     0.020 A 
ATOM      9  C   UNL d   1      62.143  47.263  50.276  0.00  0.00     0.003 A 
ATOM     10  C   UNL d   1      62.654  45.072  48.834  0.00  0.00     0.099 C 
ATOM     11  C   UNL d   1      61.158  44.100  49.005  0.00  0.00     0.019 C 
ENDROOT
BRANCH   8  12
ATOM     12  C   UNL d   1      61.133  47.885  51.091  0.00  0.00     0.112 C 
BRANCH  12  13
ATOM     13  N   UNL d   1      61.010  48.628  50.743  0.00  0.00    -0.157 NA
BRANCH  13  14
ATOM     14  S   UNL d   1      60.474  49.157  51.078  0.00  0.00     0.285 S 
ATOM     15  O   UNL d   1      60.095  49.704  51.564  0.00  0.00    -0.198 OA
ATOM     16  O   UNL d   1      61.124  49.157  51.594  0.00  0.00    -0.198 OA
BRANCH  14  17
ATOM     17  C   UNL d   1      59.749  49.301  50.711  0.00  0.00     0.105 A 
ATOM     18  C   UNL d   1      59.735  49.506  49.920  0.00  0.00     0.013 A 
ATOM     19  C   UNL d   1      59.009  49.651  49.550  0.00  0.00     0.001 A 
ATOM     20  C   UNL d   1      58.305  49.589  49.983  0.00  0.00     0.000 A 
ATOM     21  C   UNL d   1      58.332  49.382  50.780  0.00  0.00     0.001 A 
ATOM     22  C   UNL d   1      59.051  49.238  51.145  0.00  0.00     0.013 A 
ENDBRANCH  14  17
ENDBRANCH  13  14
ENDBRANCH  12  13
ENDBRANCH   8  12
TORSDOF 4
ENDMDL
