MODEL 1
REMARK VINA RESULT:      -6.8      0.000      0.000
REMARK  2 active torsions:
REMARK  status: ('A' for Active; 'I' for Inactive)
REMARK    1  A    between atoms: N_11  and  C_4 
REMARK    2  A    between atoms: C_16  and  N_12 
ROOT
ATOM      1  N   UNL d   1     -48.666  13.177  23.152  0.00  0.00    -0.195 N 
ATOM      2  C   UNL d   1     -49.453  13.177  23.333  0.00  0.00     0.168 A 
ATOM      3  C   UNL d   1     -49.861  13.859  23.367  0.00  0.00     0.073 A 
ATOM      4  C   UNL d   1     -48.274  12.486  23.123  0.00  0.00     0.153 A 
ATOM      5  N   UNL d   1     -48.692  14.541  23.038  0.00  0.00    -0.143 NA
ATOM      6  C   UNL d   1     -49.478  14.541  23.218  0.00  0.00     0.185 A 
ATOM      7  N   UNL d   1     -49.827  12.487  23.480  0.00  0.00    -0.227 NA
ATOM      8  C   UNL d   1     -50.639  13.859  23.545  0.00  0.00     0.007 A 
ATOM      9  N   UNL d   1     -49.878  15.240  23.249  0.00  0.00    -0.225 NA
ATOM     10  C   UNL d   1     -48.640  11.800  23.268  0.00  0.00     0.057 A 
ATOM     11  C   UNL d   1     -51.047  14.542  23.579  0.00  0.00     0.019 A 
ATOM     12  C   UNL d   1     -49.427  11.800  23.448  0.00  0.00     0.086 A 
ATOM     13  C   UNL d   1     -50.665  15.240  23.429  0.00  0.00     0.083 A 
ATOM     14  C   UNL d   1     -51.013  13.165  23.692  0.00  0.00     0.000 C 
ATOM     15  C   UNL d   1     -49.813  11.081  23.600  0.00  0.00     0.021 C 
ATOM     16  C   UNL d   1     -51.064  15.922  23.461  0.00  0.00     0.021 C 
ENDROOT
BRANCH   4  17
ATOM     17  N   UNL d   1     -47.463  12.494  22.937  0.00  0.00    -0.286 N 
ATOM     18  C   UNL d   1     -47.251  12.564  22.135  0.00  0.00     0.101 A 
ATOM     19  C   UNL d   1     -46.452  12.575  21.912  0.00  0.00     0.100 A 
ATOM     20  N   UNL d   1     -45.869  12.515  22.495  0.00  0.00    -0.301 N 
ATOM     21  C   UNL d   1     -46.072  12.444  23.298  0.00  0.00     0.100 A 
ATOM     22  C   UNL d   1     -46.876  12.434  23.518  0.00  0.00     0.101 A 
BRANCH  20  23
ATOM     23  C   UNL d   1     -45.074  12.526  22.276  0.00  0.00     0.065 A 
ATOM     24  C   UNL d   1     -44.545  11.959  22.584  0.00  0.00     0.029 A 
ATOM     25  C   UNL d   1     -43.738  11.972  22.361  0.00  0.00     0.059 A 
ATOM     26 CL   UNL d   1     -43.211  11.410  22.665  0.00  0.00    -0.082 Cl
ATOM     27  C   UNL d   1     -43.463  12.557  21.828  0.00  0.00     0.011 A 
ATOM     28  C   UNL d   1     -44.000  13.124  21.522  0.00  0.00     0.002 A 
ATOM     29  C   UNL d   1     -44.794  13.107  21.745  0.00  0.00     0.018 A 
ENDBRANCH  20  23
ENDBRANCH   4  17
TORSDOF 2
ENDMDL
MODEL 2
REMARK VINA RESULT:      -6.5      1.043      2.204
REMARK  2 active torsions:
REMARK  status: ('A' for Active; 'I' for Inactive)
REMARK    1  A    between atoms: N_11  and  C_4 
REMARK    2  A    between atoms: C_16  and  N_12 
ROOT
ATOM      1  N   UNL d   1     -48.084  13.204  22.811  0.00  0.00    -0.195 N 
ATOM      2  C   UNL d   1     -48.849  13.432  22.929  0.00  0.00     0.168 A 
ATOM      3  C   UNL d   1     -49.407  12.899  23.121  0.00  0.00     0.073 A 
ATOM      4  C   UNL d   1     -47.540  13.750  22.619  0.00  0.00     0.153 A 
ATOM      5  N   UNL d   1     -48.431  11.906  23.076  0.00  0.00    -0.143 NA
ATOM      6  C   UNL d   1     -49.196  12.135  23.195  0.00  0.00     0.185 A 
ATOM      7  N   UNL d   1     -49.050  14.202  22.852  0.00  0.00    -0.227 NA
ATOM      8  C   UNL d   1     -50.164  13.125  23.238  0.00  0.00     0.007 A 
ATOM      9  N   UNL d   1     -49.750  11.583  23.389  0.00  0.00    -0.225 NA
ATOM     10  C   UNL d   1     -47.734  14.513  22.542  0.00  0.00     0.057 A 
ATOM     11  C   UNL d   1     -50.722  12.591  23.430  0.00  0.00     0.019 A 
ATOM     12  C   UNL d   1     -48.499  14.742  22.660  0.00  0.00     0.086 A 
ATOM     13  C   UNL d   1     -50.515  11.812  23.507  0.00  0.00     0.083 A 
ATOM     14  C   UNL d   1     -50.363  13.898  23.161  0.00  0.00     0.000 C 
ATOM     15  C   UNL d   1     -48.704  15.542  22.580  0.00  0.00     0.021 C 
ATOM     16  C   UNL d   1     -51.064  11.276  23.698  0.00  0.00     0.021 C 
ENDROOT
BRANCH   4  17
ATOM     17  N   UNL d   1     -46.753  13.507  22.499  0.00  0.00    -0.286 N 
ATOM     18  C   UNL d   1     -46.551  13.207  21.750  0.00  0.00     0.101 A 
ATOM     19  C   UNL d   1     -45.776  12.954  21.594  0.00  0.00     0.100 A 
ATOM     20  N   UNL d   1     -45.207  13.004  22.191  0.00  0.00    -0.301 N 
ATOM     21  C   UNL d   1     -45.400  13.303  22.943  0.00  0.00     0.100 A 
ATOM     22  C   UNL d   1     -46.180  13.555  23.095  0.00  0.00     0.101 A 
BRANCH  20  23
ATOM     23  C   UNL d   1     -44.436  12.755  22.040  0.00  0.00     0.065 A 
ATOM     24  C   UNL d   1     -43.931  13.213  21.561  0.00  0.00     0.029 A 
ATOM     25  C   UNL d   1     -43.149  12.957  21.409  0.00  0.00     0.059 A 
ATOM     26 CL   UNL d   1     -42.644  13.412  20.933  0.00  0.00    -0.082 Cl
ATOM     27  C   UNL d   1     -42.874  12.239  21.740  0.00  0.00     0.011 A 
ATOM     28  C   UNL d   1     -43.386  11.781  22.221  0.00  0.00     0.002 A 
ATOM     29  C   UNL d   1     -44.157  12.038  22.368  0.00  0.00     0.018 A 
ENDBRANCH  20  23
ENDBRANCH   4  17
TORSDOF 2
ENDMDL
MODEL 3
REMARK VINA RESULT:      -6.1      8.059     10.225
REMARK  2 active torsions:
REMARK  status: ('A' for Active; 'I' for Inactive)
REMARK    1  A    between atoms: N_11  and  C_4 
REMARK    2  A    between atoms: C_16  and  N_12 
ROOT
ATOM      1  N   UNL d   1     -39.271  14.499  20.146  0.00  0.00    -0.195 N 
ATOM      2  C   UNL d   1     -39.568  14.455  20.895  0.00  0.00     0.168 A 
ATOM      3  C   UNL d   1     -39.173  14.068  21.467  0.00  0.00     0.073 A 
ATOM      4  C   UNL d   1     -39.680  14.890  19.588  0.00  0.00     0.153 A 
ATOM      5  N   UNL d   1     -38.181  13.768  20.535  0.00  0.00    -0.143 NA
ATOM      6  C   UNL d   1     -38.478  13.724  21.284  0.00  0.00     0.185 A 
ATOM      7  N   UNL d   1     -40.266  14.804  21.067  0.00  0.00    -0.227 NA
ATOM      8  C   UNL d   1     -39.466  14.024  22.207  0.00  0.00     0.007 A 
ATOM      9  N   UNL d   1     -38.066  13.328  21.852  0.00  0.00    -0.225 NA
ATOM     10  C   UNL d   1     -40.372  15.237  19.753  0.00  0.00     0.057 A 
ATOM     11  C   UNL d   1     -39.070  13.637  22.779  0.00  0.00     0.019 A 
ATOM     12  C   UNL d   1     -40.668  15.193  20.502  0.00  0.00     0.086 A 
ATOM     13  C   UNL d   1     -38.363  13.284  22.601  0.00  0.00     0.083 A 
ATOM     14  C   UNL d   1     -40.167  14.375  22.378  0.00  0.00     0.000 C 
ATOM     15  C   UNL d   1     -41.394  15.556  20.678  0.00  0.00     0.021 C 
ATOM     16  C   UNL d   1     -37.964  12.897  23.164  0.00  0.00     0.021 C 
ENDROOT
BRANCH   4  17
ATOM     17  N   UNL d   1     -39.368  14.931  18.818  0.00  0.00    -0.286 N 
ATOM     18  C   UNL d   1     -39.767  14.519  18.216  0.00  0.00     0.101 A 
ATOM     19  C   UNL d   1     -39.484  14.537  17.435  0.00  0.00     0.100 A 
ATOM     20  N   UNL d   1     -38.801  14.969  17.264  0.00  0.00    -0.301 N 
ATOM     21  C   UNL d   1     -38.395  15.384  17.859  0.00  0.00     0.100 A 
ATOM     22  C   UNL d   1     -38.683  15.363  18.642  0.00  0.00     0.101 A 
BRANCH  20  23
ATOM     23  C   UNL d   1     -38.517  14.990  16.490  0.00  0.00     0.065 A 
ATOM     24  C   UNL d   1     -38.432  14.284  16.054  0.00  0.00     0.029 A 
ATOM     25  C   UNL d   1     -38.143  14.309  15.268  0.00  0.00     0.059 A 
ATOM     26 CL   UNL d   1     -38.058  13.608  14.832  0.00  0.00    -0.082 Cl
ATOM     27  C   UNL d   1     -37.940  15.043  14.921  0.00  0.00     0.011 A 
ATOM     28  C   UNL d   1     -38.027  15.749  15.365  0.00  0.00     0.002 A 
ATOM     29  C   UNL d   1     -38.313  15.720  16.139  0.00  0.00     0.018 A 
ENDBRANCH  20  23
ENDBRANCH   4  17
TORSDOF 2
ENDMDL
MODEL 4
REMARK VINA RESULT:      -5.7      1.970      5.491
REMARK  2 active torsions:
REMARK  status: ('A' for Active; 'I' for Inactive)
REMARK    1  A    between atoms: N_11  and  C_4 
REMARK    2  A    between atoms: C_16  and  N_12 
ROOT
ATOM      1  N   UNL d   1     -45.699  12.657  22.548  0.00  0.00    -0.195 N 
ATOM      2  C   UNL d   1     -45.039  12.194  22.571  0.00  0.00     0.168 A 
ATOM      3  C   UNL d   1     -44.365  12.429  22.220  0.00  0.00     0.073 A 
ATOM      4  C   UNL d   1     -46.364  12.406  22.904  0.00  0.00     0.153 A 
ATOM      5  N   UNL d   1     -45.015  13.595  21.822  0.00  0.00    -0.143 NA
ATOM      6  C   UNL d   1     -44.355  13.132  21.845  0.00  0.00     0.185 A 
ATOM      7  N   UNL d   1     -45.060  11.491  22.950  0.00  0.00    -0.227 NA
ATOM      8  C   UNL d   1     -43.712  11.971  22.243  0.00  0.00     0.007 A 
ATOM      9  N   UNL d   1     -43.680  13.384  21.485  0.00  0.00    -0.225 NA
ATOM     10  C   UNL d   1     -46.389  11.710  23.281  0.00  0.00     0.057 A 
ATOM     11  C   UNL d   1     -43.038  12.207  21.891  0.00  0.00     0.019 A 
ATOM     12  C   UNL d   1     -45.729  11.247  23.304  0.00  0.00     0.086 A 
ATOM     13  C   UNL d   1     -43.020  12.921  21.508  0.00  0.00     0.083 A 
ATOM     14  C   UNL d   1     -43.736  11.265  22.624  0.00  0.00     0.000 C 
ATOM     15  C   UNL d   1     -45.754  10.517  23.698  0.00  0.00     0.021 C 
ATOM     16  C   UNL d   1     -42.353  13.162  21.157  0.00  0.00     0.021 C 
ENDROOT
BRANCH   4  17
ATOM     17  N   UNL d   1     -47.040  12.889  22.876  0.00  0.00    -0.286 N 
ATOM     18  C   UNL d   1     -47.687  12.624  22.425  0.00  0.00     0.101 A 
ATOM     19  C   UNL d   1     -48.379  13.081  22.375  0.00  0.00     0.100 A 
ATOM     20  N   UNL d   1     -48.417  13.801  22.777  0.00  0.00    -0.301 N 
ATOM     21  C   UNL d   1     -47.776  14.074  23.231  0.00  0.00     0.100 A 
ATOM     22  C   UNL d   1     -47.083  13.612  23.279  0.00  0.00     0.101 A 
BRANCH  20  23
ATOM     23  C   UNL d   1     -49.103  14.257  22.729  0.00  0.00     0.065 A 
ATOM     24  C   UNL d   1     -49.711  14.048  22.199  0.00  0.00     0.029 A 
ATOM     25  C   UNL d   1     -50.406  14.513  22.153  0.00  0.00     0.059 A 
ATOM     26 CL   UNL d   1     -51.013  14.308  21.626  0.00  0.00    -0.082 Cl
ATOM     27  C   UNL d   1     -50.488  15.188  22.640  0.00  0.00     0.011 A 
ATOM     28  C   UNL d   1     -49.873  15.394  23.172  0.00  0.00     0.002 A 
ATOM     29  C   UNL d   1     -49.190  14.932  23.214  0.00  0.00     0.018 A 
ENDBRANCH  20  23
ENDBRANCH   4  17
TORSDOF 2
ENDMDL
MODEL 5
REMARK VINA RESULT:      -5.3      1.652      2.594
REMARK  2 active torsions:
REMARK  status: ('A' for Active; 'I' for Inactive)
REMARK    1  A    between atoms: N_11  and  C_4 
REMARK    2  A    between atoms: C_16  and  N_12 
ROOT
ATOM      1  N   UNL d   1     -47.636  13.257  22.411  0.00  0.00    -0.195 N 
ATOM      2  C   UNL d   1     -48.175  13.841  22.271  0.00  0.00     0.168 A 
ATOM      3  C   UNL d   1     -48.898  13.668  21.989  0.00  0.00     0.073 A 
ATOM      4  C   UNL d   1     -46.919  13.450  22.693  0.00  0.00     0.153 A 
ATOM      5  N   UNL d   1     -48.541  12.321  21.987  0.00  0.00    -0.143 NA
ATOM      6  C   UNL d   1     -49.080  12.905  21.847  0.00  0.00     0.185 A 
ATOM      7  N   UNL d   1     -47.983  14.603  22.417  0.00  0.00    -0.227 NA
ATOM      8  C   UNL d   1     -49.431  14.245  21.851  0.00  0.00     0.007 A 
ATOM      9  N   UNL d   1     -49.808  12.713  21.561  0.00  0.00    -0.225 NA
ATOM     10  C   UNL d   1     -46.723  14.202  22.839  0.00  0.00     0.057 A 
ATOM     11  C   UNL d   1     -50.155  14.071  21.568  0.00  0.00     0.019 A 
ATOM     12  C   UNL d   1     -47.262  14.786  22.700  0.00  0.00     0.086 A 
ATOM     13  C   UNL d   1     -50.347  13.297  21.422  0.00  0.00     0.083 A 
ATOM     14  C   UNL d   1     -49.236  15.009  21.998  0.00  0.00     0.000 C 
ATOM     15  C   UNL d   1     -47.059  15.577  22.852  0.00  0.00     0.021 C 
ATOM     16  C   UNL d   1     -51.064  13.117  21.141  0.00  0.00     0.021 C 
ENDROOT
BRANCH   4  17
ATOM     17  N   UNL d   1     -46.368  12.842  22.835  0.00  0.00    -0.286 N 
ATOM     18  C   UNL d   1     -46.592  12.229  23.351  0.00  0.00     0.101 A 
ATOM     19  C   UNL d   1     -46.069  11.606  23.515  0.00  0.00     0.100 A 
ATOM     20  N   UNL d   1     -45.323  11.602  23.161  0.00  0.00    -0.301 N 
ATOM     21  C   UNL d   1     -45.090  12.210  22.644  0.00  0.00     0.100 A 
ATOM     22  C   UNL d   1     -45.619  12.834  22.481  0.00  0.00     0.101 A 
BRANCH  20  23
ATOM     23  C   UNL d   1     -44.800  10.985  23.322  0.00  0.00     0.065 A 
ATOM     24  C   UNL d   1     -43.976  11.107  23.274  0.00  0.00     0.029 A 
ATOM     25  C   UNL d   1     -43.448  10.478  23.438  0.00  0.00     0.059 A 
ATOM     26 CL   UNL d   1     -42.629  10.597  23.391  0.00  0.00    -0.082 Cl
ATOM     27  C   UNL d   1     -43.749   9.726  23.651  0.00  0.00     0.011 A 
ATOM     28  C   UNL d   1     -44.578   9.609  23.697  0.00  0.00     0.002 A 
ATOM     29  C   UNL d   1     -45.094  10.232  23.534  0.00  0.00     0.018 A 
ENDBRANCH  20  23
ENDBRANCH   4  17
TORSDOF 2
ENDMDL
