MODEL 1
REMARK VINA RESULT:      -3.7      0.000      0.000
REMARK  3 active torsions:
REMARK  status: ('A' for Active; 'I' for Inactive)
REMARK       I    between atoms: N_4  and  C_1 
REMARK    1  A    between atoms: O_11  and  C_3 
REMARK    2  A    between atoms: C_6  and  N_4 
REMARK    3  A    between atoms: O_12  and  C_7 
ROOT
ATOM      1  C   UNL d   1      56.511  -0.739  32.226  0.00  0.00     0.046 A 
ATOM      2  C   UNL d   1      56.110  -0.744  32.945  0.00  0.00     0.118 A 
ATOM      3  C   UNL d   1      56.649  -0.024  31.832  0.00  0.00     0.102 A 
ATOM      4  C   UNL d   1      55.845  -0.033  33.274  0.00  0.00     0.116 A 
ATOM      5  C   UNL d   1      55.983   0.682  32.879  0.00  0.00     0.028 A 
ATOM      6  C   UNL d   1      56.385   0.682  32.159  0.00  0.00     0.022 A 
ENDROOT
BRANCH   3   7
ATOM      7  N   UNL d   1      57.052  -0.021  31.109  0.00  0.00    -0.056 NA
ATOM      8  C   UNL d   1      57.793   0.317  31.049  0.00  0.00     0.787 C 
ATOM      9  N   UNL d   1      58.192   0.321  30.335  0.00  0.00     0.064 N 
ATOM     10  N   UNL d   1      58.141   0.658  31.719  0.00  0.00     0.064 N 
ENDBRANCH   3   7
BRANCH   2  11
ATOM     11  O   UNL d   1      55.974  -1.452  33.335  0.00  0.00    -0.326 OA
ATOM     12  C   UNL d   1      55.528  -2.040  32.974  0.00  0.00     0.181 C 
ENDBRANCH   2  11
BRANCH   4  13
ATOM     13  O   UNL d   1      55.447  -0.036  33.988  0.00  0.00    -0.326 OA
ATOM     14  C   UNL d   1      55.367   0.662  34.418  0.00  0.00     0.181 C 
ENDBRANCH   4  13
TORSDOF 3
ENDMDL
MODEL 2
REMARK VINA RESULT:      -3.2      1.063      1.786
REMARK  3 active torsions:
REMARK  status: ('A' for Active; 'I' for Inactive)
REMARK       I    between atoms: N_4  and  C_1 
REMARK    1  A    between atoms: O_11  and  C_3 
REMARK    2  A    between atoms: C_6  and  N_4 
REMARK    3  A    between atoms: O_12  and  C_7 
ROOT
ATOM      1  C   UNL d   1      57.514   0.535  32.236  0.00  0.00     0.046 A 
ATOM      2  C   UNL d   1      57.088   0.160  32.832  0.00  0.00     0.118 A 
ATOM      3  C   UNL d   1      57.415   0.303  31.447  0.00  0.00     0.102 A 
ATOM      4  C   UNL d   1      56.561  -0.448  32.644  0.00  0.00     0.116 A 
ATOM      5  C   UNL d   1      56.463  -0.680  31.855  0.00  0.00     0.028 A 
ATOM      6  C   UNL d   1      56.891  -0.302  31.260  0.00  0.00     0.022 A 
ENDROOT
BRANCH   3   7
ATOM      7  N   UNL d   1      57.843   0.680  30.848  0.00  0.00    -0.056 NA
ATOM      8  C   UNL d   1      58.234   0.243  30.279  0.00  0.00     0.787 C 
ATOM      9  N   UNL d   1      58.658   0.615  29.686  0.00  0.00     0.064 N 
ATOM     10  N   UNL d   1      58.199  -0.584  30.306  0.00  0.00     0.064 N 
ENDBRANCH   3   7
BRANCH   2  11
ATOM     11  O   UNL d   1      57.186   0.390  33.614  0.00  0.00    -0.326 OA
ATOM     12  C   UNL d   1      57.911   0.680  33.868  0.00  0.00     0.181 C 
ENDBRANCH   2  11
BRANCH   4  13
ATOM     13  O   UNL d   1      56.138  -0.821  33.235  0.00  0.00    -0.326 OA
ATOM     14  C   UNL d   1      55.648  -1.458  33.053  0.00  0.00     0.181 C 
ENDBRANCH   4  13
TORSDOF 3
ENDMDL
MODEL 3
REMARK VINA RESULT:      -2.9      2.036      2.905
REMARK  3 active torsions:
REMARK  status: ('A' for Active; 'I' for Inactive)
REMARK       I    between atoms: N_4  and  C_1 
REMARK    1  A    between atoms: O_11  and  C_3 
REMARK    2  A    between atoms: C_6  and  N_4 
REMARK    3  A    between atoms: O_12  and  C_7 
ROOT
ATOM      1  C   UNL d   1      55.640  -0.684  33.198  0.00  0.00     0.046 A 
ATOM      2  C   UNL d   1      56.174  -0.940  32.626  0.00  0.00     0.118 A 
ATOM      3  C   UNL d   1      55.483   0.124  33.288  0.00  0.00     0.102 A 
ATOM      4  C   UNL d   1      56.554  -0.389  32.141  0.00  0.00     0.116 A 
ATOM      5  C   UNL d   1      56.397   0.419  32.232  0.00  0.00     0.028 A 
ATOM      6  C   UNL d   1      55.862   0.671  32.806  0.00  0.00     0.022 A 
ENDROOT
BRANCH   3   7
ATOM      7  N   UNL d   1      54.947   0.380  33.863  0.00  0.00    -0.056 NA
ATOM      8  C   UNL d   1      55.170   0.429  34.648  0.00  0.00     0.787 C 
ATOM      9  N   UNL d   1      54.640   0.682  35.217  0.00  0.00     0.064 N 
ATOM     10  N   UNL d   1      55.942   0.220  34.865  0.00  0.00     0.064 N 
ENDBRANCH   3   7
BRANCH   2  11
ATOM     11  O   UNL d   1      56.329  -1.740  32.537  0.00  0.00    -0.326 OA
ATOM     12  C   UNL d   1      55.818  -2.296  32.861  0.00  0.00     0.181 C 
ENDBRANCH   2  11
BRANCH   4  13
ATOM     13  O   UNL d   1      57.085  -0.642  31.573  0.00  0.00    -0.326 OA
ATOM     14  C   UNL d   1      57.435  -0.096  31.065  0.00  0.00     0.181 C 
ENDBRANCH   4  13
TORSDOF 3
ENDMDL
MODEL 4
REMARK VINA RESULT:      -2.7      2.124      3.299
REMARK  3 active torsions:
REMARK  status: ('A' for Active; 'I' for Inactive)
REMARK       I    between atoms: N_4  and  C_1 
REMARK    1  A    between atoms: O_11  and  C_3 
REMARK    2  A    between atoms: C_6  and  N_4 
REMARK    3  A    between atoms: O_12  and  C_7 
ROOT
ATOM      1  C   UNL d   1      57.541   0.658  32.559  0.00  0.00     0.046 A 
ATOM      2  C   UNL d   1      58.111   0.658  31.965  0.00  0.00     0.118 A 
ATOM      3  C   UNL d   1      56.737   0.670  32.363  0.00  0.00     0.102 A 
ATOM      4  C   UNL d   1      57.879   0.670  31.172  0.00  0.00     0.116 A 
ATOM      5  C   UNL d   1      57.075   0.681  30.976  0.00  0.00     0.028 A 
ATOM      6  C   UNL d   1      56.507   0.681  31.574  0.00  0.00     0.022 A 
ENDROOT
BRANCH   3   7
ATOM      7  N   UNL d   1      56.165   0.669  32.961  0.00  0.00    -0.056 NA
ATOM      8  C   UNL d   1      55.730  -0.004  33.119  0.00  0.00     0.787 C 
ATOM      9  N   UNL d   1      55.165  -0.004  33.710  0.00  0.00     0.064 N 
ATOM     10  N   UNL d   1      55.866  -0.690  32.675  0.00  0.00     0.064 N 
ENDBRANCH   3   7
BRANCH   2  11
ATOM     11  O   UNL d   1      58.908   0.647  32.159  0.00  0.00    -0.326 OA
ATOM     12  C   UNL d   1      59.138   0.681  32.947  0.00  0.00     0.181 C 
ENDBRANCH   2  11
BRANCH   4  13
ATOM     13  O   UNL d   1      58.444   0.670  30.580  0.00  0.00    -0.326 OA
ATOM     14  C   UNL d   1      58.223   0.532  29.799  0.00  0.00     0.181 C 
ENDBRANCH   4  13
TORSDOF 3
ENDMDL
MODEL 5
REMARK VINA RESULT:      -2.5      3.747      5.185
REMARK  3 active torsions:
REMARK  status: ('A' for Active; 'I' for Inactive)
REMARK       I    between atoms: N_4  and  C_1 
REMARK    1  A    between atoms: O_11  and  C_3 
REMARK    2  A    between atoms: C_6  and  N_4 
REMARK    3  A    between atoms: O_12  and  C_7 
ROOT
ATOM      1  C   UNL d   1      58.812  -1.122  29.247  0.00  0.00     0.046 A 
ATOM      2  C   UNL d   1      59.200  -0.445  29.511  0.00  0.00     0.118 A 
ATOM      3  C   UNL d   1      59.191  -1.640  28.723  0.00  0.00     0.102 A 
ATOM      4  C   UNL d   1      59.968  -0.283  29.252  0.00  0.00     0.116 A 
ATOM      5  C   UNL d   1      60.346  -0.800  28.729  0.00  0.00     0.028 A 
ATOM      6  C   UNL d   1      59.955  -1.477  28.466  0.00  0.00     0.022 A 
ENDROOT
BRANCH   3   7
ATOM      7  N   UNL d   1      58.801  -2.319  28.458  0.00  0.00    -0.056 NA
ATOM      8  C   UNL d   1      59.025  -3.058  28.726  0.00  0.00     0.787 C 
ATOM      9  N   UNL d   1      58.640  -3.730  28.464  0.00  0.00     0.064 N 
ATOM     10  N   UNL d   1      59.649  -3.122  29.267  0.00  0.00     0.064 N 
ENDBRANCH   3   7
BRANCH   2  11
ATOM     11  O   UNL d   1      58.825   0.067  30.029  0.00  0.00    -0.326 OA
ATOM     12  C   UNL d   1      58.049  -0.076  30.258  0.00  0.00     0.181 C 
ENDBRANCH   2  11
BRANCH   4  13
ATOM     13  O   UNL d   1      60.353   0.389  29.514  0.00  0.00    -0.326 OA
ATOM     14  C   UNL d   1      61.131   0.535  29.283  0.00  0.00     0.181 C 
ENDBRANCH   4  13
TORSDOF 3
ENDMDL
MODEL 6
REMARK VINA RESULT:      -2.4      2.466      3.612
REMARK  3 active torsions:
REMARK  status: ('A' for Active; 'I' for Inactive)
REMARK       I    between atoms: N_4  and  C_1 
REMARK    1  A    between atoms: O_11  and  C_3 
REMARK    2  A    between atoms: C_6  and  N_4 
REMARK    3  A    between atoms: O_12  and  C_7 
ROOT
ATOM      1  C   UNL d   1      58.893  -0.630  29.389  0.00  0.00     0.046 A 
ATOM      2  C   UNL d   1      58.305  -0.868  29.914  0.00  0.00     0.118 A 
ATOM      3  C   UNL d   1      59.178   0.147  29.409  0.00  0.00     0.102 A 
ATOM      4  C   UNL d   1      57.999  -0.330  30.461  0.00  0.00     0.116 A 
ATOM      5  C   UNL d   1      58.284   0.447  30.481  0.00  0.00     0.028 A 
ATOM      6  C   UNL d   1      58.874   0.682  29.953  0.00  0.00     0.022 A 
ENDROOT
BRANCH   3   7
ATOM      7  N   UNL d   1      59.769   0.385  28.881  0.00  0.00    -0.056 NA
ATOM      8  C   UNL d   1      60.546   0.446  29.128  0.00  0.00     0.787 C 
ATOM      9  N   UNL d   1      61.130   0.682  28.606  0.00  0.00     0.064 N 
ATOM     10  N   UNL d   1      60.739   0.268  29.913  0.00  0.00     0.064 N 
ENDBRANCH   3   7
BRANCH   2  11
ATOM     11  O   UNL d   1      58.023  -1.638  29.894  0.00  0.00    -0.326 OA
ATOM     12  C   UNL d   1      58.394  -2.198  29.421  0.00  0.00     0.181 C 
ENDBRANCH   2  11
BRANCH   4  13
ATOM     13  O   UNL d   1      57.415  -0.565  30.983  0.00  0.00    -0.326 OA
ATOM     14  C   UNL d   1      57.046  -0.009  31.466  0.00  0.00     0.181 C 
ENDBRANCH   4  13
TORSDOF 3
ENDMDL
MODEL 7
REMARK VINA RESULT:      -2.3      3.226      4.773
REMARK  3 active torsions:
REMARK  status: ('A' for Active; 'I' for Inactive)
REMARK       I    between atoms: N_4  and  C_1 
REMARK    1  A    between atoms: O_11  and  C_3 
REMARK    2  A    between atoms: C_6  and  N_4 
REMARK    3  A    between atoms: O_12  and  C_7 
ROOT
ATOM      1  C   UNL d   1      59.275   0.442  30.003  0.00  0.00     0.046 A 
ATOM      2  C   UNL d   1      59.865   0.022  29.612  0.00  0.00     0.118 A 
ATOM      3  C   UNL d   1      58.486   0.198  29.949  0.00  0.00     0.102 A 
ATOM      4  C   UNL d   1      59.669  -0.644  29.164  0.00  0.00     0.116 A 
ATOM      5  C   UNL d   1      58.879  -0.888  29.110  0.00  0.00     0.028 A 
ATOM      6  C   UNL d   1      58.291  -0.464  29.504  0.00  0.00     0.022 A 
ENDROOT
BRANCH   3   7
ATOM      7  N   UNL d   1      57.894   0.621  30.342  0.00  0.00    -0.056 NA
ATOM      8  C   UNL d   1      57.445   0.264  30.924  0.00  0.00     0.787 C 
ATOM      9  N   UNL d   1      56.860   0.682  31.313  0.00  0.00     0.064 N 
ATOM     10  N   UNL d   1      57.587  -0.528  31.119  0.00  0.00     0.064 N 
ENDBRANCH   3   7
BRANCH   2  11
ATOM     11  O   UNL d   1      60.647   0.264  29.665  0.00  0.00    -0.326 OA
ATOM     12  C   UNL d   1      60.902   0.681  30.325  0.00  0.00     0.181 C 
ENDBRANCH   2  11
BRANCH   4  13
ATOM     13  O   UNL d   1      60.254  -1.063  28.775  0.00  0.00    -0.326 OA
ATOM     14  C   UNL d   1      60.105  -1.828  28.509  0.00  0.00     0.181 C 
ENDBRANCH   4  13
TORSDOF 3
ENDMDL
MODEL 8
REMARK VINA RESULT:      -2.0      1.461      2.279
REMARK  3 active torsions:
REMARK  status: ('A' for Active; 'I' for Inactive)
REMARK       I    between atoms: N_4  and  C_1 
REMARK    1  A    between atoms: O_11  and  C_3 
REMARK    2  A    between atoms: C_6  and  N_4 
REMARK    3  A    between atoms: O_12  and  C_7 
ROOT
ATOM      1  C   UNL d   1      55.920   0.662  34.158  0.00  0.00     0.046 A 
ATOM      2  C   UNL d   1      55.254   0.671  34.642  0.00  0.00     0.118 A 
ATOM      3  C   UNL d   1      55.835   0.655  33.334  0.00  0.00     0.102 A 
ATOM      4  C   UNL d   1      54.500   0.673  34.304  0.00  0.00     0.116 A 
ATOM      5  C   UNL d   1      54.414   0.665  33.481  0.00  0.00     0.028 A 
ATOM      6  C   UNL d   1      55.084   0.656  32.999  0.00  0.00     0.022 A 
ENDROOT
BRANCH   3   7
ATOM      7  N   UNL d   1      56.504   0.646  32.849  0.00  0.00    -0.056 NA
ATOM      8  C   UNL d   1      56.696  -0.021  32.417  0.00  0.00     0.787 C 
ATOM      9  N   UNL d   1      57.358  -0.031  31.937  0.00  0.00     0.064 N 
ATOM     10  N   UNL d   1      56.213  -0.692  32.469  0.00  0.00     0.064 N 
ENDBRANCH   3   7
BRANCH   2  11
ATOM     11  O   UNL d   1      55.338   0.679  35.457  0.00  0.00    -0.326 OA
ATOM     12  C   UNL d   1      56.032   0.403  35.800  0.00  0.00     0.181 C 
ENDBRANCH   2  11
BRANCH   4  13
ATOM     13  O   UNL d   1      53.837   0.682  34.784  0.00  0.00    -0.326 OA
ATOM     14  C   UNL d   1      53.085   0.681  34.448  0.00  0.00     0.181 C 
ENDBRANCH   4  13
TORSDOF 3
ENDMDL
