MODEL 1
REMARK VINA RESULT:      -5.8      0.000      0.000
REMARK  4 active torsions:
REMARK  status: ('A' for Active; 'I' for Inactive)
REMARK    1  A    between atoms: N_7  and  C_2 
REMARK    2  A    between atoms: C_5  and  C_10 
REMARK    3  A    between atoms: N_6  and  N_7 
REMARK    4  A    between atoms: C_10  and  N_6 
ROOT
ATOM      1  C   UNL d   1     -41.700-122.068 -51.373  0.00  0.00     0.125 C 
ENDROOT
BRANCH   1   2
ATOM      2  C   UNL d   1     -41.940-122.441 -50.663  0.00  0.00     0.060 A 
ATOM      3  C   UNL d   1     -42.701-122.303 -50.361  0.00  0.00     0.197 A 
ATOM      4  C   UNL d   1     -42.937-122.676 -49.653  0.00  0.00     0.043 A 
ATOM      5  O   UNL d   1     -43.233-121.806 -50.744  0.00  0.00    -0.286 OA
ATOM      6  C   UNL d   1     -42.420-123.173 -49.262  0.00  0.00     0.010 A 
ATOM      7  C   UNL d   1     -41.666-123.304 -49.568  0.00  0.00     0.035 A 
ATOM      8  C   UNL d   1     -41.413-122.948 -50.263  0.00  0.00     0.011 A 
ATOM      9 BR   UNL d   1     -41.124-123.817 -49.169  0.00  0.00    -0.049 Br
ENDBRANCH   1   2
BRANCH   1  10
ATOM     10  N   UNL d   1     -41.706-122.478 -52.111  0.00  0.00    -0.144 NA
BRANCH  10  11
ATOM     11  N   UNL d   1     -41.242-122.232 -52.721  0.00  0.00    -0.121 NA
BRANCH  11  12
ATOM     12  C   UNL d   1     -41.507-122.316 -53.502  0.00  0.00     0.217 A 
ATOM     13  N   UNL d   1     -42.071-121.932 -53.926  0.00  0.00    -0.181 NA
ATOM     14  C   UNL d   1     -42.083-122.253 -54.657  0.00  0.00     0.288 A 
ATOM     15  O   UNL d   1     -42.580-122.023 -55.273  0.00  0.00    -0.265 OA
ATOM     16  C   UNL d   1     -41.546-122.832 -54.721  0.00  0.00     0.101 A 
ATOM     17  S   UNL d   1     -41.162-122.893 -53.992  0.00  0.00    -0.041 SA
ENDBRANCH  11  12
ENDBRANCH  10  11
ENDBRANCH   1  10
TORSDOF 4
ENDMDL
MODEL 2
REMARK VINA RESULT:      -5.0      1.846      4.180
REMARK  4 active torsions:
REMARK  status: ('A' for Active; 'I' for Inactive)
REMARK    1  A    between atoms: N_7  and  C_2 
REMARK    2  A    between atoms: C_5  and  C_10 
REMARK    3  A    between atoms: N_6  and  N_7 
REMARK    4  A    between atoms: C_10  and  N_6 
ROOT
ATOM      1  C   UNL d   1     -41.780-121.739 -52.895  0.00  0.00     0.125 C 
ENDROOT
BRANCH   1   2
ATOM      2  C   UNL d   1     -41.821-122.054 -53.670  0.00  0.00     0.060 A 
ATOM      3  C   UNL d   1     -42.226-121.641 -54.264  0.00  0.00     0.197 A 
ATOM      4  C   UNL d   1     -42.265-121.958 -55.035  0.00  0.00     0.043 A 
ATOM      5  O   UNL d   1     -42.594-120.921 -54.114  0.00  0.00    -0.286 OA
ATOM      6  C   UNL d   1     -41.904-122.672 -55.200  0.00  0.00     0.010 A 
ATOM      7  C   UNL d   1     -41.503-123.077 -54.604  0.00  0.00     0.035 A 
ATOM      8  C   UNL d   1     -41.453-122.783 -53.839  0.00  0.00     0.011 A 
ATOM      9 BR   UNL d   1     -41.127-123.817 -54.767  0.00  0.00    -0.049 Br
ENDBRANCH   1   2
BRANCH   1  10
ATOM     10  N   UNL d   1     -41.918-122.218 -52.216  0.00  0.00    -0.144 NA
BRANCH  10  11
ATOM     11  N   UNL d   1     -41.772-121.935 -51.476  0.00  0.00    -0.121 NA
BRANCH  11  12
ATOM     12  C   UNL d   1     -42.020-122.363 -50.812  0.00  0.00     0.217 A 
ATOM     13  N   UNL d   1     -42.691-122.337 -50.372  0.00  0.00    -0.181 NA
ATOM     14  C   UNL d   1     -42.623-122.884 -49.794  0.00  0.00     0.288 A 
ATOM     15  O   UNL d   1     -43.188-123.044 -49.215  0.00  0.00    -0.265 OA
ATOM     16  C   UNL d   1     -41.929-123.263 -49.845  0.00  0.00     0.101 A 
ATOM     17  S   UNL d   1     -41.522-122.948 -50.491  0.00  0.00    -0.041 SA
ENDBRANCH  11  12
ENDBRANCH  10  11
ENDBRANCH   1  10
TORSDOF 4
ENDMDL
MODEL 3
REMARK VINA RESULT:      -4.6      1.124      1.331
REMARK  4 active torsions:
REMARK  status: ('A' for Active; 'I' for Inactive)
REMARK    1  A    between atoms: N_7  and  C_2 
REMARK    2  A    between atoms: C_5  and  C_10 
REMARK    3  A    between atoms: N_6  and  N_7 
REMARK    4  A    between atoms: C_10  and  N_6 
ROOT
ATOM      1  C   UNL d   1     -42.332-123.591 -50.682  0.00  0.00     0.125 C 
ENDROOT
BRANCH   1   2
ATOM      2  C   UNL d   1     -42.356-123.376 -49.873  0.00  0.00     0.060 A 
ATOM      3  C   UNL d   1     -43.006-122.953 -49.577  0.00  0.00     0.197 A 
ATOM      4  C   UNL d   1     -43.027-122.741 -48.770  0.00  0.00     0.043 A 
ATOM      5  O   UNL d   1     -43.636-122.737 -50.059  0.00  0.00    -0.286 OA
ATOM      6  C   UNL d   1     -42.409-122.949 -48.278  0.00  0.00     0.010 A 
ATOM      7  C   UNL d   1     -41.766-123.368 -48.580  0.00  0.00     0.035 A 
ATOM      8  C   UNL d   1     -41.726-123.587 -49.370  0.00  0.00     0.011 A 
ATOM      9 BR   UNL d   1     -41.123-123.587 -48.076  0.00  0.00    -0.049 Br
ENDBRANCH   1   2
BRANCH   1  10
ATOM     10  N   UNL d   1     -41.684-123.375 -51.177  0.00  0.00    -0.144 NA
BRANCH  10  11
ATOM     11  N   UNL d   1     -41.527-123.787 -51.851  0.00  0.00    -0.121 NA
BRANCH  11  12
ATOM     12  C   UNL d   1     -41.411-123.383 -52.565  0.00  0.00     0.217 A 
ATOM     13  N   UNL d   1     -41.421-122.602 -52.752  0.00  0.00    -0.181 NA
ATOM     14  C   UNL d   1     -41.270-122.540 -53.534  0.00  0.00     0.288 A 
ATOM     15  O   UNL d   1     -41.228-121.835 -53.959  0.00  0.00    -0.265 OA
ATOM     16  C   UNL d   1     -41.163-123.254 -53.859  0.00  0.00     0.101 A 
ATOM     17  S   UNL d   1     -41.247-123.814 -53.258  0.00  0.00    -0.041 SA
ENDBRANCH  11  12
ENDBRANCH  10  11
ENDBRANCH   1  10
TORSDOF 4
ENDMDL
MODEL 4
REMARK VINA RESULT:      -4.2      1.259      1.506
REMARK  4 active torsions:
REMARK  status: ('A' for Active; 'I' for Inactive)
REMARK    1  A    between atoms: N_7  and  C_2 
REMARK    2  A    between atoms: C_5  and  C_10 
REMARK    3  A    between atoms: N_6  and  N_7 
REMARK    4  A    between atoms: C_10  and  N_6 
ROOT
ATOM      1  C   UNL d   1     -41.198-122.140 -52.283  0.00  0.00     0.125 C 
ENDROOT
BRANCH   1   2
ATOM      2  C   UNL d   1     -41.400-122.566 -51.591  0.00  0.00     0.060 A 
ATOM      3  C   UNL d   1     -41.359-123.395 -51.589  0.00  0.00     0.197 A 
ATOM      4  C   UNL d   1     -41.560-123.816 -50.898  0.00  0.00     0.043 A 
ATOM      5  O   UNL d   1     -41.123-123.816 -52.255  0.00  0.00    -0.286 OA
ATOM      6  C   UNL d   1     -41.796-123.411 -50.228  0.00  0.00     0.010 A 
ATOM      7  C   UNL d   1     -41.834-122.588 -50.238  0.00  0.00     0.035 A 
ATOM      8  C   UNL d   1     -41.641-122.154 -50.907  0.00  0.00     0.011 A 
ATOM      9 BR   UNL d   1     -42.078-122.162 -49.549  0.00  0.00    -0.049 Br
ENDBRANCH   1   2
BRANCH   1  10
ATOM     10  N   UNL d   1     -41.718-122.103 -52.946  0.00  0.00    -0.144 NA
BRANCH  10  11
ATOM     11  N   UNL d   1     -41.573-121.596 -53.554  0.00  0.00    -0.121 NA
BRANCH  11  12
ATOM     12  C   UNL d   1     -41.895-121.745 -54.303  0.00  0.00     0.217 A 
ATOM     13  N   UNL d   1     -42.651-121.753 -54.575  0.00  0.00    -0.181 NA
ATOM     14  C   UNL d   1     -42.627-121.933 -55.352  0.00  0.00     0.288 A 
ATOM     15  O   UNL d   1     -43.280-122.000 -55.850  0.00  0.00    -0.265 OA
ATOM     16  C   UNL d   1     -41.880-122.042 -55.593  0.00  0.00     0.101 A 
ATOM     17  S   UNL d   1     -41.390-121.927 -54.939  0.00  0.00    -0.041 SA
ENDBRANCH  11  12
ENDBRANCH  10  11
ENDBRANCH   1  10
TORSDOF 4
ENDMDL
