MODEL 1
REMARK VINA RESULT:      35.8      0.000      0.000
REMARK  4 active torsions:
REMARK  status: ('A' for Active; 'I' for Inactive)
REMARK    1  A    between atoms: C_11  and  N_4 
REMARK    2  A    between atoms: C_18  and  C_7 
REMARK    3  A    between atoms: C_19  and  C_11 
REMARK    4  A    between atoms: O_20  and  C_16 
ROOT
ATOM      1  C   UNL d   1      46.081 -16.770  43.576  0.00  0.00     0.137 A 
ATOM      2  C   UNL d   1      45.791 -16.484  42.862  0.00  0.00     0.192 A 
ATOM      3  C   UNL d   1      46.352 -17.545  43.630  0.00  0.00     0.272 A 
ATOM      4  N   UNL d   1      46.335 -18.036  42.973  0.00  0.00    -0.258 N 
ATOM      5  N   UNL d   1      45.769 -16.969  42.198  0.00  0.00    -0.204 NA
ATOM      6  C   UNL d   1      46.101 -16.278  44.241  0.00  0.00     0.205 A 
ATOM      7  C   UNL d   1      46.042 -17.751  42.249  0.00  0.00     0.152 A 
ATOM      8  C   UNL d   1      45.830 -15.509  44.181  0.00  0.00     0.062 A 
ATOM      9  O   UNL d   1      45.518 -15.708  42.804  0.00  0.00    -0.289 OA
ATOM     10  C   UNL d   1      45.538 -15.220  43.467  0.00  0.00     0.107 A 
ATOM     11  C   UNL d   1      45.266 -14.438  43.417  0.00  0.00     0.049 A 
ATOM     12  C   UNL d   1      45.849 -15.017  44.846  0.00  0.00     0.007 A 
ATOM     13  O   UNL d   1      46.642 -17.826  44.346  0.00  0.00    -0.266 OA
ATOM     14  O   UNL d   1      46.392 -16.568  44.955  0.00  0.00    -0.286 OA
ATOM     15  C   UNL d   1      45.287 -13.953  44.079  0.00  0.00     0.096 A 
ATOM     16  C   UNL d   1      45.580 -14.244  44.796  0.00  0.00     0.024 A 
ENDROOT
BRANCH   4  17
ATOM     17  C   UNL d   1      46.610 -18.821  43.030  0.00  0.00     0.084 C 
BRANCH  17  18
ATOM     18  C   UNL d   1      46.300 -19.324  43.603  0.00  0.00     0.018 A 
ATOM     19  C   UNL d   1      45.652 -19.814  43.441  0.00  0.00     0.002 A 
ATOM     20  C   UNL d   1      45.346 -20.316  44.021  0.00  0.00     0.000 A 
ATOM     21  C   UNL d   1      45.698 -20.329  44.782  0.00  0.00     0.000 A 
ATOM     22  C   UNL d   1      46.349 -19.839  44.947  0.00  0.00     0.000 A 
ATOM     23  C   UNL d   1      46.646 -19.340  44.358  0.00  0.00     0.002 A 
ENDBRANCH  17  18
ENDBRANCH   4  17
BRANCH   7  24
ATOM     24  C   UNL d   1      46.025 -18.242  41.592  0.00  0.00     0.038 C 
ATOM     25  C   UNL d   1      46.503 -18.077  40.943  0.00  0.00     0.003 C 
ENDBRANCH   7  24
BRANCH  15  26
ATOM     26  O   UNL d   1      45.018 -13.181  44.033  0.00  0.00    -0.328 OA
ATOM     27  C   UNL d   1      45.554 -12.559  44.077  0.00  0.00     0.181 C 
ENDBRANCH  15  26
TORSDOF 4
ENDMDL
MODEL 2
REMARK VINA RESULT:      36.6      0.999      2.040
REMARK  4 active torsions:
REMARK  status: ('A' for Active; 'I' for Inactive)
REMARK    1  A    between atoms: C_11  and  N_4 
REMARK    2  A    between atoms: C_18  and  C_7 
REMARK    3  A    between atoms: C_19  and  C_11 
REMARK    4  A    between atoms: O_20  and  C_16 
ROOT
ATOM      1  C   UNL d   1      46.119 -16.986  43.746  0.00  0.00     0.137 A 
ATOM      2  C   UNL d   1      45.940 -17.023  44.548  0.00  0.00     0.192 A 
ATOM      3  C   UNL d   1      46.350 -17.665  43.343  0.00  0.00     0.272 A 
ATOM      4  N   UNL d   1      46.403 -18.382  43.738  0.00  0.00    -0.258 N 
ATOM      5  N   UNL d   1      45.990 -17.737  44.952  0.00  0.00    -0.204 NA
ATOM      6  C   UNL d   1      46.067 -16.265  43.343  0.00  0.00     0.205 A 
ATOM      7  C   UNL d   1      46.223 -18.425  44.548  0.00  0.00     0.152 A 
ATOM      8  C   UNL d   1      45.836 -15.594  43.750  0.00  0.00     0.062 A 
ATOM      9  O   UNL d   1      45.707 -16.344  44.955  0.00  0.00    -0.289 OA
ATOM     10  C   UNL d   1      45.656 -15.628  44.552  0.00  0.00     0.107 A 
ATOM     11  C   UNL d   1      45.423 -14.940  44.954  0.00  0.00     0.049 A 
ATOM     12  C   UNL d   1      45.784 -14.872  43.347  0.00  0.00     0.007 A 
ATOM     13  O   UNL d   1      46.528 -17.623  42.542  0.00  0.00    -0.266 OA
ATOM     14  O   UNL d   1      46.247 -16.231  42.541  0.00  0.00    -0.286 OA
ATOM     15  C   UNL d   1      45.373 -14.227  44.551  0.00  0.00     0.096 A 
ATOM     16  C   UNL d   1      45.554 -14.193  43.745  0.00  0.00     0.024 A 
ENDROOT
BRANCH   4  17
ATOM     17  C   UNL d   1      46.638 -19.069  43.328  0.00  0.00     0.084 C 
BRANCH  17  18
ATOM     18  C   UNL d   1      46.222 -19.311  42.660  0.00  0.00     0.018 A 
ATOM     19  C   UNL d   1      45.395 -19.288  42.635  0.00  0.00     0.002 A 
ATOM     20  C   UNL d   1      44.985 -19.532  41.961  0.00  0.00     0.000 A 
ATOM     21  C   UNL d   1      45.414 -19.806  41.295  0.00  0.00     0.000 A 
ATOM     22  C   UNL d   1      46.244 -19.830  41.317  0.00  0.00     0.000 A 
ATOM     23  C   UNL d   1      46.644 -19.583  41.998  0.00  0.00     0.002 A 
ENDBRANCH  17  18
ENDBRANCH   4  17
BRANCH   7  24
ATOM     24  C   UNL d   1      46.276 -19.141  44.943  0.00  0.00     0.038 C 
ATOM     25  C   UNL d   1      45.633 -19.656  44.950  0.00  0.00     0.003 C 
ENDBRANCH   7  24
BRANCH  15  26
ATOM     26  O   UNL d   1      45.143 -13.547  44.946  0.00  0.00    -0.328 OA
ATOM     27  C   UNL d   1      45.506 -12.830  44.770  0.00  0.00     0.181 C 
ENDBRANCH  15  26
TORSDOF 4
ENDMDL
