MODEL 1
REMARK VINA RESULT:      -8.6      0.000      0.000
REMARK  5 active torsions:
REMARK  status: ('A' for Active; 'I' for Inactive)
REMARK    1  A    between atoms: C_4  and  C_1 
REMARK    2  A    between atoms: C_10  and  C_2 
REMARK    3  A    between atoms: C_8  and  C_4 
REMARK    4  A    between atoms: C_9  and  C_4 
REMARK    5  A    between atoms: N_5  and  C_9 
ROOT
ATOM      1  C   UNL d   1      53.115  32.701  53.544  0.00  0.00     0.023 A 
ATOM      2  C   UNL d   1      52.732  32.015  53.264  0.00  0.00     0.081 A 
ATOM      3  N   UNL d   1      52.117  32.248  52.778  0.00  0.00    -0.246 NA
ATOM      4  C   UNL d   1      52.727  33.355  53.225  0.00  0.00     0.019 A 
ATOM      5  C   UNL d   1      52.107  33.081  52.748  0.00  0.00     0.081 A 
ATOM      6  C   UNL d   1      52.855  34.165  53.303  0.00  0.00     0.002 A 
ATOM      7  C   UNL d   1      51.617  33.607  52.353  0.00  0.00     0.019 A 
ATOM      8  C   UNL d   1      52.364  34.696  52.907  0.00  0.00     0.000 A 
ATOM      9  C   UNL d   1      51.753  34.426  52.438  0.00  0.00     0.002 A 
ENDROOT
BRANCH   1  10
ATOM     10  C   UNL d   1      53.769  32.727  54.053  0.00  0.00     0.048 C 
BRANCH  10  11
ATOM     11  C   UNL d   1      54.508  32.938  53.769  0.00  0.00     0.102 A 
ATOM     12  O   UNL d   1      54.860  32.671  53.067  0.00  0.00    -0.305 OA
ATOM     13  C   UNL d   1      55.596  33.027  53.008  0.00  0.00     0.123 A 
ATOM     14  C   UNL d   1      55.710  33.520  53.675  0.00  0.00     0.029 A 
ATOM     15  C   UNL d   1      55.038  33.457  54.132  0.00  0.00     0.027 A 
ENDBRANCH  10  11
BRANCH  10  16
ATOM     16  C   UNL d   1      53.668  32.536  54.856  0.00  0.00     0.150 C 
BRANCH  16  17
ATOM     17  N   UNL d   1      53.885  33.085  55.433  0.00  0.00    -0.112 N 
ATOM     18  O   UNL d   1      53.448  33.777  55.548  0.00  0.00    -0.532 OA
ATOM     19  O   UNL d   1      54.559  32.950  55.918  0.00  0.00    -0.532 OA
ENDBRANCH  16  17
ENDBRANCH  10  16
ENDBRANCH   1  10
BRANCH   2  20
ATOM     20  C   UNL d   1      52.940  31.238  53.446  0.00  0.00     0.018 A 
ATOM     21  C   UNL d   1      53.380  30.782  52.905  0.00  0.00     0.002 A 
ATOM     22  C   UNL d   1      53.590  30.005  53.084  0.00  0.00     0.000 A 
ATOM     23  C   UNL d   1      53.363  29.672  53.806  0.00  0.00     0.000 A 
ATOM     24  C   UNL d   1      52.923  30.120  54.352  0.00  0.00     0.000 A 
ATOM     25  C   UNL d   1      53.571  28.898  53.984  0.00  0.00     0.000 C 
ATOM     26  C   UNL d   1      52.715  30.905  54.164  0.00  0.00     0.002 A 
ENDBRANCH   2  20
TORSDOF 5
ENDMDL
MODEL 2
REMARK VINA RESULT:      -8.6      1.077      3.315
REMARK  5 active torsions:
REMARK  status: ('A' for Active; 'I' for Inactive)
REMARK    1  A    between atoms: C_4  and  C_1 
REMARK    2  A    between atoms: C_10  and  C_2 
REMARK    3  A    between atoms: C_8  and  C_4 
REMARK    4  A    between atoms: C_9  and  C_4 
REMARK    5  A    between atoms: N_5  and  C_9 
ROOT
ATOM      1  C   UNL d   1      53.180  31.959  53.453  0.00  0.00     0.023 A 
ATOM      2  C   UNL d   1      52.403  32.068  53.169  0.00  0.00     0.081 A 
ATOM      3  N   UNL d   1      52.082  31.332  53.017  0.00  0.00    -0.246 NA
ATOM      4  C   UNL d   1      53.329  31.148  53.473  0.00  0.00     0.019 A 
ATOM      5  C   UNL d   1      52.652  30.753  53.204  0.00  0.00     0.081 A 
ATOM      6  C   UNL d   1      53.991  30.714  53.701  0.00  0.00     0.002 A 
ATOM      7  C   UNL d   1      52.633  29.934  53.162  0.00  0.00     0.019 A 
ATOM      8  C   UNL d   1      53.974  29.891  53.659  0.00  0.00     0.000 A 
ATOM      9  C   UNL d   1      53.307  29.502  53.394  0.00  0.00     0.002 A 
ENDROOT
BRANCH   1  10
ATOM     10  C   UNL d   1      53.711  32.555  53.677  0.00  0.00     0.048 C 
BRANCH  10  11
ATOM     11  C   UNL d   1      53.842  32.719  54.468  0.00  0.00     0.102 A 
ATOM     12  O   UNL d   1      53.853  32.169  55.090  0.00  0.00    -0.305 OA
ATOM     13  C   UNL d   1      54.003  32.580  55.782  0.00  0.00     0.123 A 
ATOM     14  C   UNL d   1      54.088  33.392  55.599  0.00  0.00     0.029 A 
ATOM     15  C   UNL d   1      53.987  33.464  54.793  0.00  0.00     0.027 A 
ENDBRANCH  10  11
BRANCH  10  16
ATOM     16  C   UNL d   1      54.111  32.985  53.089  0.00  0.00     0.150 C 
BRANCH  16  17
ATOM     17  N   UNL d   1      54.936  33.009  53.094  0.00  0.00    -0.112 N 
ATOM     18  O   UNL d   1      55.382  32.385  52.786  0.00  0.00    -0.532 OA
ATOM     19  O   UNL d   1      55.342  33.671  53.416  0.00  0.00    -0.532 OA
ENDBRANCH  16  17
ENDBRANCH  10  16
ENDBRANCH   1  10
BRANCH   2  20
ATOM     20  C   UNL d   1      52.027  32.795  53.060  0.00  0.00     0.018 A 
ATOM     21  C   UNL d   1      51.469  33.066  53.616  0.00  0.00     0.002 A 
ATOM     22  C   UNL d   1      51.091  33.792  53.511  0.00  0.00     0.000 A 
ATOM     23  C   UNL d   1      51.266  34.256  52.849  0.00  0.00     0.000 A 
ATOM     24  C   UNL d   1      51.822  33.992  52.290  0.00  0.00     0.000 A 
ATOM     25  C   UNL d   1      50.890  34.978  52.744  0.00  0.00     0.000 C 
ATOM     26  C   UNL d   1      52.200  33.258  52.403  0.00  0.00     0.002 A 
ENDBRANCH   2  20
TORSDOF 5
ENDMDL
MODEL 3
REMARK VINA RESULT:      -8.4      0.682      3.001
REMARK  5 active torsions:
REMARK  status: ('A' for Active; 'I' for Inactive)
REMARK    1  A    between atoms: C_4  and  C_1 
REMARK    2  A    between atoms: C_10  and  C_2 
REMARK    3  A    between atoms: C_8  and  C_4 
REMARK    4  A    between atoms: C_9  and  C_4 
REMARK    5  A    between atoms: N_5  and  C_9 
ROOT
ATOM      1  C   UNL d   1      53.172  31.960  53.562  0.00  0.00     0.023 A 
ATOM      2  C   UNL d   1      52.474  32.109  53.131  0.00  0.00     0.081 A 
ATOM      3  N   UNL d   1      52.212  31.401  52.817  0.00  0.00    -0.246 NA
ATOM      4  C   UNL d   1      53.334  31.153  53.507  0.00  0.00     0.019 A 
ATOM      5  C   UNL d   1      52.742  30.800  53.046  0.00  0.00     0.081 A 
ATOM      6  C   UNL d   1      53.942  30.690  53.815  0.00  0.00     0.002 A 
ATOM      7  C   UNL d   1      52.754  29.995  52.893  0.00  0.00     0.019 A 
ATOM      8  C   UNL d   1      53.956  29.880  53.662  0.00  0.00     0.000 A 
ATOM      9  C   UNL d   1      53.373  29.532  53.208  0.00  0.00     0.002 A 
ENDROOT
BRANCH   1  10
ATOM     10  C   UNL d   1      53.627  32.518  53.973  0.00  0.00     0.048 C 
BRANCH  10  11
ATOM     11  C   UNL d   1      54.341  32.778  53.667  0.00  0.00     0.102 A 
ATOM     12  O   UNL d   1      54.769  32.427  53.049  0.00  0.00    -0.305 OA
ATOM     13  C   UNL d   1      55.445  32.874  52.931  0.00  0.00     0.123 A 
ATOM     14  C   UNL d   1      55.445  33.510  53.475  0.00  0.00     0.029 A 
ATOM     15  C   UNL d   1      54.765  33.440  53.920  0.00  0.00     0.027 A 
ENDBRANCH  10  11
BRANCH  10  16
ATOM     16  C   UNL d   1      53.351  32.812  54.700  0.00  0.00     0.150 C 
BRANCH  16  17
ATOM     17  N   UNL d   1      53.829  32.749  55.370  0.00  0.00    -0.112 N 
ATOM     18  O   UNL d   1      53.935  32.022  55.750  0.00  0.00    -0.532 OA
ATOM     19  O   UNL d   1      54.218  33.425  55.681  0.00  0.00    -0.532 OA
ENDBRANCH  16  17
ENDBRANCH  10  16
ENDBRANCH   1  10
BRANCH   2  20
ATOM     20  C   UNL d   1      52.111  32.845  53.040  0.00  0.00     0.018 A 
ATOM     21  C   UNL d   1      51.546  33.107  53.593  0.00  0.00     0.002 A 
ATOM     22  C   UNL d   1      51.182  33.842  53.505  0.00  0.00     0.000 A 
ATOM     23  C   UNL d   1      51.378  34.325  52.863  0.00  0.00     0.000 A 
ATOM     24  C   UNL d   1      51.941  34.071  52.307  0.00  0.00     0.000 A 
ATOM     25  C   UNL d   1      51.016  35.056  52.776  0.00  0.00     0.000 C 
ATOM     26  C   UNL d   1      52.305  33.327  52.402  0.00  0.00     0.002 A 
ENDBRANCH   2  20
TORSDOF 5
ENDMDL
MODEL 4
REMARK VINA RESULT:      -6.5      1.387      3.606
REMARK  5 active torsions:
REMARK  status: ('A' for Active; 'I' for Inactive)
REMARK    1  A    between atoms: C_4  and  C_1 
REMARK    2  A    between atoms: C_10  and  C_2 
REMARK    3  A    between atoms: C_8  and  C_4 
REMARK    4  A    between atoms: C_9  and  C_4 
REMARK    5  A    between atoms: N_5  and  C_9 
ROOT
ATOM      1  C   UNL d   1      53.208  32.176  53.495  0.00  0.00     0.023 A 
ATOM      2  C   UNL d   1      53.837  32.072  54.032  0.00  0.00     0.081 A 
ATOM      3  N   UNL d   1      53.978  31.269  54.106  0.00  0.00    -0.246 NA
ATOM      4  C   UNL d   1      52.966  31.429  53.242  0.00  0.00     0.019 A 
ATOM      5  C   UNL d   1      53.440  30.862  53.617  0.00  0.00     0.081 A 
ATOM      6  C   UNL d   1      52.377  31.188  52.718  0.00  0.00     0.002 A 
ATOM      7  C   UNL d   1      53.330  30.062  53.474  0.00  0.00     0.019 A 
ATOM      8  C   UNL d   1      52.265  30.384  52.573  0.00  0.00     0.000 A 
ATOM      9  C   UNL d   1      52.732  29.825  52.943  0.00  0.00     0.002 A 
ENDROOT
BRANCH   1  10
ATOM     10  C   UNL d   1      52.879  32.898  53.255  0.00  0.00     0.048 C 
BRANCH  10  11
ATOM     11  C   UNL d   1      52.128  33.114  53.499  0.00  0.00     0.102 A 
ATOM     12  O   UNL d   1      51.937  33.539  54.186  0.00  0.00    -0.305 OA
ATOM     13  C   UNL d   1      51.122  33.627  54.205  0.00  0.00     0.123 A 
ATOM     14  C   UNL d   1      50.797  33.258  53.528  0.00  0.00     0.029 A 
ATOM     15  C   UNL d   1      51.422  32.948  53.105  0.00  0.00     0.027 A 
ENDBRANCH  10  11
BRANCH  10  16
ATOM     16  C   UNL d   1      53.320  33.402  52.763  0.00  0.00     0.150 C 
BRANCH  16  17
ATOM     17  N   UNL d   1      52.926  33.932  52.267  0.00  0.00    -0.112 N 
ATOM     18  O   UNL d   1      52.534  33.668  51.589  0.00  0.00    -0.532 OA
ATOM     19  O   UNL d   1      52.915  34.754  52.443  0.00  0.00    -0.532 OA
ENDBRANCH  16  17
ENDBRANCH  10  16
ENDBRANCH   1  10
BRANCH   2  20
ATOM     20  C   UNL d   1      54.244  32.675  54.421  0.00  0.00     0.018 A 
ATOM     21  C   UNL d   1      54.028  32.899  55.193  0.00  0.00     0.002 A 
ATOM     22  C   UNL d   1      54.433  33.501  55.585  0.00  0.00     0.000 A 
ATOM     23  C   UNL d   1      55.060  33.888  55.209  0.00  0.00     0.000 A 
ATOM     24  C   UNL d   1      55.282  33.670  54.438  0.00  0.00     0.000 A 
ATOM     25  C   UNL d   1      55.464  34.487  55.599  0.00  0.00     0.000 C 
ATOM     26  C   UNL d   1      54.869  33.061  54.049  0.00  0.00     0.002 A 
ENDBRANCH   2  20
TORSDOF 5
ENDMDL
MODEL 5
REMARK VINA RESULT:      -6.5      1.295      3.494
REMARK  5 active torsions:
REMARK  status: ('A' for Active; 'I' for Inactive)
REMARK    1  A    between atoms: C_4  and  C_1 
REMARK    2  A    between atoms: C_10  and  C_2 
REMARK    3  A    between atoms: C_8  and  C_4 
REMARK    4  A    between atoms: C_9  and  C_4 
REMARK    5  A    between atoms: N_5  and  C_9 
ROOT
ATOM      1  C   UNL d   1      53.497  33.353  54.106  0.00  0.00     0.023 A 
ATOM      2  C   UNL d   1      52.874  33.906  54.070  0.00  0.00     0.081 A 
ATOM      3  N   UNL d   1      52.938  34.404  54.716  0.00  0.00    -0.246 NA
ATOM      4  C   UNL d   1      53.943  33.519  54.780  0.00  0.00     0.019 A 
ATOM      5  C   UNL d   1      53.601  34.170  55.163  0.00  0.00     0.081 A 
ATOM      6  C   UNL d   1      54.615  33.165  55.098  0.00  0.00     0.002 A 
ATOM      7  C   UNL d   1      53.924  34.466  55.856  0.00  0.00     0.019 A 
ATOM      8  C   UNL d   1      54.942  33.461  55.794  0.00  0.00     0.000 A 
ATOM      9  C   UNL d   1      54.605  34.103  56.172  0.00  0.00     0.002 A 
ENDROOT
BRANCH   1  10
ATOM     10  C   UNL d   1      53.648  32.744  53.564  0.00  0.00     0.048 C 
BRANCH  10  11
ATOM     11  C   UNL d   1      53.409  31.977  53.725  0.00  0.00     0.102 A 
ATOM     12  O   UNL d   1      53.412  31.606  54.467  0.00  0.00    -0.305 OA
ATOM     13  C   UNL d   1      53.128  30.844  54.364  0.00  0.00     0.123 A 
ATOM     14  C   UNL d   1      52.945  30.733  53.555  0.00  0.00     0.029 A 
ATOM     15  C   UNL d   1      53.121  31.433  53.175  0.00  0.00     0.027 A 
ENDBRANCH  10  11
BRANCH  10  16
ATOM     16  C   UNL d   1      54.044  32.919  52.855  0.00  0.00     0.150 C 
BRANCH  16  17
ATOM     17  N   UNL d   1      54.839  32.714  52.774  0.00  0.00    -0.112 N 
ATOM     18  O   UNL d   1      55.073  31.923  52.730  0.00  0.00    -0.532 OA
ATOM     19  O   UNL d   1      55.430  33.310  52.733  0.00  0.00    -0.532 OA
ENDBRANCH  16  17
ENDBRANCH  10  16
ENDBRANCH   1  10
BRANCH   2  20
ATOM     20  C   UNL d   1      52.294  33.941  53.484  0.00  0.00     0.018 A 
ATOM     21  C   UNL d   1      51.543  33.605  53.615  0.00  0.00     0.002 A 
ATOM     22  C   UNL d   1      50.961  33.639  53.031  0.00  0.00     0.000 A 
ATOM     23  C   UNL d   1      51.122  34.010  52.309  0.00  0.00     0.000 A 
ATOM     24  C   UNL d   1      51.869  34.348  52.172  0.00  0.00     0.000 A 
ATOM     25  C   UNL d   1      50.542  34.043  51.729  0.00  0.00     0.000 C 
ATOM     26  C   UNL d   1      52.452  34.310  52.766  0.00  0.00     0.002 A 
ENDBRANCH   2  20
TORSDOF 5
ENDMDL
MODEL 6
REMARK VINA RESULT:      -6.1      1.762      3.165
REMARK  5 active torsions:
REMARK  status: ('A' for Active; 'I' for Inactive)
REMARK    1  A    between atoms: C_4  and  C_1 
REMARK    2  A    between atoms: C_10  and  C_2 
REMARK    3  A    between atoms: C_8  and  C_4 
REMARK    4  A    between atoms: C_9  and  C_4 
REMARK    5  A    between atoms: N_5  and  C_9 
ROOT
ATOM      1  C   UNL d   1      52.644  33.650  53.656  0.00  0.00     0.023 A 
ATOM      2  C   UNL d   1      53.056  32.977  53.927  0.00  0.00     0.081 A 
ATOM      3  N   UNL d   1      53.522  33.203  54.561  0.00  0.00    -0.246 NA
ATOM      4  C   UNL d   1      52.863  34.288  54.130  0.00  0.00     0.019 A 
ATOM      5  C   UNL d   1      53.407  34.018  54.694  0.00  0.00     0.081 A 
ATOM      6  C   UNL d   1      52.639  35.081  54.126  0.00  0.00     0.002 A 
ATOM      7  C   UNL d   1      53.727  34.530  55.248  0.00  0.00     0.019 A 
ATOM      8  C   UNL d   1      52.959  35.598  54.682  0.00  0.00     0.000 A 
ATOM      9  C   UNL d   1      53.496  35.332  55.238  0.00  0.00     0.002 A 
ENDROOT
BRANCH   1  10
ATOM     10  C   UNL d   1      52.110  33.678  53.023  0.00  0.00     0.048 C 
BRANCH  10  11
ATOM     11  C   UNL d   1      51.309  33.782  53.160  0.00  0.00     0.102 A 
ATOM     12  O   UNL d   1      50.799  33.244  53.533  0.00  0.00    -0.305 OA
ATOM     13  C   UNL d   1      50.052  33.580  53.548  0.00  0.00     0.123 A 
ATOM     14  C   UNL d   1      50.089  34.333  53.185  0.00  0.00     0.029 A 
ATOM     15  C   UNL d   1      50.863  34.445  52.953  0.00  0.00     0.027 A 
ENDBRANCH  10  11
BRANCH  10  16
ATOM     16  C   UNL d   1      52.393  33.599  52.246  0.00  0.00     0.150 C 
BRANCH  16  17
ATOM     17  N   UNL d   1      52.257  34.203  51.701  0.00  0.00    -0.112 N 
ATOM     18  O   UNL d   1      52.744  34.871  51.675  0.00  0.00    -0.532 OA
ATOM     19  O   UNL d   1      51.617  34.152  51.159  0.00  0.00    -0.532 OA
ENDBRANCH  16  17
ENDBRANCH  10  16
ENDBRANCH   1  10
BRANCH   2  20
ATOM     20  C   UNL d   1      53.002  32.218  53.610  0.00  0.00     0.018 A 
ATOM     21  C   UNL d   1      52.443  31.677  53.907  0.00  0.00     0.002 A 
ATOM     22  C   UNL d   1      52.387  30.916  53.592  0.00  0.00     0.000 A 
ATOM     23  C   UNL d   1      52.888  30.687  52.976  0.00  0.00     0.000 A 
ATOM     24  C   UNL d   1      53.449  31.221  52.674  0.00  0.00     0.000 A 
ATOM     25  C   UNL d   1      52.831  29.930  52.663  0.00  0.00     0.000 C 
ATOM     26  C   UNL d   1      53.500  31.987  52.997  0.00  0.00     0.002 A 
ENDBRANCH   2  20
TORSDOF 5
ENDMDL
