MODEL 1
REMARK VINA RESULT:      78.3      0.000      0.000
REMARK  11 active torsions:
REMARK  status: ('A' for Active; 'I' for Inactive)
REMARK    1  A    between atoms: C_7  and  C_1 
REMARK    2  A    between atoms: C_8  and  C_2 
REMARK    3  A    between atoms: S_9  and  C_3 
REMARK    4  A    between atoms: C_11  and  C_4 
REMARK    5  A    between atoms: O_20  and  C_7 
REMARK    6  A    between atoms: C_15  and  S_9 
REMARK    7  A    between atoms: C_12  and  C_15 
REMARK    8  A    between atoms: O_24  and  C_12 
REMARK    9  A    between atoms: C_18  and  C_26 
REMARK   10  A    between atoms: C_26  and  O_20 
REMARK   11  A    between atoms: C_27  and  O_24 
ROOT
ATOM      1  C   UNL d   1     -47.699  29.708  35.351  0.00  0.00     0.081 A 
ATOM      2  C   UNL d   1     -48.739  29.663  34.363  0.00  0.00     0.045 A 
ATOM      3  C   UNL d   1     -48.857  28.839  34.540  0.00  0.00     0.112 A 
ATOM      4  C   UNL d   1     -48.158  30.081  34.775  0.00  0.00     0.010 A 
ATOM      5  C   UNL d   1     -47.814  28.907  35.523  0.00  0.00     0.087 A 
ATOM      6  N   UNL d   1     -48.388  28.483  35.119  0.00  0.00    -0.239 NA
ATOM      7  C   UNL d   1     -47.366  28.511  36.095  0.00  0.00     0.021 C 
ENDROOT
BRANCH   3   8
ATOM      8  S   UNL d   1     -49.442  28.362  34.144  0.00  0.00    -0.062 SA
BRANCH   8   9
ATOM      9  C   UNL d   1     -49.428  27.551  34.259  0.00  0.00     0.105 C 
BRANCH   9  10
ATOM     10  C   UNL d   1     -49.907  27.071  33.783  0.00  0.00     0.307 C 
ATOM     11  O   UNL d   1     -49.576  26.457  33.354  0.00  0.00    -0.258 OA
BRANCH  10  12
ATOM     12  O   UNL d   1     -50.707  27.214  33.745  0.00  0.00    -0.271 OA
BRANCH  12  13
ATOM     13  C   UNL d   1     -51.191  26.712  33.309  0.00  0.00     0.126 C 
ATOM     14  C   UNL d   1     -51.988  26.654  33.498  0.00  0.00     0.029 C 
ENDBRANCH  12  13
ENDBRANCH  10  12
ENDBRANCH   9  10
ENDBRANCH   8   9
ENDBRANCH   3   8
BRANCH   2  15
ATOM     15  C   UNL d   1     -49.197  30.067  33.777  0.00  0.00     0.124 C 
ATOM     16  N   UNL d   1     -50.006  29.981  33.766  0.00  0.00    -0.146 N 
ENDBRANCH   2  15
BRANCH   4  17
ATOM     17  C   UNL d   1     -48.044  30.878  34.604  0.00  0.00     0.000 A 
ATOM     18  C   UNL d   1     -47.405  31.098  34.127  0.00  0.00     0.000 A 
ATOM     19  C   UNL d   1     -47.269  31.882  33.942  0.00  0.00     0.000 A 
ATOM     20  C   UNL d   1     -47.812  32.488  34.258  0.00  0.00     0.000 A 
ATOM     21  C   UNL d   1     -48.444  32.250  34.732  0.00  0.00     0.000 A 
ATOM     22  C   UNL d   1     -47.707  33.287  34.093  0.00  0.00     0.000 C 
ATOM     23  C   UNL d   1     -48.559  31.448  34.905  0.00  0.00     0.000 A 
ENDBRANCH   4  17
BRANCH   1  24
ATOM     24  C   UNL d   1     -47.105  30.160  35.764  0.00  0.00     0.302 C 
ATOM     25  O   UNL d   1     -46.489  30.517  35.352  0.00  0.00    -0.259 OA
BRANCH  24  26
ATOM     26  O   UNL d   1     -47.161  30.231  36.574  0.00  0.00    -0.271 OA
BRANCH  26  27
ATOM     27  C   UNL d   1     -46.500  30.102  37.058  0.00  0.00     0.126 C 
BRANCH  27  28
ATOM     28  C   UNL d   1     -46.568  30.134  37.874  0.00  0.00     0.027 C 
ATOM     29  C   UNL d   1     -45.898  30.113  38.351  0.00  0.00     0.002 C 
ENDBRANCH  27  28
ENDBRANCH  26  27
ENDBRANCH  24  26
ENDBRANCH   1  24
TORSDOF 11
ENDMDL
MODEL 2
REMARK VINA RESULT:      79.8      0.868      2.671
REMARK  11 active torsions:
REMARK  status: ('A' for Active; 'I' for Inactive)
REMARK    1  A    between atoms: C_7  and  C_1 
REMARK    2  A    between atoms: C_8  and  C_2 
REMARK    3  A    between atoms: S_9  and  C_3 
REMARK    4  A    between atoms: C_11  and  C_4 
REMARK    5  A    between atoms: O_20  and  C_7 
REMARK    6  A    between atoms: C_15  and  S_9 
REMARK    7  A    between atoms: C_12  and  C_15 
REMARK    8  A    between atoms: O_24  and  C_12 
REMARK    9  A    between atoms: C_18  and  C_26 
REMARK   10  A    between atoms: C_26  and  O_20 
REMARK   11  A    between atoms: C_27  and  O_24 
ROOT
ATOM      1  C   UNL d   1     -48.554  30.319  34.477  0.00  0.00     0.081 A 
ATOM      2  C   UNL d   1     -48.382  28.913  34.705  0.00  0.00     0.045 A 
ATOM      3  C   UNL d   1     -48.931  28.754  34.074  0.00  0.00     0.112 A 
ATOM      4  C   UNL d   1     -48.205  29.697  34.893  0.00  0.00     0.010 A 
ATOM      5  C   UNL d   1     -49.088  30.164  33.864  0.00  0.00     0.087 A 
ATOM      6  N   UNL d   1     -49.270  29.389  33.670  0.00  0.00    -0.239 NA
ATOM      7  C   UNL d   1     -49.451  30.771  33.433  0.00  0.00     0.021 C 
ENDROOT
BRANCH   3   8
ATOM      8  S   UNL d   1     -49.148  27.963  33.840  0.00  0.00    -0.062 SA
BRANCH   8   9
ATOM      9  C   UNL d   1     -49.905  27.700  34.007  0.00  0.00     0.105 C 
BRANCH   9  10
ATOM     10  C   UNL d   1     -50.218  27.074  33.562  0.00  0.00     0.307 C 
ATOM     11  O   UNL d   1     -49.746  26.435  33.365  0.00  0.00    -0.258 OA
BRANCH  10  12
ATOM     12  O   UNL d   1     -50.996  27.101  33.324  0.00  0.00    -0.271 OA
BRANCH  12  13
ATOM     13  C   UNL d   1     -51.440  26.409  33.307  0.00  0.00     0.126 C 
ATOM     14  C   UNL d   1     -51.814  26.152  33.991  0.00  0.00     0.029 C 
ENDBRANCH  12  13
ENDBRANCH  10  12
ENDBRANCH   9  10
ENDBRANCH   8   9
ENDBRANCH   3   8
BRANCH   2  15
ATOM     15  C   UNL d   1     -48.011  28.292  35.146  0.00  0.00     0.124 C 
ATOM     16  N   UNL d   1     -47.327  27.951  34.867  0.00  0.00    -0.146 N 
ENDBRANCH   2  15
BRANCH   4  17
ATOM     17  C   UNL d   1     -47.674  29.851  35.503  0.00  0.00     0.000 A 
ATOM     18  C   UNL d   1     -46.874  29.955  35.321  0.00  0.00     0.000 A 
ATOM     19  C   UNL d   1     -46.326  30.109  35.908  0.00  0.00     0.000 A 
ATOM     20  C   UNL d   1     -46.601  30.162  36.735  0.00  0.00     0.000 A 
ATOM     21  C   UNL d   1     -47.403  30.055  36.897  0.00  0.00     0.000 A 
ATOM     22  C   UNL d   1     -46.079  30.315  37.352  0.00  0.00     0.000 C 
ATOM     23  C   UNL d   1     -47.937  29.900  36.284  0.00  0.00     0.000 A 
ENDBRANCH   4  17
BRANCH   1  24
ATOM     24  C   UNL d   1     -48.357  31.121  34.689  0.00  0.00     0.302 C 
ATOM     25  O   UNL d   1     -48.712  31.483  35.337  0.00  0.00    -0.259 OA
BRANCH  24  26
ATOM     26  O   UNL d   1     -47.809  31.521  34.237  0.00  0.00    -0.271 OA
BRANCH  26  27
ATOM     27  C   UNL d   1     -47.926  32.317  34.034  0.00  0.00     0.126 C 
BRANCH  27  28
ATOM     28  C   UNL d   1     -47.316  32.759  33.710  0.00  0.00     0.027 C 
ATOM     29  C   UNL d   1     -47.348  33.581  33.714  0.00  0.00     0.002 C 
ENDBRANCH  27  28
ENDBRANCH  26  27
ENDBRANCH  24  26
ENDBRANCH   1  24
TORSDOF 11
ENDMDL
