MODEL 1
REMARK VINA RESULT:      53.0      0.000      0.000
REMARK  3 active torsions:
REMARK  status: ('A' for Active; 'I' for Inactive)
REMARK    1  A    between atoms: N_4  and  C_1 
REMARK    2  A    between atoms: C_11  and  C_3 
REMARK       I    between atoms: C_5  and  N_4 
REMARK    3  A    between atoms: C_8  and  C_5 
ROOT
ATOM      1  N   UNL d   1      60.117  49.699  51.998  0.00  0.00    -0.183 NA
ATOM      2  C   UNL d   1      60.792  49.222  52.007  0.00  0.00     0.281 C 
ATOM      3  O   UNL d   1      61.286  49.236  52.675  0.00  0.00    -0.265 OA
ENDROOT
BRANCH   1   4
ATOM      4  C   UNL d   1      59.614  49.701  51.347  0.00  0.00     0.197 A 
ATOM      5  N   UNL d   1      58.787  49.699  51.377  0.00  0.00    -0.219 NA
ATOM      6  C   UNL d   1      58.502  49.703  50.593  0.00  0.00     0.108 A 
ATOM      7  C   UNL d   1      59.156  49.708  50.086  0.00  0.00     0.059 A 
ATOM      8  S   UNL d   1      59.845  49.706  50.553  0.00  0.00    -0.046 SA
BRANCH   6   9
ATOM      9  C   UNL d   1      57.701  49.703  50.366  0.00  0.00     0.100 A 
ATOM     10  N   UNL d   1      57.502  49.708  49.572  0.00  0.00    -0.242 NA
ATOM     11  C   UNL d   1      56.711  49.707  49.337  0.00  0.00     0.099 A 
ATOM     12  C   UNL d   1      56.129  49.702  49.919  0.00  0.00     0.021 A 
ATOM     13  C   UNL d   1      56.329  49.697  50.708  0.00  0.00     0.003 A 
ATOM     14  C   UNL d   1      57.110  49.697  50.951  0.00  0.00     0.021 A 
ENDBRANCH   6   9
ENDBRANCH   1   4
BRANCH   2  15
ATOM     15  C   UNL d   1      60.944  48.747  51.335  0.00  0.00     0.060 A 
ATOM     16  C   UNL d   1      60.965  47.928  51.402  0.00  0.00     0.032 A 
ATOM     17  C   UNL d   1      61.115  47.457  50.741  0.00  0.00     0.123 A 
ATOM     18  O   UNL d   1      61.136  46.633  50.806  0.00  0.00    -0.301 OA
ATOM     19  C   UNL d   1      61.245  47.828  50.004  0.00  0.00     0.123 A 
ATOM     20  C   UNL d   1      61.287  46.165  50.140  0.00  0.00     0.149 A 
ATOM     21  C   UNL d   1      61.418  46.534  49.399  0.00  0.00     0.149 A 
ATOM     22  O   UNL d   1      61.397  47.353  49.332  0.00  0.00    -0.301 OA
ATOM     23  C   UNL d   1      61.223  48.644  49.943  0.00  0.00     0.027 A 
ATOM     24  C   UNL d   1      61.073  49.108  50.606  0.00  0.00     0.007 A 
ENDBRANCH   2  15
TORSDOF 3
ENDMDL
