MODEL 1
REMARK VINA RESULT:      41.6      0.000      0.000
REMARK  6 active torsions:
REMARK  status: ('A' for Active; 'I' for Inactive)
REMARK    1  A    between atoms: C_7  and  C_1 
REMARK    2  A    between atoms: N_6  and  C_3 
REMARK    3  A    between atoms: N_8  and  N_6 
REMARK    4  A    between atoms: O_12  and  C_7 
REMARK    5  A    between atoms: C_9  and  N_8 
REMARK    6  A    between atoms: C_18  and  O_12 
ROOT
ATOM      1  C   UNL d   1      60.813  48.435  50.986  0.00  0.00     0.084 A 
ATOM      2  N   UNL d   1      60.105  48.966  51.927  0.00  0.00    -0.225 NA
ATOM      3  C   UNL d   1      59.776  49.211  51.217  0.00  0.00     0.184 A 
ATOM      4  C   UNL d   1      60.754  48.480  51.778  0.00  0.00     0.088 A 
ATOM      5  C   UNL d   1      60.233  48.868  50.621  0.00  0.00     0.044 A 
ATOM      6  C   UNL d   1      61.269  48.096  52.305  0.00  0.00     0.021 C 
ATOM      7  C   UNL d   1      60.109  48.960  49.808  0.00  0.00     0.003 C 
ENDROOT
BRANCH   3   8
ATOM      8  N   UNL d   1      59.145  49.683  51.029  0.00  0.00    -0.129 NA
BRANCH   8   9
ATOM      9  N   UNL d   1      58.488  49.389  50.611  0.00  0.00    -0.147 NA
BRANCH   9  10
ATOM     10  C   UNL d   1      57.700  49.488  50.877  0.00  0.00     0.103 A 
ATOM     11  C   UNL d   1      57.085  49.612  50.348  0.00  0.00     0.019 A 
ATOM     12  C   UNL d   1      57.243  49.644  49.486  0.00  0.00     0.002 C 
ATOM     13  C   UNL d   1      56.319  49.708  50.606  0.00  0.00     0.002 A 
ATOM     14  C   UNL d   1      56.168  49.679  51.406  0.00  0.00     0.000 A 
ATOM     15  C   UNL d   1      56.746  49.559  51.950  0.00  0.00     0.002 A 
ATOM     16  C   UNL d   1      57.512  49.464  51.680  0.00  0.00     0.021 A 
ENDBRANCH   9  10
ENDBRANCH   8   9
ENDBRANCH   3   8
BRANCH   1  17
ATOM     17  C   UNL d   1      61.420  47.980  50.602  0.00  0.00     0.302 C 
ATOM     18  O   UNL d   1      62.161  48.363  50.451  0.00  0.00    -0.259 OA
BRANCH  17  19
ATOM     19  O   UNL d   1      61.285  47.205  50.389  0.00  0.00    -0.271 OA
BRANCH  19  20
ATOM     20  C   UNL d   1      61.814  46.834  49.853  0.00  0.00     0.126 C 
ATOM     21  C   UNL d   1      61.577  46.733  49.051  0.00  0.00     0.029 C 
ENDBRANCH  19  20
ENDBRANCH  17  19
ENDBRANCH   1  17
TORSDOF 6
ENDMDL
