MODEL 1
REMARK VINA RESULT:      -8.4      0.000      0.000
REMARK  4 active torsions:
REMARK  status: ('A' for Active; 'I' for Inactive)
REMARK       I    between atoms: N_2  and  C_1 
REMARK    1  A    between atoms: C_4  and  C_1 
REMARK    2  A    between atoms: C_5  and  N_3 
REMARK    3  A    between atoms: O_21  and  C_8 
REMARK    4  A    between atoms: O_22  and  C_15 
ROOT
ATOM      1  C   UNL d   1      52.592  33.683  52.920  0.00  0.00     0.265 C 
ATOM      2  N   UNL d   1      51.782  33.822  52.905  0.00  0.00    -0.269 N 
ATOM      3  N   UNL d   1      50.171  34.101  52.876  0.00  0.00    -0.301 N 
ATOM      4  C   UNL d   1      51.500  34.530  52.607  0.00  0.00     0.102 A 
ATOM      5  C   UNL d   1      51.268  33.252  53.189  0.00  0.00     0.102 A 
ATOM      6  C   UNL d   1      50.459  33.392  53.174  0.00  0.00     0.100 A 
ATOM      7  C   UNL d   1      50.685  34.667  52.593  0.00  0.00     0.100 A 
ATOM      8  O   UNL d   1      53.115  34.252  52.635  0.00  0.00    -0.267 OA
ENDROOT
BRANCH   1   9
ATOM      9  C   UNL d   1      52.880  32.970  53.220  0.00  0.00     0.059 A 
ATOM     10  C   UNL d   1      53.254  32.955  53.958  0.00  0.00     0.031 A 
ATOM     11  C   UNL d   1      53.548  32.233  54.266  0.00  0.00     0.116 A 
ATOM     12  C   UNL d   1      53.464  31.538  53.835  0.00  0.00     0.116 A 
ATOM     13  C   UNL d   1      53.085  31.551  53.087  0.00  0.00     0.026 A 
ATOM     14  C   UNL d   1      52.791  32.264  52.775  0.00  0.00     0.007 A 
BRANCH  11  15
ATOM     15  O   UNL d   1      53.917  32.224  54.995  0.00  0.00    -0.326 OA
ATOM     16  C   UNL d   1      54.273  32.906  55.295  0.00  0.00     0.181 C 
ENDBRANCH  11  15
BRANCH  12  17
ATOM     17  O   UNL d   1      53.751  30.827  54.135  0.00  0.00    -0.326 OA
ATOM     18  C   UNL d   1      53.548  30.113  53.774  0.00  0.00     0.181 C 
ENDBRANCH  12  17
ENDBRANCH   1   9
BRANCH   3  19
ATOM     19  C   UNL d   1      49.535  34.597  52.692  0.00  0.00     0.064 A 
ATOM     20  C   UNL d   1      49.160  34.530  51.974  0.00  0.00     0.018 A 
ATOM     21  C   UNL d   1      48.528  35.021  51.787  0.00  0.00     0.001 A 
ATOM     22  C   UNL d   1      48.153  34.947  51.057  0.00  0.00     0.000 C 
ATOM     23  C   UNL d   1      48.274  35.586  52.333  0.00  0.00     0.000 A 
ATOM     24  C   UNL d   1      48.656  35.652  53.059  0.00  0.00     0.002 A 
ATOM     25  C   UNL d   1      47.639  36.084  52.152  0.00  0.00     0.000 C 
ATOM     26  C   UNL d   1      49.291  35.160  53.248  0.00  0.00     0.018 A 
ENDBRANCH   3  19
TORSDOF 4
ENDMDL
MODEL 2
REMARK VINA RESULT:      -7.7      0.729      1.615
REMARK  4 active torsions:
REMARK  status: ('A' for Active; 'I' for Inactive)
REMARK       I    between atoms: N_2  and  C_1 
REMARK    1  A    between atoms: C_4  and  C_1 
REMARK    2  A    between atoms: C_5  and  N_3 
REMARK    3  A    between atoms: O_21  and  C_8 
REMARK    4  A    between atoms: O_22  and  C_15 
ROOT
ATOM      1  C   UNL d   1      51.986  33.833  52.342  0.00  0.00     0.265 C 
ATOM      2  N   UNL d   1      51.234  34.113  52.519  0.00  0.00    -0.269 N 
ATOM      3  N   UNL d   1      49.737  34.671  52.871  0.00  0.00    -0.301 N 
ATOM      4  C   UNL d   1      50.776  34.444  51.926  0.00  0.00     0.102 A 
ATOM      5  C   UNL d   1      50.952  34.059  53.285  0.00  0.00     0.102 A 
ATOM      6  C   UNL d   1      50.200  34.339  53.461  0.00  0.00     0.100 A 
ATOM      7  C   UNL d   1      50.020  34.725  52.107  0.00  0.00     0.100 A 
ATOM      8  O   UNL d   1      52.276  33.885  51.572  0.00  0.00    -0.267 OA
ENDROOT
BRANCH   1   9
ATOM      9  C   UNL d   1      52.449  33.500  52.937  0.00  0.00     0.059 A 
ATOM     10  C   UNL d   1      52.529  32.677  52.986  0.00  0.00     0.031 A 
ATOM     11  C   UNL d   1      52.999  32.335  53.589  0.00  0.00     0.116 A 
ATOM     12  C   UNL d   1      53.383  32.817  54.133  0.00  0.00     0.116 A 
ATOM     13  C   UNL d   1      53.304  33.650  54.086  0.00  0.00     0.026 A 
ATOM     14  C   UNL d   1      52.839  33.997  53.490  0.00  0.00     0.007 A 
BRANCH  11  15
ATOM     15  O   UNL d   1      53.074  31.522  53.632  0.00  0.00    -0.326 OA
ATOM     16  C   UNL d   1      52.817  31.043  53.011  0.00  0.00     0.181 C 
ENDBRANCH  11  15
BRANCH  12  17
ATOM     17  O   UNL d   1      53.846  32.483  54.728  0.00  0.00    -0.326 OA
ATOM     18  C   UNL d   1      54.279  32.968  55.236  0.00  0.00     0.181 C 
ENDBRANCH  12  17
ENDBRANCH   1   9
BRANCH   3  19
ATOM     19  C   UNL d   1      49.032  35.028  52.625  0.00  0.00     0.064 A 
ATOM     20  C   UNL d   1      48.674  35.588  53.093  0.00  0.00     0.018 A 
ATOM     21  C   UNL d   1      47.974  35.945  52.853  0.00  0.00     0.001 A 
ATOM     22  C   UNL d   1      47.618  36.513  53.334  0.00  0.00     0.000 C 
ATOM     23  C   UNL d   1      47.632  35.733  52.133  0.00  0.00     0.000 A 
ATOM     24  C   UNL d   1      47.997  35.165  51.661  0.00  0.00     0.002 A 
ATOM     25  C   UNL d   1      46.927  36.087  51.885  0.00  0.00     0.000 C 
ATOM     26  C   UNL d   1      48.700  34.805  51.900  0.00  0.00     0.018 A 
ENDBRANCH   3  19
TORSDOF 4
ENDMDL
MODEL 3
REMARK VINA RESULT:      -6.6      1.572      5.328
REMARK  4 active torsions:
REMARK  status: ('A' for Active; 'I' for Inactive)
REMARK       I    between atoms: N_2  and  C_1 
REMARK    1  A    between atoms: C_4  and  C_1 
REMARK    2  A    between atoms: C_5  and  N_3 
REMARK    3  A    between atoms: O_21  and  C_8 
REMARK    4  A    between atoms: O_22  and  C_15 
ROOT
ATOM      1  C   UNL d   1      51.292  34.293  52.338  0.00  0.00     0.265 C 
ATOM      2  N   UNL d   1      51.517  33.564  52.644  0.00  0.00    -0.269 N 
ATOM      3  N   UNL d   1      51.967  32.115  53.254  0.00  0.00    -0.301 N 
ATOM      4  C   UNL d   1      52.276  33.287  52.509  0.00  0.00     0.102 A 
ATOM      5  C   UNL d   1      50.983  33.126  53.081  0.00  0.00     0.102 A 
ATOM      6  C   UNL d   1      51.208  32.398  53.387  0.00  0.00     0.100 A 
ATOM      7  C   UNL d   1      52.499  32.554  52.818  0.00  0.00     0.100 A 
ATOM      8  O   UNL d   1      51.826  34.740  51.897  0.00  0.00    -0.267 OA
ENDROOT
BRANCH   1   9
ATOM      9  C   UNL d   1      50.529  34.575  52.473  0.00  0.00     0.059 A 
ATOM     10  C   UNL d   1      49.964  34.540  51.869  0.00  0.00     0.031 A 
ATOM     11  C   UNL d   1      49.188  34.827  52.002  0.00  0.00     0.116 A 
ATOM     12  C   UNL d   1      48.987  35.144  52.734  0.00  0.00     0.116 A 
ATOM     13  C   UNL d   1      49.558  35.180  53.347  0.00  0.00     0.026 A 
ATOM     14  C   UNL d   1      50.330  34.898  53.222  0.00  0.00     0.007 A 
BRANCH  11  15
ATOM     15  O   UNL d   1      48.633  34.790  51.403  0.00  0.00    -0.326 OA
ATOM     16  C   UNL d   1      48.827  34.459  50.672  0.00  0.00     0.181 C 
ENDBRANCH  11  15
BRANCH  12  17
ATOM     17  O   UNL d   1      48.225  35.426  52.868  0.00  0.00    -0.326 OA
ATOM     18  C   UNL d   1      48.078  35.935  53.500  0.00  0.00     0.181 C 
ENDBRANCH  12  17
ENDBRANCH   1   9
BRANCH   3  19
ATOM     19  C   UNL d   1      52.543  31.529  53.352  0.00  0.00     0.064 A 
ATOM     20  C   UNL d   1      52.379  30.759  53.151  0.00  0.00     0.018 A 
ATOM     21  C   UNL d   1      52.948  30.173  53.247  0.00  0.00     0.001 A 
ATOM     22  C   UNL d   1      52.774  29.394  53.041  0.00  0.00     0.000 C 
ATOM     23  C   UNL d   1      53.691  30.370  53.549  0.00  0.00     0.000 A 
ATOM     24  C   UNL d   1      53.853  31.151  53.752  0.00  0.00     0.002 A 
ATOM     25  C   UNL d   1      54.268  29.787  53.648  0.00  0.00     0.000 C 
ATOM     26  C   UNL d   1      53.284  31.740  53.656  0.00  0.00     0.018 A 
ENDBRANCH   3  19
TORSDOF 4
ENDMDL
MODEL 4
REMARK VINA RESULT:      -6.4      2.755      6.102
REMARK  4 active torsions:
REMARK  status: ('A' for Active; 'I' for Inactive)
REMARK       I    between atoms: N_2  and  C_1 
REMARK    1  A    between atoms: C_4  and  C_1 
REMARK    2  A    between atoms: C_5  and  N_3 
REMARK    3  A    between atoms: O_21  and  C_8 
REMARK    4  A    between atoms: O_22  and  C_15 
ROOT
ATOM      1  C   UNL d   1      48.057  36.023  53.260  0.00  0.00     0.265 C 
ATOM      2  N   UNL d   1      48.655  35.501  53.053  0.00  0.00    -0.269 N 
ATOM      3  N   UNL d   1      49.848  34.460  52.642  0.00  0.00    -0.301 N 
ATOM      4  C   UNL d   1      49.345  35.481  53.495  0.00  0.00     0.102 A 
ATOM      5  C   UNL d   1      48.556  35.006  52.410  0.00  0.00     0.102 A 
ATOM      6  C   UNL d   1      49.155  34.483  52.203  0.00  0.00     0.100 A 
ATOM      7  C   UNL d   1      49.945  34.954  53.284  0.00  0.00     0.100 A 
ATOM      8  O   UNL d   1      48.150  36.525  53.908  0.00  0.00    -0.267 OA
ENDROOT
BRANCH   1   9
ATOM      9  C   UNL d   1      47.361  36.046  52.818  0.00  0.00     0.059 A 
ATOM     10  C   UNL d   1      46.658  35.746  53.138  0.00  0.00     0.031 A 
ATOM     11  C   UNL d   1      45.950  35.767  52.692  0.00  0.00     0.116 A 
ATOM     12  C   UNL d   1      45.952  36.085  51.934  0.00  0.00     0.116 A 
ATOM     13  C   UNL d   1      46.661  36.389  51.607  0.00  0.00     0.026 A 
ATOM     14  C   UNL d   1      47.369  36.372  52.044  0.00  0.00     0.007 A 
BRANCH  11  15
ATOM     15  O   UNL d   1      45.260  35.470  53.013  0.00  0.00    -0.326 OA
ATOM     16  C   UNL d   1      45.175  35.394  53.830  0.00  0.00     0.181 C 
ENDBRANCH  11  15
BRANCH  12  17
ATOM     17  O   UNL d   1      45.256  36.107  51.492  0.00  0.00    -0.326 OA
ATOM     18  C   UNL d   1      45.285  36.025  50.672  0.00  0.00     0.181 C 
ENDBRANCH  12  17
ENDBRANCH   1   9
BRANCH   3  19
ATOM     19  C   UNL d   1      50.600  34.145  52.781  0.00  0.00     0.064 A 
ATOM     20  C   UNL d   1      51.254  34.480  52.432  0.00  0.00     0.018 A 
ATOM     21  C   UNL d   1      52.003  34.171  52.568  0.00  0.00     0.001 A 
ATOM     22  C   UNL d   1      52.660  34.517  52.210  0.00  0.00     0.000 C 
ATOM     23  C   UNL d   1      52.092  33.515  53.061  0.00  0.00     0.000 A 
ATOM     24  C   UNL d   1      51.429  33.178  53.413  0.00  0.00     0.002 A 
ATOM     25  C   UNL d   1      52.843  33.199  53.202  0.00  0.00     0.000 C 
ATOM     26  C   UNL d   1      50.676  33.487  53.278  0.00  0.00     0.018 A 
ENDBRANCH   3  19
TORSDOF 4
ENDMDL
MODEL 5
REMARK VINA RESULT:      -5.6      1.825      5.298
REMARK  4 active torsions:
REMARK  status: ('A' for Active; 'I' for Inactive)
REMARK       I    between atoms: N_2  and  C_1 
REMARK    1  A    between atoms: C_4  and  C_1 
REMARK    2  A    between atoms: C_5  and  N_3 
REMARK    3  A    between atoms: O_21  and  C_8 
REMARK    4  A    between atoms: O_22  and  C_15 
ROOT
ATOM      1  C   UNL d   1      50.342  33.580  53.036  0.00  0.00     0.265 C 
ATOM      2  N   UNL d   1      51.104  33.814  53.238  0.00  0.00    -0.269 N 
ATOM      3  N   UNL d   1      52.620  34.278  53.639  0.00  0.00    -0.301 N 
ATOM      4  C   UNL d   1      51.578  33.309  53.674  0.00  0.00     0.102 A 
ATOM      5  C   UNL d   1      51.379  34.547  53.000  0.00  0.00     0.102 A 
ATOM      6  C   UNL d   1      52.140  34.780  53.202  0.00  0.00     0.100 A 
ATOM      7  C   UNL d   1      52.344  33.547  53.875  0.00  0.00     0.100 A 
ATOM      8  O   UNL d   1      50.059  32.843  53.272  0.00  0.00    -0.267 OA
ENDROOT
BRANCH   1   9
ATOM      9  C   UNL d   1      49.861  34.086  52.597  0.00  0.00     0.059 A 
ATOM     10  C   UNL d   1      49.436  34.686  52.978  0.00  0.00     0.031 A 
ATOM     11  C   UNL d   1      48.947  35.202  52.535  0.00  0.00     0.116 A 
ATOM     12  C   UNL d   1      48.888  35.112  51.719  0.00  0.00     0.116 A 
ATOM     13  C   UNL d   1      49.317  34.506  51.331  0.00  0.00     0.026 A 
ATOM     14  C   UNL d   1      49.805  33.990  51.764  0.00  0.00     0.007 A 
BRANCH  11  15
ATOM     15  O   UNL d   1      48.530  35.792  52.916  0.00  0.00    -0.326 OA
ATOM     16  C   UNL d   1      48.268  35.688  53.692  0.00  0.00     0.181 C 
ENDBRANCH  11  15
BRANCH  12  17
ATOM     17  O   UNL d   1      48.408  35.618  51.281  0.00  0.00    -0.326 OA
ATOM     18  C   UNL d   1      47.938  35.318  50.672  0.00  0.00     0.181 C 
ENDBRANCH  12  17
ENDBRANCH   1   9
BRANCH   3  19
ATOM     19  C   UNL d   1      53.340  34.117  54.012  0.00  0.00     0.064 A 
ATOM     20  C   UNL d   1      53.882  33.624  53.658  0.00  0.00     0.018 A 
ATOM     21  C   UNL d   1      54.599  33.461  54.025  0.00  0.00     0.001 A 
ATOM     22  C   UNL d   1      55.142  32.961  53.660  0.00  0.00     0.000 C 
ATOM     23  C   UNL d   1      54.770  33.801  54.758  0.00  0.00     0.000 A 
ATOM     24  C   UNL d   1      54.220  34.300  55.114  0.00  0.00     0.002 A 
ATOM     25  C   UNL d   1      55.490  33.642  55.133  0.00  0.00     0.000 C 
ATOM     26  C   UNL d   1      53.500  34.464  54.747  0.00  0.00     0.018 A 
ENDBRANCH   3  19
TORSDOF 4
ENDMDL
