MODEL 1
REMARK VINA RESULT:      -5.0      0.000      0.000
REMARK  5 active torsions:
REMARK  status: ('A' for Active; 'I' for Inactive)
REMARK    1  A    between atoms: C_7  and  C_1 
REMARK    2  A    between atoms: N_8  and  C_7 
REMARK    3  A    between atoms: C_9  and  N_8 
REMARK    4  A    between atoms: O_17  and  C_13 
REMARK    5  A    between atoms: O_20  and  C_15 
ROOT
ATOM      1  C   UNL d   1      57.285  -0.553  31.761  0.00  0.00     0.145 A 
ATOM      2  C   UNL d   1      57.436   0.193  32.079  0.00  0.00     0.305 A 
ATOM      3  C   UNL d   1      56.633  -0.987  32.016  0.00  0.00     0.305 A 
ATOM      4  O   UNL d   1      56.131  -0.675  32.589  0.00  0.00    -0.269 OA
ATOM      5  O   UNL d   1      56.933   0.497  32.648  0.00  0.00    -0.269 OA
ATOM      6  C   UNL d   1      56.281   0.064  32.902  0.00  0.00     0.242 A 
ATOM      7  O   UNL d   1      56.478  -1.743  31.696  0.00  0.00    -0.259 OA
ATOM      8  O   UNL d   1      58.087   0.626  31.825  0.00  0.00    -0.259 OA
ATOM      9  C   UNL d   1      55.817  -0.616  32.867  0.00  0.00     0.035 A 
ATOM     10  C   UNL d   1      56.074   0.682  33.424  0.00  0.00     0.035 A 
ATOM     11  C   UNL d   1      55.406   0.612  33.902  0.00  0.00     0.001 A 
ATOM     12  C   UNL d   1      55.150  -0.688  33.344  0.00  0.00     0.001 A 
ATOM     13  C   UNL d   1      54.943  -0.070  33.865  0.00  0.00    -0.000 A 
ENDROOT
BRANCH   1  14
ATOM     14  C   UNL d   1      57.792  -0.869  31.183  0.00  0.00     0.110 C 
BRANCH  14  15
ATOM     15  N   UNL d   1      57.751  -0.598  30.405  0.00  0.00    -0.242 NA
BRANCH  15  16
ATOM     16  C   UNL d   1      58.183  -0.979  29.815  0.00  0.00     0.106 A 
ATOM     17  C   UNL d   1      58.330  -1.787  29.867  0.00  0.00     0.045 A 
ATOM     18  C   UNL d   1      58.759  -2.167  29.283  0.00  0.00     0.096 A 
ATOM     19  C   UNL d   1      59.049  -1.735  28.631  0.00  0.00     0.026 A 
ATOM     20  C   UNL d   1      58.902  -0.927  28.579  0.00  0.00     0.028 A 
ATOM     21  C   UNL d   1      58.467  -0.547  29.172  0.00  0.00     0.112 A 
BRANCH  18  22
ATOM     22  O   UNL d   1      58.904  -2.973  29.339  0.00  0.00    -0.328 OA
ATOM     23  C   UNL d   1      58.913  -3.442  28.661  0.00  0.00     0.181 C 
ENDBRANCH  18  22
BRANCH  21  24
ATOM     24  O   UNL d   1      58.320   0.261  29.120  0.00  0.00    -0.327 OA
ATOM     25  C   UNL d   1      58.565   0.682  28.460  0.00  0.00     0.181 C 
ENDBRANCH  21  24
ENDBRANCH  15  16
ENDBRANCH  14  15
ENDBRANCH   1  14
TORSDOF 5
ENDMDL
MODEL 2
REMARK VINA RESULT:      -3.6      1.116      4.898
REMARK  5 active torsions:
REMARK  status: ('A' for Active; 'I' for Inactive)
REMARK    1  A    between atoms: C_7  and  C_1 
REMARK    2  A    between atoms: N_8  and  C_7 
REMARK    3  A    between atoms: C_9  and  N_8 
REMARK    4  A    between atoms: O_17  and  C_13 
REMARK    5  A    between atoms: O_20  and  C_15 
ROOT
ATOM      1  C   UNL d   1      57.267  -0.659  31.158  0.00  0.00     0.145 A 
ATOM      2  C   UNL d   1      57.326  -1.474  31.046  0.00  0.00     0.305 A 
ATOM      3  C   UNL d   1      57.690  -0.144  30.675  0.00  0.00     0.305 A 
ATOM      4  O   UNL d   1      58.173  -0.444  30.079  0.00  0.00    -0.269 OA
ATOM      5  O   UNL d   1      57.807  -1.765  30.452  0.00  0.00    -0.269 OA
ATOM      6  C   UNL d   1      58.230  -1.250  29.969  0.00  0.00     0.242 A 
ATOM      7  O   UNL d   1      57.632   0.682  30.786  0.00  0.00    -0.259 OA
ATOM      8  O   UNL d   1      56.903  -1.989  31.529  0.00  0.00    -0.259 OA
ATOM      9  C   UNL d   1      58.441  -0.484  29.754  0.00  0.00     0.035 A 
ATOM     10  C   UNL d   1      58.548  -1.901  29.554  0.00  0.00     0.035 A 
ATOM     11  C   UNL d   1      59.072  -1.776  28.929  0.00  0.00     0.001 A 
ATOM     12  C   UNL d   1      58.964  -0.357  29.131  0.00  0.00     0.001 A 
ATOM     13  C   UNL d   1      59.281  -1.008  28.715  0.00  0.00    -0.000 A 
ENDROOT
BRANCH   1  14
ATOM     14  C   UNL d   1      56.780  -0.356  31.760  0.00  0.00     0.110 C 
BRANCH  14  15
ATOM     15  N   UNL d   1      57.117  -0.005  32.427  0.00  0.00    -0.242 NA
BRANCH  15  16
ATOM     16  C   UNL d   1      56.637   0.215  33.060  0.00  0.00     0.106 A 
ATOM     17  C   UNL d   1      55.818   0.210  32.979  0.00  0.00     0.045 A 
ATOM     18  C   UNL d   1      55.340   0.428  33.606  0.00  0.00     0.096 A 
ATOM     19  C   UNL d   1      55.681   0.657  34.331  0.00  0.00     0.026 A 
ATOM     20  C   UNL d   1      56.500   0.663  34.412  0.00  0.00     0.028 A 
ATOM     21  C   UNL d   1      56.981   0.441  33.775  0.00  0.00     0.112 A 
BRANCH  18  22
ATOM     22  O   UNL d   1      54.523   0.421  33.521  0.00  0.00    -0.328 OA
ATOM     23  C   UNL d   1      54.039   0.682  34.136  0.00  0.00     0.181 C 
ENDBRANCH  18  22
BRANCH  21  24
ATOM     24  O   UNL d   1      57.800   0.447  33.856  0.00  0.00    -0.327 OA
ATOM     25  C   UNL d   1      58.141   0.682  34.563  0.00  0.00     0.181 C 
ENDBRANCH  21  24
ENDBRANCH  15  16
ENDBRANCH  14  15
ENDBRANCH   1  14
TORSDOF 5
ENDMDL
MODEL 3
REMARK VINA RESULT:      -3.3      1.068      2.239
REMARK  5 active torsions:
REMARK  status: ('A' for Active; 'I' for Inactive)
REMARK    1  A    between atoms: C_7  and  C_1 
REMARK    2  A    between atoms: N_8  and  C_7 
REMARK    3  A    between atoms: C_9  and  N_8 
REMARK    4  A    between atoms: O_17  and  C_13 
REMARK    5  A    between atoms: O_20  and  C_15 
ROOT
ATOM      1  C   UNL d   1      57.594  -0.640  30.932  0.00  0.00     0.145 A 
ATOM      2  C   UNL d   1      57.136  -1.317  31.051  0.00  0.00     0.305 A 
ATOM      3  C   UNL d   1      57.542  -0.009  31.458  0.00  0.00     0.305 A 
ATOM      4  O   UNL d   1      57.033  -0.053  32.104  0.00  0.00    -0.269 OA
ATOM      5  O   UNL d   1      56.633  -1.354  31.694  0.00  0.00    -0.269 OA
ATOM      6  C   UNL d   1      56.581  -0.723  32.220  0.00  0.00     0.242 A 
ATOM      7  O   UNL d   1      58.004   0.677  31.340  0.00  0.00    -0.259 OA
ATOM      8  O   UNL d   1      57.188  -1.948  30.525  0.00  0.00    -0.259 OA
ATOM      9  C   UNL d   1      56.814   0.031  32.456  0.00  0.00     0.035 A 
ATOM     10  C   UNL d   1      56.016  -1.143  32.669  0.00  0.00     0.035 A 
ATOM     11  C   UNL d   1      55.692  -0.803  33.347  0.00  0.00     0.001 A 
ATOM     12  C   UNL d   1      56.492   0.372  33.132  0.00  0.00     0.001 A 
ATOM     13  C   UNL d   1      55.927  -0.048  33.581  0.00  0.00    -0.000 A 
ENDROOT
BRANCH   1  14
ATOM     14  C   UNL d   1      58.108  -0.595  30.280  0.00  0.00     0.110 C 
BRANCH  14  15
ATOM     15  N   UNL d   1      58.632  -1.212  30.124  0.00  0.00    -0.242 NA
BRANCH  15  16
ATOM     16  C   UNL d   1      59.233  -1.109  29.568  0.00  0.00     0.106 A 
ATOM     17  C   UNL d   1      59.478  -0.351  29.361  0.00  0.00     0.045 A 
ATOM     18  C   UNL d   1      60.073  -0.246  28.810  0.00  0.00     0.096 A 
ATOM     19  C   UNL d   1      60.435  -0.909  28.455  0.00  0.00     0.026 A 
ATOM     20  C   UNL d   1      60.190  -1.666  28.662  0.00  0.00     0.028 A 
ATOM     21  C   UNL d   1      59.587  -1.768  29.220  0.00  0.00     0.112 A 
BRANCH  18  22
ATOM     22  O   UNL d   1      60.316   0.512  28.607  0.00  0.00    -0.328 OA
ATOM     23  C   UNL d   1      61.117   0.680  28.507  0.00  0.00     0.181 C 
ENDBRANCH  18  22
BRANCH  21  24
ATOM     24  O   UNL d   1      59.341  -2.526  29.427  0.00  0.00    -0.327 OA
ATOM     25  C   UNL d   1      59.790  -3.177  29.211  0.00  0.00     0.181 C 
ENDBRANCH  21  24
ENDBRANCH  15  16
ENDBRANCH  14  15
ENDBRANCH   1  14
TORSDOF 5
ENDMDL
MODEL 4
REMARK VINA RESULT:      -3.0      1.160      1.994
REMARK  5 active torsions:
REMARK  status: ('A' for Active; 'I' for Inactive)
REMARK    1  A    between atoms: C_7  and  C_1 
REMARK    2  A    between atoms: N_8  and  C_7 
REMARK    3  A    between atoms: C_9  and  N_8 
REMARK    4  A    between atoms: O_17  and  C_13 
REMARK    5  A    between atoms: O_20  and  C_15 
ROOT
ATOM      1  C   UNL d   1      57.442   0.454  31.672  0.00  0.00     0.145 A 
ATOM      2  C   UNL d   1      56.643   0.541  31.485  0.00  0.00     0.305 A 
ATOM      3  C   UNL d   1      57.681   0.428  32.459  0.00  0.00     0.305 A 
ATOM      4  O   UNL d   1      57.122   0.489  33.061  0.00  0.00    -0.269 OA
ATOM      5  O   UNL d   1      56.093   0.601  32.087  0.00  0.00    -0.269 OA
ATOM      6  C   UNL d   1      56.332   0.575  32.874  0.00  0.00     0.242 A 
ATOM      7  O   UNL d   1      58.489   0.340  32.652  0.00  0.00    -0.259 OA
ATOM      8  O   UNL d   1      56.404   0.567  30.698  0.00  0.00    -0.259 OA
ATOM      9  C   UNL d   1      56.929   0.510  33.437  0.00  0.00     0.035 A 
ATOM     10  C   UNL d   1      55.538   0.662  33.118  0.00  0.00     0.035 A 
ATOM     11  C   UNL d   1      55.353   0.682  33.921  0.00  0.00     0.001 A 
ATOM     12  C   UNL d   1      56.747   0.530  34.239  0.00  0.00     0.001 A 
ATOM     13  C   UNL d   1      55.953   0.617  34.483  0.00  0.00    -0.000 A 
ENDROOT
BRANCH   1  14
ATOM     14  C   UNL d   1      58.007   0.393  31.065  0.00  0.00     0.110 C 
BRANCH  14  15
ATOM     15  N   UNL d   1      57.994  -0.254  30.552  0.00  0.00    -0.242 NA
BRANCH  15  16
ATOM     16  C   UNL d   1      58.599  -0.351  30.001  0.00  0.00     0.106 A 
ATOM     17  C   UNL d   1      59.196   0.212  29.938  0.00  0.00     0.045 A 
ATOM     18  C   UNL d   1      59.797   0.118  29.392  0.00  0.00     0.096 A 
ATOM     19  C   UNL d   1      59.808  -0.552  28.895  0.00  0.00     0.026 A 
ATOM     20  C   UNL d   1      59.211  -1.115  28.957  0.00  0.00     0.028 A 
ATOM     21  C   UNL d   1      58.604  -1.016  29.511  0.00  0.00     0.112 A 
BRANCH  18  22
ATOM     22  O   UNL d   1      60.391   0.682  29.333  0.00  0.00    -0.328 OA
ATOM     23  C   UNL d   1      60.983   0.604  28.764  0.00  0.00     0.181 C 
ENDBRANCH  18  22
BRANCH  21  24
ATOM     24  O   UNL d   1      58.007  -1.579  29.574  0.00  0.00    -0.327 OA
ATOM     25  C   UNL d   1      58.191  -2.377  29.547  0.00  0.00     0.181 C 
ENDBRANCH  21  24
ENDBRANCH  15  16
ENDBRANCH  14  15
ENDBRANCH   1  14
TORSDOF 5
ENDMDL
