MODEL 1
REMARK VINA RESULT:      57.4      0.000      0.000
REMARK  4 active torsions:
REMARK  status: ('A' for Active; 'I' for Inactive)
REMARK    1  A    between atoms: S_6  and  C_1 
REMARK    2  A    between atoms: C_14  and  N_2 
REMARK    3  A    between atoms: C_7  and  S_6 
REMARK    4  A    between atoms: O_18  and  C_16 
ROOT
ATOM      1  C   UNL d   1      59.649  49.517  50.425  0.00  0.00     0.114 A 
ATOM      2  N   UNL d   1      58.995  49.516  49.922  0.00  0.00    -0.239 NA
ATOM      3  C   UNL d   1      58.247  49.580  50.252  0.00  0.00     0.084 A 
ATOM      4  C   UNL d   1      58.151  49.643  51.052  0.00  0.00     0.018 A 
ATOM      5  C   UNL d   1      58.799  49.644  51.554  0.00  0.00     0.004 A 
ATOM      6  C   UNL d   1      57.588  49.580  49.748  0.00  0.00     0.043 A 
ATOM      7  C   UNL d   1      59.553  49.579  51.226  0.00  0.00     0.026 A 
ATOM      8  C   UNL d   1      57.393  49.708  51.381  0.00  0.00     0.004 A 
ATOM      9  C   UNL d   1      56.840  49.644  50.078  0.00  0.00     0.096 A 
ATOM     10  C   UNL d   1      56.743  49.707  50.878  0.00  0.00     0.024 A 
ATOM     11  C   UNL d   1      58.702  49.707  52.365  0.00  0.00     0.000 C 
ENDROOT
BRANCH   1  12
ATOM     12  S   UNL d   1      60.467  49.456  50.197  0.00  0.00    -0.028 SA
BRANCH  12  13
ATOM     13  C   UNL d   1      60.691  49.186  51.001  0.00  0.00     0.220 A 
ATOM     14  N   UNL d   1      61.082  48.463  51.211  0.00  0.00    -0.186 N 
ATOM     15  N   UNL d   1      61.168  48.467  52.027  0.00  0.00    -0.038 NA
ATOM     16  N   UNL d   1      60.836  49.187  52.340  0.00  0.00    -0.022 NA
ATOM     17  N   UNL d   1      60.548  49.617  51.696  0.00  0.00    -0.101 NA
BRANCH  14  18
ATOM     18  C   UNL d   1      61.330  47.863  50.683  0.00  0.00     0.087 A 
ATOM     19  C   UNL d   1      60.890  47.141  50.666  0.00  0.00     0.019 A 
ATOM     20  C   UNL d   1      61.123  46.500  50.130  0.00  0.00     0.002 A 
ATOM     21  C   UNL d   1      61.788  46.618  49.636  0.00  0.00     0.000 A 
ATOM     22  C   UNL d   1      62.244  47.354  49.648  0.00  0.00     0.002 A 
ATOM     23  C   UNL d   1      61.980  47.955  50.189  0.00  0.00     0.019 A 
ENDBRANCH  14  18
ENDBRANCH  12  13
ENDBRANCH   1  12
BRANCH   9  24
ATOM     24  O   UNL d   1      56.191  49.643  49.576  0.00  0.00    -0.328 OA
ATOM     25  C   UNL d   1      56.239  49.288  48.848  0.00  0.00     0.181 C 
ENDBRANCH   9  24
TORSDOF 4
ENDMDL
