MODEL 1
REMARK VINA RESULT:      23.2      0.000      0.000
REMARK  5 active torsions:
REMARK  status: ('A' for Active; 'I' for Inactive)
REMARK    1  A    between atoms: N_2  and  S_1 
REMARK    2  A    between atoms: C_5  and  S_1 
REMARK    3  A    between atoms: C_3  and  N_2 
REMARK    4  A    between atoms: C_4  and  C_3 
REMARK       I    between atoms: N_8  and  C_4 
REMARK    5  A    between atoms: C_12  and  N_8 
ROOT
ATOM      1  N   UNL d   1      14.557  12.524  -0.803  0.00  0.00    -0.223 N 
ATOM      2  C   UNL d   1      15.364  12.344  -0.792  0.00  0.00     0.112 C 
ENDROOT
BRANCH   1   3
ATOM      3  S   UNL d   1      14.281  13.173  -0.375  0.00  0.00     0.272 S 
ATOM      4  O   UNL d   1      13.538  13.144  -0.017  0.00  0.00    -0.200 OA
ATOM      5  O   UNL d   1      14.970  13.006  -0.794  0.00  0.00    -0.200 OA
BRANCH   3   6
ATOM      6  C   UNL d   1      14.747  13.853  -0.303  0.00  0.00     0.104 A 
ATOM      7  C   UNL d   1      14.419  14.600  -0.439  0.00  0.00     0.013 A 
ATOM      8  C   UNL d   1      14.894  15.279  -0.365  0.00  0.00     0.001 A 
ATOM      9  C   UNL d   1      15.689  15.208  -0.155  0.00  0.00     0.000 A 
ATOM     10  C   UNL d   1      16.016  14.461  -0.019  0.00  0.00     0.001 A 
ATOM     11  C   UNL d   1      16.156  15.884  -0.082  0.00  0.00     0.000 C 
ATOM     12  C   UNL d   1      15.549  13.786  -0.092  0.00  0.00     0.013 A 
ENDBRANCH   3   6
ENDBRANCH   1   3
BRANCH   1  13
ATOM     13  C   UNL d   1      14.036  12.058  -1.240  0.00  0.00     0.154 C 
BRANCH  13  14
ATOM     14  C   UNL d   1      14.003  12.135  -2.060  0.00  0.00     0.298 C 
ATOM     15  N   UNL d   1      13.295  12.360  -2.423  0.00  0.00    -0.207 NA
ATOM     16  O   UNL d   1      14.677  11.988  -2.517  0.00  0.00    -0.264 OA
BRANCH  15  17
ATOM     17  C   UNL d   1      13.262  12.437  -3.243  0.00  0.00     0.085 A 
ATOM     18  C   UNL d   1      13.399  13.165  -3.592  0.00  0.00     0.019 A 
ATOM     19  C   UNL d   1      13.366  13.242  -4.413  0.00  0.00     0.002 A 
ATOM     20  C   UNL d   1      13.196  12.584  -4.881  0.00  0.00     0.000 A 
ATOM     21  C   UNL d   1      13.058  11.851  -4.525  0.00  0.00     0.002 A 
ATOM     22  C   UNL d   1      13.092  11.781  -3.708  0.00  0.00     0.019 A 
ENDBRANCH  15  17
ENDBRANCH  13  14
ENDBRANCH   1  13
TORSDOF 5
ENDMDL
