MODEL 1
REMARK VINA RESULT:      -2.2      0.000      0.000
REMARK  6 active torsions:
REMARK  status: ('A' for Active; 'I' for Inactive)
REMARK    1  A    between atoms: N_4  and  C_1 
REMARK    2  A    between atoms: N_8  and  C_1 
REMARK       I    between atoms: C_2  and  N_3 
REMARK    3  A    between atoms: C_6  and  C_2 
REMARK    4  A    between atoms: N_3  and  N_4 
REMARK    5  A    between atoms: C_17  and  N_8 
REMARK    6  A    between atoms: C_11  and  C_17 
ROOT
ATOM      1  C   UNL d   1      32.599  16.441 -24.664  0.00  0.00     0.297 C 
ATOM      2  N   UNL d   1      31.860  16.048 -24.732  0.00  0.00    -0.103 NA
ATOM      3  O   UNL d   1      33.237  16.168 -25.097  0.00  0.00    -0.264 OA
ENDROOT
BRANCH   1   4
ATOM      4  C   UNL d   1      32.677  17.104 -24.158  0.00  0.00     0.059 A 
ATOM      5  C   UNL d   1      32.503  17.847 -24.449  0.00  0.00     0.005 A 
ATOM      6  C   UNL d   1      32.577  18.506 -23.958  0.00  0.00     0.007 A 
ATOM      7  C   UNL d   1      32.824  18.414 -23.183  0.00  0.00     0.035 A 
ATOM      8  C   UNL d   1      33.003  17.659 -22.879  0.00  0.00     0.007 A 
ATOM      9 BR   UNL d   1      32.901  19.090 -22.675  0.00  0.00    -0.049 Br
ATOM     10  C   UNL d   1      32.924  17.011 -23.382  0.00  0.00     0.005 A 
ENDBRANCH   1   4
BRANCH   2  11
ATOM     11  N   UNL d   1      31.206  16.327 -24.290  0.00  0.00    -0.114 NA
BRANCH  11  12
ATOM     12  C   UNL d   1      30.490  15.950 -24.336  0.00  0.00     0.241 C 
ATOM     13  S   UNL d   1      30.302  15.494 -25.002  0.00  0.00    -0.035 SA
BRANCH  12  14
ATOM     14  N   UNL d   1      29.935  16.020 -23.714  0.00  0.00    -0.215 NA
BRANCH  14  15
ATOM     15  C   UNL d   1      29.143  16.197 -23.888  0.00  0.00     0.102 C 
BRANCH  15  16
ATOM     16  C   UNL d   1      28.587  16.216 -23.280  0.00  0.00     0.021 C 
ATOM     17  C   UNL d   1      28.021  16.804 -23.257  0.00  0.00     0.002 C 
ENDBRANCH  15  16
ENDBRANCH  14  15
ENDBRANCH  12  14
ENDBRANCH  11  12
ENDBRANCH   2  11
TORSDOF 6
ENDMDL
MODEL 2
REMARK VINA RESULT:      -1.6      2.363      4.058
REMARK  6 active torsions:
REMARK  status: ('A' for Active; 'I' for Inactive)
REMARK    1  A    between atoms: N_4  and  C_1 
REMARK    2  A    between atoms: N_8  and  C_1 
REMARK       I    between atoms: C_2  and  N_3 
REMARK    3  A    between atoms: C_6  and  C_2 
REMARK    4  A    between atoms: N_3  and  N_4 
REMARK    5  A    between atoms: C_17  and  N_8 
REMARK    6  A    between atoms: C_11  and  C_17 
ROOT
ATOM      1  C   UNL d   1      29.410  17.946 -24.773  0.00  0.00     0.297 C 
ATOM      2  N   UNL d   1      30.250  17.921 -24.794  0.00  0.00    -0.103 NA
ATOM      3  O   UNL d   1      29.023  18.593 -25.090  0.00  0.00    -0.264 OA
ENDROOT
BRANCH   1   4
ATOM      4  C   UNL d   1      28.979  17.314 -24.431  0.00  0.00     0.059 A 
ATOM      5  C   UNL d   1      28.690  17.397 -23.671  0.00  0.00     0.005 A 
ATOM      6  C   UNL d   1      28.265  16.780 -23.325  0.00  0.00     0.007 A 
ATOM      7  C   UNL d   1      28.133  16.089 -23.744  0.00  0.00     0.035 A 
ATOM      8  C   UNL d   1      28.425  15.997 -24.519  0.00  0.00     0.007 A 
ATOM      9 BR   UNL d   1      27.696  15.453 -23.391  0.00  0.00    -0.049 Br
ATOM     10  C   UNL d   1      28.848  16.622 -24.849  0.00  0.00     0.005 A 
ENDBRANCH   1   4
BRANCH   2  11
ATOM     11  N   UNL d   1      30.646  17.259 -24.469  0.00  0.00    -0.114 NA
BRANCH  11  12
ATOM     12  C   UNL d   1      31.457  17.228 -24.469  0.00  0.00     0.241 C 
ATOM     13  S   UNL d   1      31.900  17.923 -24.555  0.00  0.00    -0.035 SA
BRANCH  12  14
ATOM     14  N   UNL d   1      31.851  16.494 -24.382  0.00  0.00    -0.215 NA
BRANCH  14  15
ATOM     15  C   UNL d   1      32.395  16.392 -23.764  0.00  0.00     0.102 C 
BRANCH  15  16
ATOM     16  C   UNL d   1      32.616  15.632 -23.538  0.00  0.00     0.021 C 
ATOM     17  C   UNL d   1      33.208  15.521 -22.985  0.00  0.00     0.002 C 
ENDBRANCH  15  16
ENDBRANCH  14  15
ENDBRANCH  12  14
ENDBRANCH  11  12
ENDBRANCH   2  11
TORSDOF 6
ENDMDL
MODEL 3
REMARK VINA RESULT:      -0.5      1.455      1.816
REMARK  6 active torsions:
REMARK  status: ('A' for Active; 'I' for Inactive)
REMARK    1  A    between atoms: N_4  and  C_1 
REMARK    2  A    between atoms: N_8  and  C_1 
REMARK       I    between atoms: C_2  and  N_3 
REMARK    3  A    between atoms: C_6  and  C_2 
REMARK    4  A    between atoms: N_3  and  N_4 
REMARK    5  A    between atoms: C_17  and  N_8 
REMARK    6  A    between atoms: C_11  and  C_17 
ROOT
ATOM      1  C   UNL d   1      32.830  18.835 -24.359  0.00  0.00     0.297 C 
ATOM      2  N   UNL d   1      32.339  18.197 -24.599  0.00  0.00    -0.103 NA
ATOM      3  O   UNL d   1      33.233  19.264 -24.926  0.00  0.00    -0.264 OA
ENDROOT
BRANCH   1   4
ATOM      4  C   UNL d   1      32.904  19.025 -23.545  0.00  0.00     0.059 A 
ATOM      5  C   UNL d   1      32.709  19.777 -23.296  0.00  0.00     0.005 A 
ATOM      6  C   UNL d   1      32.777  19.975 -22.497  0.00  0.00     0.007 A 
ATOM      7  C   UNL d   1      33.040  19.416 -21.959  0.00  0.00     0.035 A 
ATOM      8  C   UNL d   1      33.241  18.646 -22.207  0.00  0.00     0.007 A 
ATOM      9 BR   UNL d   1      33.112  19.616 -21.137  0.00  0.00    -0.049 Br
ATOM     10  C   UNL d   1      33.167  18.466 -23.007  0.00  0.00     0.005 A 
ENDBRANCH   1   4
BRANCH   2  11
ATOM     11  N   UNL d   1      31.926  17.758 -24.019  0.00  0.00    -0.114 NA
BRANCH  11  12
ATOM     12  C   UNL d   1      31.446  17.142 -24.237  0.00  0.00     0.241 C 
ATOM     13  S   UNL d   1      31.511  16.811 -24.994  0.00  0.00    -0.035 SA
BRANCH  12  14
ATOM     14  N   UNL d   1      30.881  16.836 -23.700  0.00  0.00    -0.215 NA
BRANCH  14  15
ATOM     15  C   UNL d   1      30.124  16.635 -23.971  0.00  0.00     0.102 C 
BRANCH  15  16
ATOM     16  C   UNL d   1      29.661  16.110 -23.535  0.00  0.00     0.021 C 
ATOM     17  C   UNL d   1      28.880  16.286 -23.373  0.00  0.00     0.002 C 
ENDBRANCH  15  16
ENDBRANCH  14  15
ENDBRANCH  12  14
ENDBRANCH  11  12
ENDBRANCH   2  11
TORSDOF 6
ENDMDL
MODEL 4
REMARK VINA RESULT:      -0.2      2.097      3.809
REMARK  6 active torsions:
REMARK  status: ('A' for Active; 'I' for Inactive)
REMARK    1  A    between atoms: N_4  and  C_1 
REMARK    2  A    between atoms: N_8  and  C_1 
REMARK       I    between atoms: C_2  and  N_3 
REMARK    3  A    between atoms: C_6  and  C_2 
REMARK    4  A    between atoms: N_3  and  N_4 
REMARK    5  A    between atoms: C_17  and  N_8 
REMARK    6  A    between atoms: C_11  and  C_17 
ROOT
ATOM      1  C   UNL d   1      29.012  16.069 -23.412  0.00  0.00     0.297 C 
ATOM      2  N   UNL d   1      29.803  15.813 -23.293  0.00  0.00    -0.103 NA
ATOM      3  O   UNL d   1      28.397  15.619 -23.115  0.00  0.00    -0.264 OA
ENDROOT
BRANCH   1   4
ATOM      4  C   UNL d   1      28.859  16.779 -23.830  0.00  0.00     0.059 A 
ATOM      5  C   UNL d   1      28.903  16.776 -24.646  0.00  0.00     0.005 A 
ATOM      6  C   UNL d   1      28.754  17.470 -25.067  0.00  0.00     0.007 A 
ATOM      7  C   UNL d   1      28.562  18.158 -24.666  0.00  0.00     0.035 A 
ATOM      8  C   UNL d   1      28.516  18.169 -23.835  0.00  0.00     0.007 A 
ATOM      9 BR   UNL d   1      28.409  18.874 -25.096  0.00  0.00    -0.049 Br
ATOM     10  C   UNL d   1      28.668  17.468 -23.430  0.00  0.00     0.005 A 
ENDBRANCH   1   4
BRANCH   2  11
ATOM     11  N   UNL d   1      30.432  16.274 -23.597  0.00  0.00    -0.114 NA
BRANCH  11  12
ATOM     12  C   UNL d   1      31.201  16.051 -23.470  0.00  0.00     0.241 C 
ATOM     13  S   UNL d   1      31.376  15.453 -22.923  0.00  0.00    -0.035 SA
BRANCH  12  14
ATOM     14  N   UNL d   1      31.823  16.423 -23.888  0.00  0.00    -0.215 NA
BRANCH  14  15
ATOM     15  C   UNL d   1      32.166  17.114 -23.585  0.00  0.00     0.102 C 
BRANCH  15  16
ATOM     16  C   UNL d   1      32.495  17.666 -24.100  0.00  0.00     0.021 C 
ATOM     17  C   UNL d   1      32.885  18.322 -23.809  0.00  0.00     0.002 C 
ENDBRANCH  15  16
ENDBRANCH  14  15
ENDBRANCH  12  14
ENDBRANCH  11  12
ENDBRANCH   2  11
TORSDOF 6
ENDMDL
MODEL 5
REMARK VINA RESULT:       0.1      5.713      6.705
REMARK  6 active torsions:
REMARK  status: ('A' for Active; 'I' for Inactive)
REMARK    1  A    between atoms: N_4  and  C_1 
REMARK    2  A    between atoms: N_8  and  C_1 
REMARK       I    between atoms: C_2  and  N_3 
REMARK    3  A    between atoms: C_6  and  C_2 
REMARK    4  A    between atoms: N_3  and  N_4 
REMARK    5  A    between atoms: C_17  and  N_8 
REMARK    6  A    between atoms: C_11  and  C_17 
ROOT
ATOM      1  C   UNL d   1      31.909  21.286 -20.855  0.00  0.00     0.297 C 
ATOM      2  N   UNL d   1      32.204  21.329 -21.640  0.00  0.00    -0.103 NA
ATOM      3  O   UNL d   1      31.290  20.778 -20.688  0.00  0.00    -0.264 OA
ENDROOT
BRANCH   1   4
ATOM      4  C   UNL d   1      32.249  21.759 -20.252  0.00  0.00     0.059 A 
ATOM      5  C   UNL d   1      31.958  22.512 -20.128  0.00  0.00     0.005 A 
ATOM      6  C   UNL d   1      32.286  22.986 -19.537  0.00  0.00     0.007 A 
ATOM      7  C   UNL d   1      32.901  22.699 -19.078  0.00  0.00     0.035 A 
ATOM      8  C   UNL d   1      33.203  21.933 -19.198  0.00  0.00     0.007 A 
ATOM      9 BR   UNL d   1      33.241  23.184 -18.469  0.00  0.00    -0.049 Br
ATOM     10  C   UNL d   1      32.864  21.473 -19.793  0.00  0.00     0.005 A 
ENDBRANCH   1   4
BRANCH   2  11
ATOM     11  N   UNL d   1      32.837  21.848 -21.811  0.00  0.00    -0.114 NA
BRANCH  11  12
ATOM     12  C   UNL d   1      33.083  21.956 -22.576  0.00  0.00     0.241 C 
ATOM     13  S   UNL d   1      33.240  21.300 -23.058  0.00  0.00    -0.035 SA
BRANCH  12  14
ATOM     14  N   UNL d   1      33.181  22.728 -22.884  0.00  0.00    -0.215 NA
BRANCH  14  15
ATOM     15  C   UNL d   1      33.240  22.837 -23.704  0.00  0.00     0.102 C 
BRANCH  15  16
ATOM     16  C   UNL d   1      32.796  23.428 -24.069  0.00  0.00     0.021 C 
ATOM     17  C   UNL d   1      32.921  23.611 -24.856  0.00  0.00     0.002 C 
ENDBRANCH  15  16
ENDBRANCH  14  15
ENDBRANCH  12  14
ENDBRANCH  11  12
ENDBRANCH   2  11
TORSDOF 6
ENDMDL
