MODEL 1
REMARK VINA RESULT:      -7.8      0.000      0.000
REMARK  4 active torsions:
REMARK  status: ('A' for Active; 'I' for Inactive)
REMARK    1  A    between atoms: N_2  and  C_1 
REMARK       I    between atoms: C_5  and  N_2 
REMARK    2  A    between atoms: C_8  and  C_5 
REMARK    3  A    between atoms: O_16  and  C_10 
REMARK    4  A    between atoms: O_17  and  C_12 
ROOT
ATOM      1  N   UNL d   1     -47.869  13.400  22.588  0.00  0.00    -0.184 NA
ATOM      2  C   UNL d   1     -47.152  13.650  22.912  0.00  0.00     0.281 C 
ATOM      3  O   UNL d   1     -47.158  14.287  23.434  0.00  0.00    -0.265 OA
ENDROOT
BRANCH   2   4
ATOM      4  C   UNL d   1     -46.446  13.297  22.738  0.00  0.00     0.060 A 
ATOM      5  C   UNL d   1     -46.213  12.640  23.157  0.00  0.00     0.031 A 
ATOM      6  C   UNL d   1     -45.493  12.283  22.978  0.00  0.00     0.116 A 
ATOM      7  C   UNL d   1     -45.021  12.584  22.387  0.00  0.00     0.116 A 
ATOM      8  C   UNL d   1     -45.254  13.241  21.968  0.00  0.00     0.026 A 
ATOM      9  C   UNL d   1     -45.985  13.624  22.132  0.00  0.00     0.007 A 
BRANCH   6  10
ATOM     10  O   UNL d   1     -45.249  11.602  23.411  0.00  0.00    -0.326 OA
ATOM     11  C   UNL d   1     -46.005  11.115  23.697  0.00  0.00     0.181 C 
ENDBRANCH   6  10
BRANCH   7  12
ATOM     12  O   UNL d   1     -44.297  12.219  22.212  0.00  0.00    -0.326 OA
ATOM     13  C   UNL d   1     -43.664  12.533  21.690  0.00  0.00     0.181 C 
ENDBRANCH   7  12
ENDBRANCH   2   4
BRANCH   1  14
ATOM     14  C   UNL d   1     -48.565  13.797  22.799  0.00  0.00     0.182 A 
ATOM     15  N   UNL d   1     -49.315  13.473  22.993  0.00  0.00    -0.283 N 
ATOM     16  C   UNL d   1     -49.812  14.145  23.161  0.00  0.00     0.072 A 
ATOM     17  C   UNL d   1     -49.506  12.703  23.011  0.00  0.00     0.101 C 
ATOM     18  C   UNL d   1     -50.619  14.207  23.388  0.00  0.00     0.018 A 
ATOM     19  C   UNL d   1     -49.365  14.797  23.066  0.00  0.00     0.048 A 
ATOM     20  C   UNL d   1     -50.954  14.974  23.515  0.00  0.00     0.002 A 
ATOM     21  C   UNL d   1     -50.493  15.629  23.417  0.00  0.00     0.001 A 
ATOM     22  C   UNL d   1     -49.691  15.569  23.191  0.00  0.00     0.008 A 
ATOM     23  S   UNL d   1     -48.619  14.607  22.850  0.00  0.00    -0.048 SA
ENDBRANCH   1  14
TORSDOF 4
ENDMDL
MODEL 2
REMARK VINA RESULT:      -6.6      0.632      1.350
REMARK  4 active torsions:
REMARK  status: ('A' for Active; 'I' for Inactive)
REMARK    1  A    between atoms: N_2  and  C_1 
REMARK       I    between atoms: C_5  and  N_2 
REMARK    2  A    between atoms: C_8  and  C_5 
REMARK    3  A    between atoms: O_16  and  C_10 
REMARK    4  A    between atoms: O_17  and  C_12 
ROOT
ATOM      1  N   UNL d   1     -48.244  12.903  22.955  0.00  0.00    -0.184 NA
ATOM      2  C   UNL d   1     -47.475  13.170  23.099  0.00  0.00     0.281 C 
ATOM      3  O   UNL d   1     -47.359  13.974  23.236  0.00  0.00    -0.265 OA
ENDROOT
BRANCH   2   4
ATOM      4  C   UNL d   1     -46.835  12.677  23.111  0.00  0.00     0.060 A 
ATOM      5  C   UNL d   1     -46.222  12.804  22.592  0.00  0.00     0.031 A 
ATOM      6  C   UNL d   1     -45.572  12.299  22.607  0.00  0.00     0.116 A 
ATOM      7  C   UNL d   1     -45.543  11.681  23.136  0.00  0.00     0.116 A 
ATOM      8  C   UNL d   1     -46.156  11.554  23.655  0.00  0.00     0.026 A 
ATOM      9  C   UNL d   1     -46.832  12.055  23.659  0.00  0.00     0.007 A 
BRANCH   6  10
ATOM     10  O   UNL d   1     -44.934  12.429  22.070  0.00  0.00    -0.326 OA
ATOM     11  C   UNL d   1     -44.691  13.341  22.073  0.00  0.00     0.181 C 
ENDBRANCH   6  10
BRANCH   7  12
ATOM     12  O   UNL d   1     -44.884  11.177  23.145  0.00  0.00    -0.326 OA
ATOM     13  C   UNL d   1     -44.743  10.510  23.698  0.00  0.00     0.181 C 
ENDBRANCH   7  12
ENDBRANCH   2   4
BRANCH   1  14
ATOM     14  C   UNL d   1     -48.865  13.450  22.954  0.00  0.00     0.182 A 
ATOM     15  N   UNL d   1     -49.665  13.333  22.725  0.00  0.00    -0.283 N 
ATOM     16  C   UNL d   1     -50.042  14.089  22.842  0.00  0.00     0.072 A 
ATOM     17  C   UNL d   1     -49.986  12.659  22.459  0.00  0.00     0.101 C 
ATOM     18  C   UNL d   1     -50.832  14.350  22.720  0.00  0.00     0.018 A 
ATOM     19  C   UNL d   1     -49.488  14.589  23.117  0.00  0.00     0.048 A 
ATOM     20  C   UNL d   1     -51.033  15.153  22.894  0.00  0.00     0.002 A 
ATOM     21  C   UNL d   1     -50.463  15.652  23.173  0.00  0.00     0.001 A 
ATOM     22  C   UNL d   1     -49.678  15.395  23.294  0.00  0.00     0.008 A 
ATOM     23  S   UNL d   1     -48.780  14.223  23.190  0.00  0.00    -0.048 SA
ENDBRANCH   1  14
TORSDOF 4
ENDMDL
MODEL 3
REMARK VINA RESULT:      -5.3      1.558      4.930
REMARK  4 active torsions:
REMARK  status: ('A' for Active; 'I' for Inactive)
REMARK    1  A    between atoms: N_2  and  C_1 
REMARK       I    between atoms: C_5  and  N_2 
REMARK    2  A    between atoms: C_8  and  C_5 
REMARK    3  A    between atoms: O_16  and  C_10 
REMARK    4  A    between atoms: O_17  and  C_12 
ROOT
ATOM      1  N   UNL d   1     -46.756  12.795  23.109  0.00  0.00    -0.184 NA
ATOM      2  C   UNL d   1     -47.368  12.979  22.586  0.00  0.00     0.281 C 
ATOM      3  O   UNL d   1     -47.192  13.046  21.784  0.00  0.00    -0.265 OA
ENDROOT
BRANCH   2   4
ATOM      4  C   UNL d   1     -48.131  13.096  22.827  0.00  0.00     0.060 A 
ATOM      5  C   UNL d   1     -48.389  13.849  22.990  0.00  0.00     0.031 A 
ATOM      6  C   UNL d   1     -49.166  13.964  23.235  0.00  0.00     0.116 A 
ATOM      7  C   UNL d   1     -49.670  13.330  23.314  0.00  0.00     0.116 A 
ATOM      8  C   UNL d   1     -49.412  12.577  23.152  0.00  0.00     0.026 A 
ATOM      9  C   UNL d   1     -48.623  12.432  22.900  0.00  0.00     0.007 A 
BRANCH   6  10
ATOM     10  O   UNL d   1     -49.436  14.746  23.404  0.00  0.00    -0.326 OA
ATOM     11  C   UNL d   1     -49.151  15.338  22.726  0.00  0.00     0.181 C 
ENDBRANCH   6  10
BRANCH   7  12
ATOM     12  O   UNL d   1     -50.452  13.455  23.562  0.00  0.00    -0.326 OA
ATOM     13  C   UNL d   1     -51.063  12.838  23.696  0.00  0.00     0.181 C 
ENDBRANCH   7  12
ENDBRANCH   2   4
BRANCH   1  14
ATOM     14  C   UNL d   1     -45.992  12.685  22.810  0.00  0.00     0.182 A 
ATOM     15  N   UNL d   1     -45.451  12.063  22.973  0.00  0.00    -0.283 N 
ATOM     16  C   UNL d   1     -44.758  12.244  22.508  0.00  0.00     0.072 A 
ATOM     17  C   UNL d   1     -45.571  11.447  23.456  0.00  0.00     0.101 C 
ATOM     18  C   UNL d   1     -44.021  11.850  22.418  0.00  0.00     0.018 A 
ATOM     19  C   UNL d   1     -44.908  12.920  22.116  0.00  0.00     0.048 A 
ATOM     20  C   UNL d   1     -43.437  12.181  21.903  0.00  0.00     0.002 A 
ATOM     21  C   UNL d   1     -43.599  12.867  21.510  0.00  0.00     0.001 A 
ATOM     22  C   UNL d   1     -44.330  13.260  21.598  0.00  0.00     0.008 A 
ATOM     23  S   UNL d   1     -45.640  13.195  22.285  0.00  0.00    -0.048 SA
ENDBRANCH   1  14
TORSDOF 4
ENDMDL
MODEL 4
REMARK VINA RESULT:      -5.3      8.264      9.097
REMARK  4 active torsions:
REMARK  status: ('A' for Active; 'I' for Inactive)
REMARK    1  A    between atoms: N_2  and  C_1 
REMARK       I    between atoms: C_5  and  N_2 
REMARK    2  A    between atoms: C_8  and  C_5 
REMARK    3  A    between atoms: O_16  and  C_10 
REMARK    4  A    between atoms: O_17  and  C_12 
ROOT
ATOM      1  N   UNL d   1     -39.908  14.545  20.180  0.00  0.00    -0.184 NA
ATOM      2  C   UNL d   1     -39.121  14.587  20.428  0.00  0.00     0.281 C 
ATOM      3  O   UNL d   1     -38.556  14.862  19.896  0.00  0.00    -0.265 OA
ENDROOT
BRANCH   2   4
ATOM      4  C   UNL d   1     -38.884  14.370  21.169  0.00  0.00     0.060 A 
ATOM      5  C   UNL d   1     -38.745  14.942  21.730  0.00  0.00     0.031 A 
ATOM      6  C   UNL d   1     -38.503  14.716  22.483  0.00  0.00     0.116 A 
ATOM      7  C   UNL d   1     -38.404  13.929  22.665  0.00  0.00     0.116 A 
ATOM      8  C   UNL d   1     -38.542  13.357  22.105  0.00  0.00     0.026 A 
ATOM      9  C   UNL d   1     -38.791  13.561  21.327  0.00  0.00     0.007 A 
BRANCH   6  10
ATOM     10  O   UNL d   1     -38.358  15.309  23.067  0.00  0.00    -0.326 OA
ATOM     11  C   UNL d   1     -39.076  15.922  23.087  0.00  0.00     0.181 C 
ENDBRANCH   6  10
BRANCH   7  12
ATOM     12  O   UNL d   1     -38.160  13.710  23.428  0.00  0.00    -0.326 OA
ATOM     13  C   UNL d   1     -37.940  12.903  23.695  0.00  0.00     0.181 C 
ENDBRANCH   7  12
ENDBRANCH   2   4
BRANCH   1  14
ATOM     14  C   UNL d   1     -40.099  14.780  19.409  0.00  0.00     0.182 A 
ATOM     15  N   UNL d   1     -40.606  15.402  19.162  0.00  0.00    -0.283 N 
ATOM     16  C   UNL d   1     -40.587  15.380  18.310  0.00  0.00     0.072 A 
ATOM     17  C   UNL d   1     -41.011  15.896  19.632  0.00  0.00     0.101 C 
ATOM     18  C   UNL d   1     -40.968  15.848  17.724  0.00  0.00     0.018 A 
ATOM     19  C   UNL d   1     -40.100  14.786  18.101  0.00  0.00     0.048 A 
ATOM     20  C   UNL d   1     -40.829  15.680  16.907  0.00  0.00     0.002 A 
ATOM     21  C   UNL d   1     -40.334  15.075  16.706  0.00  0.00     0.001 A 
ATOM     22  C   UNL d   1     -39.954  14.609  17.285  0.00  0.00     0.008 A 
ATOM     23  S   UNL d   1     -39.801  14.418  18.745  0.00  0.00    -0.048 SA
ENDBRANCH   1  14
TORSDOF 4
ENDMDL
MODEL 5
REMARK VINA RESULT:      -5.2      8.221     10.386
REMARK  4 active torsions:
REMARK  status: ('A' for Active; 'I' for Inactive)
REMARK    1  A    between atoms: N_2  and  C_1 
REMARK       I    between atoms: C_5  and  N_2 
REMARK    2  A    between atoms: C_8  and  C_5 
REMARK    3  A    between atoms: O_16  and  C_10 
REMARK    4  A    between atoms: O_17  and  C_12 
ROOT
ATOM      1  N   UNL d   1     -38.912  13.639  18.739  0.00  0.00    -0.184 NA
ATOM      2  C   UNL d   1     -38.529  14.077  19.325  0.00  0.00     0.281 C 
ATOM      3  O   UNL d   1     -37.941  14.607  19.097  0.00  0.00    -0.265 OA
ENDROOT
BRANCH   2   4
ATOM      4  C   UNL d   1     -38.705  14.007  20.111  0.00  0.00     0.060 A 
ATOM      5  C   UNL d   1     -39.405  14.308  20.392  0.00  0.00     0.031 A 
ATOM      6  C   UNL d   1     -39.582  14.235  21.193  0.00  0.00     0.116 A 
ATOM      7  C   UNL d   1     -39.060  13.865  21.697  0.00  0.00     0.116 A 
ATOM      8  C   UNL d   1     -38.360  13.564  21.415  0.00  0.00     0.026 A 
ATOM      9  C   UNL d   1     -38.156  13.625  20.601  0.00  0.00     0.007 A 
BRANCH   6  10
ATOM     10  O   UNL d   1     -40.308  14.548  21.488  0.00  0.00    -0.326 OA
ATOM     11  C   UNL d   1     -40.507  15.363  21.055  0.00  0.00     0.181 C 
ENDBRANCH   6  10
BRANCH   7  12
ATOM     12  O   UNL d   1     -39.245  13.796  22.503  0.00  0.00    -0.326 OA
ATOM     13  C   UNL d   1     -38.758  13.403  23.119  0.00  0.00     0.181 C 
ENDBRANCH   7  12
ENDBRANCH   2   4
BRANCH   1  14
ATOM     14  C   UNL d   1     -38.693  13.748  17.948  0.00  0.00     0.182 A 
ATOM     15  N   UNL d   1     -38.453  13.172  17.387  0.00  0.00    -0.283 N 
ATOM     16  C   UNL d   1     -38.298  13.609  16.671  0.00  0.00     0.072 A 
ATOM     17  C   UNL d   1     -38.387  12.391  17.511  0.00  0.00     0.101 C 
ATOM     18  C   UNL d   1     -38.042  13.368  15.908  0.00  0.00     0.018 A 
ATOM     19  C   UNL d   1     -38.445  14.375  16.827  0.00  0.00     0.048 A 
ATOM     20  C   UNL d   1     -37.940  13.951  15.304  0.00  0.00     0.002 A 
ATOM     21  C   UNL d   1     -38.091  14.726  15.472  0.00  0.00     0.001 A 
ATOM     22  C   UNL d   1     -38.346  14.967  16.229  0.00  0.00     0.008 A 
ATOM     23  S   UNL d   1     -38.681  14.475  17.585  0.00  0.00    -0.048 SA
ENDBRANCH   1  14
TORSDOF 4
ENDMDL
