MODEL 1
REMARK VINA RESULT:      63.2      0.000      0.000
REMARK  5 active torsions:
REMARK  status: ('A' for Active; 'I' for Inactive)
REMARK    1  A    between atoms: C_6  and  N_1 
REMARK    2  A    between atoms: C_8  and  C_3 
REMARK    3  A    between atoms: C_7  and  C_6 
REMARK    4  A    between atoms: C_9  and  C_7 
REMARK    5  A    between atoms: C_14  and  C_8 
ROOT
ATOM      1  N   UNL d   1      60.112  48.493  51.088  0.00  0.00    -0.289 N 
ATOM      2  N   UNL d   1      61.408  48.840  51.122  0.00  0.00    -0.227 NA
ATOM      3  C   UNL d   1      60.648  49.053  51.379  0.00  0.00     0.148 A 
ATOM      4  C   UNL d   1      60.540  47.933  50.652  0.00  0.00     0.083 A 
ATOM      5  C   UNL d   1      61.337  48.145  50.672  0.00  0.00     0.099 A 
ATOM      6  C   UNL d   1      60.310  47.252  50.234  0.00  0.00     0.019 A 
ATOM      7  C   UNL d   1      61.901  47.687  50.282  0.00  0.00     0.021 A 
ATOM      8  C   UNL d   1      60.874  46.798  49.847  0.00  0.00     0.002 A 
ATOM      9  C   UNL d   1      61.670  47.015  49.871  0.00  0.00     0.002 A 
ENDROOT
BRANCH   1  10
ATOM     10  C   UNL d   1      59.304  48.491  51.209  0.00  0.00     0.082 C 
BRANCH  10  11
ATOM     11  C   UNL d   1      58.987  49.165  50.847  0.00  0.00     0.019 C 
BRANCH  11  12
ATOM     12  C   UNL d   1      58.196  49.173  50.619  0.00  0.00     0.002 A 
ATOM     13  C   UNL d   1      57.943  49.700  50.035  0.00  0.00     0.000 A 
ATOM     14  C   UNL d   1      57.150  49.707  49.808  0.00  0.00     0.000 A 
ATOM     15  C   UNL d   1      56.619  49.191  50.161  0.00  0.00     0.000 A 
ATOM     16  C   UNL d   1      56.878  48.667  50.743  0.00  0.00     0.000 A 
ATOM     17  C   UNL d   1      57.662  48.660  50.968  0.00  0.00     0.000 A 
ENDBRANCH  11  12
ENDBRANCH  10  11
ENDBRANCH   1  10
BRANCH   3  18
ATOM     18  C   UNL d   1      60.463  49.706  51.840  0.00  0.00     0.037 C 
BRANCH  18  19
ATOM     19  C   UNL d   1      60.651  49.707  52.647  0.00  0.00     0.003 C 
ATOM     20  C   UNL d   1      61.400  49.488  52.888  0.00  0.00     0.000 C 
ENDBRANCH  18  19
ENDBRANCH   3  18
TORSDOF 5
ENDMDL
MODEL 2
REMARK VINA RESULT:      65.3      1.632      4.028
REMARK  5 active torsions:
REMARK  status: ('A' for Active; 'I' for Inactive)
REMARK    1  A    between atoms: C_6  and  N_1 
REMARK    2  A    between atoms: C_8  and  C_3 
REMARK    3  A    between atoms: C_7  and  C_6 
REMARK    4  A    between atoms: C_9  and  C_7 
REMARK    5  A    between atoms: C_14  and  C_8 
ROOT
ATOM      1  N   UNL d   1      57.733  48.559  50.736  0.00  0.00    -0.289 N 
ATOM      2  N   UNL d   1      56.397  48.425  50.708  0.00  0.00    -0.227 NA
ATOM      3  C   UNL d   1      57.083  48.236  51.136  0.00  0.00     0.148 A 
ATOM      4  C   UNL d   1      57.448  48.948  50.062  0.00  0.00     0.083 A 
ATOM      5  C   UNL d   1      56.627  48.867  50.043  0.00  0.00     0.099 A 
ATOM      6  C   UNL d   1      57.829  49.371  49.456  0.00  0.00     0.019 A 
ATOM      7  C   UNL d   1      56.188  49.201  49.431  0.00  0.00     0.021 A 
ATOM      8  C   UNL d   1      57.389  49.702  48.847  0.00  0.00     0.002 A 
ATOM      9  C   UNL d   1      56.568  49.617  48.834  0.00  0.00     0.002 A 
ENDROOT
BRANCH   1  10
ATOM     10  C   UNL d   1      58.515  48.505  50.964  0.00  0.00     0.082 C 
BRANCH  10  11
ATOM     11  C   UNL d   1      58.848  49.262  50.927  0.00  0.00     0.019 C 
BRANCH  11  12
ATOM     12  C   UNL d   1      59.608  49.389  51.216  0.00  0.00     0.002 A 
ATOM     13  C   UNL d   1      59.716  49.573  52.015  0.00  0.00     0.000 A 
ATOM     14  C   UNL d   1      60.479  49.700  52.303  0.00  0.00     0.000 A 
ATOM     15  C   UNL d   1      61.122  49.643  51.799  0.00  0.00     0.000 A 
ATOM     16  C   UNL d   1      61.008  49.459  51.002  0.00  0.00     0.000 A 
ATOM     17  C   UNL d   1      60.253  49.333  50.717  0.00  0.00     0.000 A 
ENDBRANCH  11  12
ENDBRANCH  10  11
ENDBRANCH   1  10
BRANCH   3  18
ATOM     18  C   UNL d   1      57.110  47.803  51.832  0.00  0.00     0.037 C 
BRANCH  18  19
ATOM     19  C   UNL d   1      56.407  47.541  52.182  0.00  0.00     0.003 C 
ATOM     20  C   UNL d   1      56.428  47.187  52.918  0.00  0.00     0.000 C 
ENDBRANCH  18  19
ENDBRANCH   3  18
TORSDOF 5
ENDMDL
