MODEL 1
REMARK VINA RESULT:      13.7      0.000      0.000
REMARK  2 active torsions:
REMARK  status: ('A' for Active; 'I' for Inactive)
REMARK    1  A    between atoms: C_6  and  C_1 
REMARK    2  A    between atoms: O_12  and  C_9 
ROOT
ATOM      1  C   UNL d   1      45.828 -16.433  44.410  0.00  0.00     0.162 A 
ATOM      2  N   UNL d   1      45.082 -16.128  44.682  0.00  0.00    -0.225 NA
ATOM      3  N   UNL d   1      46.331 -15.787  44.307  0.00  0.00    -0.225 NA
ATOM      4  C   UNL d   1      45.147 -15.327  44.736  0.00  0.00     0.101 A 
ATOM      5  C   UNL d   1      45.939 -15.111  44.498  0.00  0.00     0.101 A 
ATOM      6  C   UNL d   1      44.656 -14.701  44.955  0.00  0.00     0.021 A 
ATOM      7  C   UNL d   1      46.168 -14.319  44.498  0.00  0.00     0.021 A 
ATOM      8  C   UNL d   1      45.638 -13.760  44.723  0.00  0.00     0.002 A 
ATOM      9  C   UNL d   1      44.873 -13.969  44.953  0.00  0.00     0.002 A 
ENDROOT
BRANCH   1  10
ATOM     10  C   UNL d   1      46.006 -17.228  44.278  0.00  0.00     0.036 A 
ATOM     11  C   UNL d   1      46.099 -17.742  44.916  0.00  0.00     0.005 A 
ATOM     12  C   UNL d   1      46.276 -18.537  44.784  0.00  0.00     0.024 A 
ATOM     13  C   UNL d   1      46.360 -18.817  44.013  0.00  0.00     0.094 A 
ATOM     14  C   UNL d   1      46.267 -18.303  43.370  0.00  0.00     0.024 A 
ATOM     15  C   UNL d   1      46.090 -17.508  43.502  0.00  0.00     0.005 A 
BRANCH  13  16
ATOM     16  O   UNL d   1      46.537 -19.612  43.881  0.00  0.00    -0.328 OA
ATOM     17  C   UNL d   1      46.529 -20.274  43.387  0.00  0.00     0.181 C 
ENDBRANCH  13  16
ENDBRANCH   1  10
TORSDOF 2
ENDMDL
MODEL 2
REMARK VINA RESULT:      13.7      1.654      4.173
REMARK  2 active torsions:
REMARK  status: ('A' for Active; 'I' for Inactive)
REMARK    1  A    between atoms: C_6  and  C_1 
REMARK    2  A    between atoms: O_12  and  C_9 
ROOT
ATOM      1  C   UNL d   1      46.044 -17.137  44.221  0.00  0.00     0.162 A 
ATOM      2  N   UNL d   1      46.183 -17.464  43.448  0.00  0.00    -0.225 NA
ATOM      3  N   UNL d   1      46.124 -17.754  44.763  0.00  0.00    -0.225 NA
ATOM      4  C   UNL d   1      46.340 -18.249  43.537  0.00  0.00     0.101 A 
ATOM      5  C   UNL d   1      46.303 -18.432  44.371  0.00  0.00     0.101 A 
ATOM      6  C   UNL d   1      46.519 -18.883  43.039  0.00  0.00     0.021 A 
ATOM      7  C   UNL d   1      46.442 -19.203  44.630  0.00  0.00     0.021 A 
ATOM      8  C   UNL d   1      46.611 -19.771  44.090  0.00  0.00     0.002 A 
ATOM      9  C   UNL d   1      46.647 -19.594  43.284  0.00  0.00     0.002 A 
ENDROOT
BRANCH   1  10
ATOM     10  C   UNL d   1      45.863 -16.349  44.386  0.00  0.00     0.036 A 
ATOM     11  C   UNL d   1      46.377 -15.749  44.151  0.00  0.00     0.005 A 
ATOM     12  C   UNL d   1      46.196 -14.961  44.316  0.00  0.00     0.024 A 
ATOM     13  C   UNL d   1      45.501 -14.773  44.717  0.00  0.00     0.094 A 
ATOM     14  C   UNL d   1      44.982 -15.374  44.955  0.00  0.00     0.024 A 
ATOM     15  C   UNL d   1      45.163 -16.162  44.790  0.00  0.00     0.005 A 
BRANCH  13  16
ATOM     16  O   UNL d   1      45.320 -13.986  44.882  0.00  0.00    -0.328 OA
ATOM     17  C   UNL d   1      45.517 -13.185  44.849  0.00  0.00     0.181 C 
ENDBRANCH  13  16
ENDBRANCH   1  10
TORSDOF 2
ENDMDL
