MODEL 1
REMARK VINA RESULT:      -8.6      0.000      0.000
REMARK  7 active torsions:
REMARK  status: ('A' for Active; 'I' for Inactive)
REMARK    1  A    between atoms: N_2  and  S_1 
REMARK    2  A    between atoms: C_6  and  S_1 
REMARK    3  A    between atoms: C_11  and  C_3 
REMARK    4  A    between atoms: C_4  and  C_5 
REMARK       I    between atoms: N_7  and  C_4 
REMARK       I    between atoms: C_5  and  N_10 
REMARK    5  A    between atoms: C_19  and  N_7 
REMARK    6  A    between atoms: N_10  and  C_11 
REMARK    7  A    between atoms: O_23  and  C_18 
ROOT
ATOM      1  N   UNL d   1      52.732  34.158  53.892  0.00  0.00    -0.209 N 
ATOM      2  C   UNL d   1      53.177  33.464  53.953  0.00  0.00     0.197 A 
ATOM      3  O   UNL d   1      53.830  33.424  54.444  0.00  0.00    -0.287 OA
ATOM      4  C   UNL d   1      52.954  34.824  54.337  0.00  0.00     0.096 A 
ATOM      5  C   UNL d   1      53.608  34.785  54.830  0.00  0.00     0.047 A 
ATOM      6  C   UNL d   1      54.046  34.091  54.885  0.00  0.00     0.126 A 
ENDROOT
BRANCH   2   7
ATOM      7  C   UNL d   1      52.956  32.795  53.507  0.00  0.00     0.146 C 
BRANCH   7   8
ATOM      8  N   UNL d   1      53.205  32.044  53.738  0.00  0.00    -0.199 NA
ATOM      9  C   UNL d   1      53.122  31.410  53.228  0.00  0.00     0.337 C 
ATOM     10  O   UNL d   1      52.787  31.517  52.479  0.00  0.00    -0.260 OA
BRANCH   9  11
ATOM     11  C   UNL d   1      53.372  30.659  53.460  0.00  0.00     0.337 C 
ATOM     12  N   UNL d   1      53.004  30.277  54.089  0.00  0.00    -0.204 NA
ATOM     13  O   UNL d   1      53.992  30.289  53.059  0.00  0.00    -0.260 OA
BRANCH  12  14
ATOM     14  C   UNL d   1      53.255  29.523  54.321  0.00  0.00     0.085 A 
ATOM     15  C   UNL d   1      53.104  29.365  55.108  0.00  0.00     0.019 A 
ATOM     16  C   UNL d   1      53.382  28.601  55.256  0.00  0.00     0.002 A 
ATOM     17  C   UNL d   1      53.700  28.297  54.564  0.00  0.00     0.002 A 
ATOM     18  C   UNL d   1      53.619  28.880  53.972  0.00  0.00     0.019 A 
ENDBRANCH  12  14
ENDBRANCH   9  11
ENDBRANCH   7   8
ENDBRANCH   2   7
BRANCH   1  19
ATOM     19  S   UNL d   1      52.076  34.186  53.395  0.00  0.00     0.273 S 
ATOM     20  O   UNL d   1      52.555  34.494  52.791  0.00  0.00    -0.200 OA
ATOM     21  O   UNL d   1      51.600  33.879  53.997  0.00  0.00    -0.200 OA
BRANCH  19  22
ATOM     22  C   UNL d   1      51.425  34.218  52.890  0.00  0.00     0.104 A 
ATOM     23  C   UNL d   1      50.666  34.136  53.198  0.00  0.00     0.015 A 
ATOM     24  C   UNL d   1      50.011  34.167  52.693  0.00  0.00     0.025 A 
ATOM     25  C   UNL d   1      50.116  34.279  51.889  0.00  0.00     0.094 A 
ATOM     26  C   UNL d   1      50.876  34.363  51.567  0.00  0.00     0.025 A 
ATOM     27  C   UNL d   1      51.535  34.332  52.072  0.00  0.00     0.015 A 
BRANCH  25  28
ATOM     28  O   UNL d   1      49.459  34.310  51.383  0.00  0.00    -0.328 OA
ATOM     29  C   UNL d   1      48.838  34.829  51.543  0.00  0.00     0.181 C 
ENDBRANCH  25  28
ENDBRANCH  19  22
ENDBRANCH   1  19
TORSDOF 7
ENDMDL
MODEL 2
REMARK VINA RESULT:      -8.2      1.266      5.076
REMARK  7 active torsions:
REMARK  status: ('A' for Active; 'I' for Inactive)
REMARK    1  A    between atoms: N_2  and  S_1 
REMARK    2  A    between atoms: C_6  and  S_1 
REMARK    3  A    between atoms: C_11  and  C_3 
REMARK    4  A    between atoms: C_4  and  C_5 
REMARK       I    between atoms: N_7  and  C_4 
REMARK       I    between atoms: C_5  and  N_10 
REMARK    5  A    between atoms: C_19  and  N_7 
REMARK    6  A    between atoms: N_10  and  C_11 
REMARK    7  A    between atoms: O_23  and  C_18 
ROOT
ATOM      1  N   UNL d   1      53.200  33.950  53.916  0.00  0.00    -0.209 N 
ATOM      2  C   UNL d   1      52.512  34.370  53.730  0.00  0.00     0.197 A 
ATOM      3  O   UNL d   1      52.468  35.179  53.847  0.00  0.00    -0.287 OA
ATOM      4  C   UNL d   1      53.854  34.357  54.227  0.00  0.00     0.096 A 
ATOM      5  C   UNL d   1      53.811  35.167  54.344  0.00  0.00     0.047 A 
ATOM      6  C   UNL d   1      53.124  35.578  54.157  0.00  0.00     0.126 A 
ENDROOT
BRANCH   2   7
ATOM      7  C   UNL d   1      51.855  33.962  53.418  0.00  0.00     0.146 C 
BRANCH   7   8
ATOM      8  N   UNL d   1      51.250  34.380  53.045  0.00  0.00    -0.199 NA
ATOM      9  C   UNL d   1      50.494  34.071  53.023  0.00  0.00     0.337 C 
ATOM     10  O   UNL d   1      50.329  33.339  53.373  0.00  0.00    -0.260 OA
BRANCH   9  11
ATOM     11  C   UNL d   1      49.888  34.489  52.649  0.00  0.00     0.337 C 
ATOM     12  N   UNL d   1      49.329  34.894  53.096  0.00  0.00    -0.204 NA
ATOM     13  O   UNL d   1      49.843  34.502  51.824  0.00  0.00    -0.260 OA
BRANCH  12  14
ATOM     14  C   UNL d   1      48.722  35.314  52.721  0.00  0.00     0.085 A 
ATOM     15  C   UNL d   1      48.368  35.866  53.208  0.00  0.00     0.019 A 
ATOM     16  C   UNL d   1      47.779  36.237  52.761  0.00  0.00     0.002 A 
ATOM     17  C   UNL d   1      47.775  35.911  52.009  0.00  0.00     0.002 A 
ATOM     18  C   UNL d   1      48.371  35.327  51.983  0.00  0.00     0.019 A 
ENDBRANCH  12  14
ENDBRANCH   9  11
ENDBRANCH   7   8
ENDBRANCH   2   7
BRANCH   1  19
ATOM     19  S   UNL d   1      53.232  33.136  53.794  0.00  0.00     0.273 S 
ATOM     20  O   UNL d   1      53.009  33.014  54.584  0.00  0.00    -0.200 OA
ATOM     21  O   UNL d   1      53.455  33.258  53.008  0.00  0.00    -0.200 OA
BRANCH  19  22
ATOM     22  C   UNL d   1      53.262  32.319  53.681  0.00  0.00     0.104 A 
ATOM     23  C   UNL d   1      53.399  31.823  54.323  0.00  0.00     0.015 A 
ATOM     24  C   UNL d   1      53.430  31.004  54.211  0.00  0.00     0.025 A 
ATOM     25  C   UNL d   1      53.324  30.686  53.463  0.00  0.00     0.094 A 
ATOM     26  C   UNL d   1      53.186  31.177  52.809  0.00  0.00     0.025 A 
ATOM     27  C   UNL d   1      53.155  31.999  52.919  0.00  0.00     0.015 A 
BRANCH  25  28
ATOM     28  O   UNL d   1      53.355  29.865  53.352  0.00  0.00    -0.328 OA
ATOM     29  C   UNL d   1      53.361  29.358  54.003  0.00  0.00     0.181 C 
ENDBRANCH  25  28
ENDBRANCH  19  22
ENDBRANCH   1  19
TORSDOF 7
ENDMDL
MODEL 3
REMARK VINA RESULT:      -7.6      1.516      5.153
REMARK  7 active torsions:
REMARK  status: ('A' for Active; 'I' for Inactive)
REMARK    1  A    between atoms: N_2  and  S_1 
REMARK    2  A    between atoms: C_6  and  S_1 
REMARK    3  A    between atoms: C_11  and  C_3 
REMARK    4  A    between atoms: C_4  and  C_5 
REMARK       I    between atoms: N_7  and  C_4 
REMARK       I    between atoms: C_5  and  N_10 
REMARK    5  A    between atoms: C_19  and  N_7 
REMARK    6  A    between atoms: N_10  and  C_11 
REMARK    7  A    between atoms: O_23  and  C_18 
ROOT
ATOM      1  N   UNL d   1      53.272  31.546  53.431  0.00  0.00    -0.209 N 
ATOM      2  C   UNL d   1      52.625  31.831  53.002  0.00  0.00     0.197 A 
ATOM      3  O   UNL d   1      52.140  31.321  52.584  0.00  0.00    -0.287 OA
ATOM      4  C   UNL d   1      53.430  30.731  53.437  0.00  0.00     0.096 A 
ATOM      5  C   UNL d   1      52.944  30.219  53.018  0.00  0.00     0.047 A 
ATOM      6  C   UNL d   1      52.303  30.509  52.594  0.00  0.00     0.126 A 
ENDROOT
BRANCH   2   7
ATOM      7  C   UNL d   1      52.465  32.649  52.996  0.00  0.00     0.146 C 
BRANCH   7   8
ATOM      8  N   UNL d   1      51.808  32.937  52.591  0.00  0.00    -0.199 NA
ATOM      9  C   UNL d   1      51.644  33.738  52.595  0.00  0.00     0.337 C 
ATOM     10  O   UNL d   1      52.135  34.264  53.005  0.00  0.00    -0.260 OA
BRANCH   9  11
ATOM     11  C   UNL d   1      50.986  34.027  52.189  0.00  0.00     0.337 C 
ATOM     12  N   UNL d   1      50.298  34.214  52.598  0.00  0.00    -0.204 NA
ATOM     13  O   UNL d   1      51.019  34.129  51.369  0.00  0.00    -0.260 OA
BRANCH  12  14
ATOM     14  C   UNL d   1      49.638  34.504  52.191  0.00  0.00     0.085 A 
ATOM     15  C   UNL d   1      49.155  34.971  52.656  0.00  0.00     0.019 A 
ATOM     16  C   UNL d   1      48.527  35.216  52.178  0.00  0.00     0.002 A 
ATOM     17  C   UNL d   1      48.627  34.901  51.428  0.00  0.00     0.002 A 
ATOM     18  C   UNL d   1      49.330  34.450  51.435  0.00  0.00     0.019 A 
ENDBRANCH  12  14
ENDBRANCH   9  11
ENDBRANCH   7   8
ENDBRANCH   2   7
BRANCH   1  19
ATOM     19  S   UNL d   1      53.753  32.069  53.849  0.00  0.00     0.273 S 
ATOM     20  O   UNL d   1      53.299  31.934  54.530  0.00  0.00    -0.200 OA
ATOM     21  O   UNL d   1      54.204  32.202  53.169  0.00  0.00    -0.200 OA
BRANCH  19  22
ATOM     22  C   UNL d   1      54.229  32.591  54.273  0.00  0.00     0.104 A 
ATOM     23  C   UNL d   1      54.054  32.753  55.062  0.00  0.00     0.015 A 
ATOM     24  C   UNL d   1      54.531  33.276  55.489  0.00  0.00     0.025 A 
ATOM     25  C   UNL d   1      55.176  33.633  55.131  0.00  0.00     0.094 A 
ATOM     26  C   UNL d   1      55.362  33.476  54.338  0.00  0.00     0.025 A 
ATOM     27  C   UNL d   1      54.884  32.952  53.907  0.00  0.00     0.015 A 
BRANCH  25  28
ATOM     28  O   UNL d   1      55.654  34.157  55.561  0.00  0.00    -0.328 OA
ATOM     29  C   UNL d   1      55.824  34.906  55.258  0.00  0.00     0.181 C 
ENDBRANCH  25  28
ENDBRANCH  19  22
ENDBRANCH   1  19
TORSDOF 7
ENDMDL
