MODEL 1
REMARK VINA RESULT:      62.3      0.000      0.000
REMARK  6 active torsions:
REMARK  status: ('A' for Active; 'I' for Inactive)
REMARK    1  A    between atoms: N_5  and  S_1 
REMARK    2  A    between atoms: C_8  and  S_1 
REMARK    3  A    between atoms: C_2  and  C_14 
REMARK    4  A    between atoms: C_7  and  N_5 
REMARK    5  A    between atoms: C_6  and  C_7 
REMARK       I    between atoms: N_11  and  C_6 
REMARK    6  A    between atoms: C_19  and  N_11 
ROOT
ATOM      1  C   UNL d   1      14.834  15.699  -1.674  0.00  0.00     0.298 C 
ATOM      2  N   UNL d   1      14.959  15.555  -2.465  0.00  0.00    -0.207 NA
ATOM      3  O   UNL d   1      14.628  16.459  -1.414  0.00  0.00    -0.264 OA
ENDROOT
BRANCH   2   4
ATOM      4  C   UNL d   1      14.882  16.167  -3.012  0.00  0.00     0.085 A 
ATOM      5  C   UNL d   1      15.130  16.924  -2.808  0.00  0.00     0.019 A 
ATOM      6  C   UNL d   1      15.058  17.552  -3.351  0.00  0.00     0.004 A 
ATOM      7  C   UNL d   1      14.737  17.416  -4.096  0.00  0.00     0.024 A 
ATOM      8  C   UNL d   1      14.488  16.657  -4.302  0.00  0.00     0.004 A 
ATOM      9  C   UNL d   1      14.557  16.031  -3.768  0.00  0.00     0.019 A 
BRANCH   7  10
ATOM     10  C   UNL d   1      14.671  18.051  -4.627  0.00  0.00     0.111 A 
ATOM     11  N   UNL d   1      13.960  18.272  -4.970  0.00  0.00    -0.239 NA
ATOM     12  C   UNL d   1      14.098  18.919  -5.466  0.00  0.00     0.088 A 
ATOM     13  C   UNL d   1      13.600  19.367  -5.944  0.00  0.00     0.020 A 
ATOM     14  C   UNL d   1      14.903  19.096  -5.426  0.00  0.00     0.049 A 
ATOM     15  C   UNL d   1      13.907  19.993  -6.383  0.00  0.00     0.002 A 
ATOM     16  C   UNL d   1      14.712  20.170  -6.344  0.00  0.00     0.001 A 
ATOM     17  C   UNL d   1      15.210  19.721  -5.865  0.00  0.00     0.008 A 
ATOM     18  S   UNL d   1      15.257  18.558  -4.907  0.00  0.00    -0.066 SA
ENDBRANCH   7  10
ENDBRANCH   2   4
BRANCH   1  19
ATOM     19  C   UNL d   1      14.909  15.091  -1.121  0.00  0.00     0.151 C 
ATOM     20  C   UNL d   1      15.112  15.256  -0.340  0.00  0.00     0.027 C 
BRANCH  19  21
ATOM     21  N   UNL d   1      14.831  14.263  -1.119  0.00  0.00    -0.153 NA
BRANCH  21  22
ATOM     22  S   UNL d   1      15.247  13.816  -0.568  0.00  0.00     0.285 S 
ATOM     23  O   UNL d   1      15.637  14.485  -0.326  0.00  0.00    -0.198 OA
ATOM     24  O   UNL d   1      15.660  13.376  -0.021  0.00  0.00    -0.198 OA
BRANCH  22  25
ATOM     25  C   UNL d   1      14.843  13.138  -0.822  0.00  0.00     0.106 A 
ATOM     26  C   UNL d   1      14.209  12.840  -0.383  0.00  0.00     0.024 A 
ATOM     27  C   UNL d   1      13.810  12.153  -0.651  0.00  0.00     0.059 A 
ATOM     28 CL   UNL d   1      13.174  11.855  -0.210  0.00  0.00    -0.082 Cl
ATOM     29  C   UNL d   1      14.047  11.779  -1.345  0.00  0.00     0.011 A 
ATOM     30  C   UNL d   1      14.679  12.079  -1.780  0.00  0.00     0.002 A 
ATOM     31  C   UNL d   1      15.079  12.766  -1.512  0.00  0.00     0.013 A 
ENDBRANCH  22  25
ENDBRANCH  21  22
ENDBRANCH  19  21
ENDBRANCH   1  19
TORSDOF 6
ENDMDL
