MODEL 1
REMARK VINA RESULT:      50.9      0.000      0.000
REMARK  5 active torsions:
REMARK  status: ('A' for Active; 'I' for Inactive)
REMARK    1  A    between atoms: O_2  and  S_1 
REMARK    2  A    between atoms: C_3  and  S_1 
REMARK    3  A    between atoms: C_6  and  O_2 
REMARK    4  A    between atoms: O_17  and  C_14 
REMARK    5  A    between atoms: C_20  and  O_17 
ROOT
ATOM      1  S   UNL d   1     -49.259  26.816  33.868  0.00  0.00     0.304 S 
ATOM      2  O   UNL d   1     -48.954  26.222  34.349  0.00  0.00    -0.193 OA
ATOM      3  O   UNL d   1     -49.563  27.409  33.387  0.00  0.00    -0.193 OA
ENDROOT
BRANCH   1   4
ATOM      4  O   UNL d   1     -49.472  26.253  33.308  0.00  0.00    -0.227 OA
BRANCH   4   5
ATOM      5  C   UNL d   1     -50.235  25.940  33.309  0.00  0.00     0.114 A 
ATOM      6  C   UNL d   1     -50.349  25.119  33.312  0.00  0.00     0.026 A 
ATOM      7  C   UNL d   1     -51.109  24.809  33.313  0.00  0.00     0.002 A 
ATOM      8  C   UNL d   1     -51.220  23.992  33.316  0.00  0.00     0.000 A 
ATOM      9  C   UNL d   1     -51.766  25.317  33.310  0.00  0.00     0.000 A 
ATOM     10  C   UNL d   1     -51.985  23.676  33.317  0.00  0.00     0.000 A 
ATOM     11  C   UNL d   1     -52.642  24.183  33.315  0.00  0.00     0.000 A 
ATOM     12  C   UNL d   1     -52.529  25.003  33.311  0.00  0.00     0.000 A 
ATOM     13  C   UNL d   1     -51.657  26.131  33.307  0.00  0.00     0.002 A 
ATOM     14  C   UNL d   1     -50.892  26.448  33.306  0.00  0.00     0.026 A 
ENDBRANCH   4   5
ENDBRANCH   1   4
BRANCH   1  15
ATOM     15  C   UNL d   1     -49.045  27.380  34.428  0.00  0.00     0.111 A 
ATOM     16  C   UNL d   1     -48.388  27.863  34.300  0.00  0.00     0.015 A 
ATOM     17  C   UNL d   1     -48.174  28.427  34.860  0.00  0.00     0.025 A 
ATOM     18  C   UNL d   1     -48.614  28.514  35.556  0.00  0.00     0.100 A 
ATOM     19  C   UNL d   1     -49.270  28.029  35.679  0.00  0.00     0.025 A 
ATOM     20  C   UNL d   1     -49.484  27.465  35.119  0.00  0.00     0.015 A 
BRANCH  18  21
ATOM     21  O   UNL d   1     -48.400  29.078  36.116  0.00  0.00    -0.305 OA
BRANCH  21  22
ATOM     22  C   UNL d   1     -47.901  29.696  35.908  0.00  0.00     0.123 C 
ATOM     23  C   UNL d   1     -47.092  29.565  35.836  0.00  0.00     0.029 C 
ENDBRANCH  21  22
ENDBRANCH  18  21
ENDBRANCH   1  15
TORSDOF 5
ENDMDL
