MODEL 1
REMARK VINA RESULT:      -2.3      0.000      0.000
REMARK  6 active torsions:
REMARK  status: ('A' for Active; 'I' for Inactive)
REMARK    1  A    between atoms: C_2  and  S_1 
REMARK    2  A    between atoms: N_10  and  S_1 
REMARK    3  A    between atoms: O_16  and  C_7 
REMARK    4  A    between atoms: C_13  and  N_10 
REMARK    5  A    between atoms: N_11  and  C_17 
REMARK    6  A    between atoms: C_17  and  C_13 
ROOT
ATOM      1  S   UNL d   1      31.731  17.205 -23.957  0.00  0.00     0.286 S 
ATOM      2  O   UNL d   1      31.707  16.656 -23.335  0.00  0.00    -0.198 OA
ATOM      3  O   UNL d   1      31.755  17.744 -24.568  0.00  0.00    -0.198 OA
ENDROOT
BRANCH   1   4
ATOM      4  C   UNL d   1      31.015  16.915 -24.242  0.00  0.00     0.117 A 
ATOM      5  C   UNL d   1      30.326  17.363 -24.161  0.00  0.00     0.027 A 
ATOM      6  C   UNL d   1      29.609  17.072 -24.446  0.00  0.00     0.081 A 
ATOM      7 CL   UNL d   1      28.915  17.522 -24.366  0.00  0.00    -0.080 Cl
ATOM      8  C   UNL d   1      29.580  16.333 -24.812  0.00  0.00     0.105 A 
ATOM      9  C   UNL d   1      30.263  15.892 -24.889  0.00  0.00     0.037 A 
ATOM     10  C   UNL d   1      30.980  16.183 -24.604  0.00  0.00     0.072 A 
ATOM     11 CL   UNL d   1      31.664  15.734 -24.686  0.00  0.00    -0.082 Cl
BRANCH   8  12
ATOM     12  O   UNL d   1      28.861  16.041 -25.097  0.00  0.00    -0.327 OA
ATOM     13  C   UNL d   1      28.456  15.460 -24.675  0.00  0.00     0.181 C 
ENDBRANCH   8  12
ENDBRANCH   1   4
BRANCH   1  14
ATOM     14  N   UNL d   1      32.449  17.496 -23.672  0.00  0.00    -0.155 NA
BRANCH  14  15
ATOM     15  C   UNL d   1      32.519  18.282 -23.471  0.00  0.00     0.131 C 
BRANCH  15  16
ATOM     16  C   UNL d   1      33.158  18.537 -23.015  0.00  0.00     0.102 C 
BRANCH  16  17
ATOM     17  N   UNL d   1      33.181  19.311 -22.732  0.00  0.00    -0.298 N 
ATOM     18  C   UNL d   1      33.168  19.945 -23.261  0.00  0.00     0.107 A 
ATOM     19  C   UNL d   1      33.191  20.719 -22.976  0.00  0.00     0.142 A 
ATOM     20  O   UNL d   1      33.228  20.863 -22.161  0.00  0.00    -0.300 OA
ATOM     21  C   UNL d   1      33.241  20.229 -21.632  0.00  0.00     0.142 A 
ATOM     22  C   UNL d   1      33.218  19.452 -21.919  0.00  0.00     0.107 A 
ENDBRANCH  16  17
ENDBRANCH  15  16
ENDBRANCH  14  15
ENDBRANCH   1  14
TORSDOF 6
ENDMDL
MODEL 2
REMARK VINA RESULT:      -1.7      2.824      5.665
REMARK  6 active torsions:
REMARK  status: ('A' for Active; 'I' for Inactive)
REMARK    1  A    between atoms: C_2  and  S_1 
REMARK    2  A    between atoms: N_10  and  S_1 
REMARK    3  A    between atoms: O_16  and  C_7 
REMARK    4  A    between atoms: C_13  and  N_10 
REMARK    5  A    between atoms: N_11  and  C_17 
REMARK    6  A    between atoms: C_17  and  C_13 
ROOT
ATOM      1  S   UNL d   1      33.058  20.517 -21.679  0.00  0.00     0.286 S 
ATOM      2  O   UNL d   1      32.872  20.190 -20.939  0.00  0.00    -0.198 OA
ATOM      3  O   UNL d   1      33.240  20.838 -22.405  0.00  0.00    -0.198 OA
ENDROOT
BRANCH   1   4
ATOM      4  C   UNL d   1      32.876  21.268 -21.393  0.00  0.00     0.117 A 
ATOM      5  C   UNL d   1      32.600  21.851 -21.909  0.00  0.00     0.027 A 
ATOM      6  C   UNL d   1      32.417  22.603 -21.623  0.00  0.00     0.081 A 
ATOM      7 CL   UNL d   1      32.140  23.190 -22.141  0.00  0.00    -0.080 Cl
ATOM      8  C   UNL d   1      32.511  22.772 -20.820  0.00  0.00     0.105 A 
ATOM      9  C   UNL d   1      32.784  22.193 -20.313  0.00  0.00     0.037 A 
ATOM     10  C   UNL d   1      32.966  21.441 -20.600  0.00  0.00     0.072 A 
ATOM     11 CL   UNL d   1      33.240  20.863 -20.083  0.00  0.00    -0.082 Cl
BRANCH   8  12
ATOM     12  O   UNL d   1      32.328  23.525 -20.534  0.00  0.00    -0.327 OA
ATOM     13  C   UNL d   1      32.129  23.626 -19.739  0.00  0.00     0.181 C 
ENDBRANCH   8  12
ENDBRANCH   1   4
BRANCH   1  14
ATOM     14  N   UNL d   1      33.240  19.765 -21.965  0.00  0.00    -0.155 NA
BRANCH  14  15
ATOM     15  C   UNL d   1      32.803  19.442 -22.572  0.00  0.00     0.131 C 
BRANCH  15  16
ATOM     16  C   UNL d   1      33.057  18.750 -22.941  0.00  0.00     0.102 C 
BRANCH  16  17
ATOM     17  N   UNL d   1      32.611  18.419 -23.551  0.00  0.00    -0.298 N 
ATOM     18  C   UNL d   1      32.100  17.790 -23.396  0.00  0.00     0.107 A 
ATOM     19  C   UNL d   1      31.654  17.461 -24.007  0.00  0.00     0.142 A 
ATOM     20  O   UNL d   1      31.717  17.759 -24.777  0.00  0.00    -0.300 OA
ATOM     21  C   UNL d   1      32.227  18.389 -24.933  0.00  0.00     0.142 A 
ATOM     22  C   UNL d   1      32.675  18.719 -24.318  0.00  0.00     0.107 A 
ENDBRANCH  16  17
ENDBRANCH  15  16
ENDBRANCH  14  15
ENDBRANCH   1  14
TORSDOF 6
ENDMDL
MODEL 3
REMARK VINA RESULT:      -1.6      2.163      5.066
REMARK  6 active torsions:
REMARK  status: ('A' for Active; 'I' for Inactive)
REMARK    1  A    between atoms: C_2  and  S_1 
REMARK    2  A    between atoms: N_10  and  S_1 
REMARK    3  A    between atoms: O_16  and  C_7 
REMARK    4  A    between atoms: C_13  and  N_10 
REMARK    5  A    between atoms: N_11  and  C_17 
REMARK    6  A    between atoms: C_17  and  C_13 
ROOT
ATOM      1  S   UNL d   1      33.048  19.145 -22.973  0.00  0.00     0.286 S 
ATOM      2  O   UNL d   1      33.241  18.764 -22.262  0.00  0.00    -0.198 OA
ATOM      3  O   UNL d   1      32.859  19.520 -23.672  0.00  0.00    -0.198 OA
ENDROOT
BRANCH   1   4
ATOM      4  C   UNL d   1      33.078  19.874 -22.591  0.00  0.00     0.117 A 
ATOM      5  C   UNL d   1      33.012  19.912 -21.768  0.00  0.00     0.027 A 
ATOM      6  C   UNL d   1      33.042  20.642 -21.385  0.00  0.00     0.081 A 
ATOM      7 CL   UNL d   1      32.975  20.682 -20.558  0.00  0.00    -0.080 Cl
ATOM      8  C   UNL d   1      33.139  21.334 -21.824  0.00  0.00     0.105 A 
ATOM      9  C   UNL d   1      33.204  21.293 -22.637  0.00  0.00     0.037 A 
ATOM     10  C   UNL d   1      33.174  20.563 -23.020  0.00  0.00     0.072 A 
ATOM     11 CL   UNL d   1      33.241  20.529 -23.839  0.00  0.00    -0.082 Cl
BRANCH   8  12
ATOM     12  O   UNL d   1      33.169  22.065 -21.441  0.00  0.00    -0.327 OA
ATOM     13  C   UNL d   1      33.003  22.757 -21.859  0.00  0.00     0.181 C 
ENDBRANCH   8  12
ENDBRANCH   1   4
BRANCH   1  14
ATOM     14  N   UNL d   1      33.018  18.415 -23.356  0.00  0.00    -0.155 NA
BRANCH  14  15
ATOM     15  C   UNL d   1      32.333  17.974 -23.340  0.00  0.00     0.131 C 
BRANCH  15  16
ATOM     16  C   UNL d   1      32.302  17.245 -23.726  0.00  0.00     0.102 C 
BRANCH  16  17
ATOM     17  N   UNL d   1      31.585  16.844 -23.792  0.00  0.00    -0.298 N 
ATOM     18  C   UNL d   1      31.433  16.187 -23.316  0.00  0.00     0.107 A 
ATOM     19  C   UNL d   1      30.715  15.786 -23.383  0.00  0.00     0.142 A 
ATOM     20  O   UNL d   1      30.145  16.040 -23.928  0.00  0.00    -0.300 OA
ATOM     21  C   UNL d   1      30.296  16.697 -24.405  0.00  0.00     0.142 A 
ATOM     22  C   UNL d   1      31.018  17.099 -24.336  0.00  0.00     0.107 A 
ENDBRANCH  16  17
ENDBRANCH  15  16
ENDBRANCH  14  15
ENDBRANCH   1  14
TORSDOF 6
ENDMDL
