MODEL 1
REMARK VINA RESULT:      21.5      0.000      0.000
REMARK  8 active torsions:
REMARK  status: ('A' for Active; 'I' for Inactive)
REMARK    1  A    between atoms: N_6  and  C_1 
REMARK    2  A    between atoms: N_8  and  C_2 
REMARK    3  A    between atoms: N_15  and  C_7 
REMARK    4  A    between atoms: C_12  and  N_8 
REMARK    5  A    between atoms: N_10  and  C_19 
REMARK    6  A    between atoms: C_24  and  N_15 
REMARK    7  A    between atoms: C_19  and  C_20 
REMARK    8  A    between atoms: C_20  and  C_24 
ROOT
ATOM      1  C   UNL d   1      44.420 -14.559  44.762  0.00  0.00     0.201 A 
ATOM      2  C   UNL d   1      45.191 -14.295  44.606  0.00  0.00     0.206 A 
ATOM      3  N   UNL d   1      45.773 -14.859  44.486  0.00  0.00    -0.038 NA
ATOM      4  N   UNL d   1      44.847 -15.903  44.672  0.00  0.00    -0.036 NA
ATOM      5  C   UNL d   1      44.249 -15.361  44.795  0.00  0.00     0.227 A 
ATOM      6  C   UNL d   1      45.602 -15.661  44.519  0.00  0.00     0.753 A 
ATOM      7  N   UNL d   1      43.478 -15.604  44.952  0.00  0.00    -0.125 N 
ENDROOT
BRANCH   6   8
ATOM      8  N   UNL d   1      46.197 -16.216  44.397  0.00  0.00    -0.058 NA
BRANCH   8   9
ATOM      9  C   UNL d   1      46.025 -17.021  44.448  0.00  0.00     0.120 C 
BRANCH   9  10
ATOM     10  C   UNL d   1      46.406 -17.554  43.949  0.00  0.00     0.040 C 
BRANCH  10  11
ATOM     11  C   UNL d   1      46.384 -18.362  44.113  0.00  0.00     0.082 C 
BRANCH  11  12
ATOM     12  N   UNL d   1      46.471 -18.913  43.505  0.00  0.00    -0.299 N 
ATOM     13  C   UNL d   1      46.479 -19.718  43.687  0.00  0.00     0.107 A 
ATOM     14  C   UNL d   1      46.566 -20.271  43.083  0.00  0.00     0.142 A 
ATOM     15  O   UNL d   1      46.645 -20.020  42.301  0.00  0.00    -0.300 OA
ATOM     16  C   UNL d   1      46.636 -19.215  42.123  0.00  0.00     0.142 A 
ATOM     17  C   UNL d   1      46.548 -18.655  42.730  0.00  0.00     0.107 A 
ENDBRANCH  11  12
ENDBRANCH  10  11
ENDBRANCH   9  10
ENDBRANCH   8   9
ENDBRANCH   6   8
BRANCH   2  18
ATOM     18  N   UNL d   1      45.363 -13.489  44.573  0.00  0.00    -0.225 NA
BRANCH  18  19
ATOM     19  C   UNL d   1      45.538 -13.129  43.850  0.00  0.00     0.085 A 
ATOM     20  C   UNL d   1      44.924 -12.929  43.324  0.00  0.00     0.049 A 
ATOM     21  C   UNL d   1      45.097 -12.574  42.610  0.00  0.00     0.142 A 
ATOM     22  F   UNL d   1      44.488 -12.376  42.089  0.00  0.00    -0.204 F 
ATOM     23  C   UNL d   1      45.883 -12.411  42.406  0.00  0.00     0.030 A 
ATOM     24  C   UNL d   1      46.491 -12.609  42.927  0.00  0.00     0.004 A 
ATOM     25  C   UNL d   1      46.317 -12.968  43.649  0.00  0.00     0.019 A 
ENDBRANCH  18  19
ENDBRANCH   2  18
BRANCH   1  26
ATOM     26  N   UNL d   1      43.811 -13.989  44.887  0.00  0.00    -0.107 N 
ATOM     27  O   UNL d   1      44.015 -13.179  44.948  0.00  0.00    -0.531 OA
ATOM     28  O   UNL d   1      43.013 -14.232  44.950  0.00  0.00    -0.531 OA
ENDBRANCH   1  26
TORSDOF 8
ENDMDL
