MODEL 1
REMARK VINA RESULT:      -8.2      0.000      0.000
REMARK  3 active torsions:
REMARK  status: ('A' for Active; 'I' for Inactive)
REMARK       I    between atoms: N_3  and  C_8 
REMARK    1  A    between atoms: S_12  and  C_6 
REMARK    2  A    between atoms: C_8  and  C_14 
REMARK    3  A    between atoms: C_14  and  S_12 
ROOT
ATOM      1  S   UNL d   1     -47.229  13.792  22.695  0.00  0.00    -0.060 SA
ENDROOT
BRANCH   1   2
ATOM      2  C   UNL d   1     -46.761  13.153  22.917  0.00  0.00     0.137 A 
ATOM      3  C   UNL d   1     -46.014  13.055  22.600  0.00  0.00     0.141 A 
ATOM      4  O   UNL d   1     -45.585  13.496  22.055  0.00  0.00    -0.303 OA
ATOM      5  C   UNL d   1     -45.557  12.412  22.830  0.00  0.00     0.110 A 
ATOM      6  C   UNL d   1     -44.862  13.122  21.951  0.00  0.00     0.102 A 
ATOM      7  C   UNL d   1     -44.203  13.303  21.476  0.00  0.00     0.025 A 
ATOM      8  C   UNL d   1     -44.845  12.456  22.428  0.00  0.00     0.043 A 
ATOM      9  C   UNL d   1     -43.543  12.818  21.486  0.00  0.00     0.002 A 
ATOM     10  C   UNL d   1     -43.527  12.152  21.963  0.00  0.00     0.000 A 
ATOM     11  C   UNL d   1     -44.176  11.968  22.435  0.00  0.00     0.004 A 
ATOM     12  N   UNL d   1     -45.845  11.870  23.375  0.00  0.00    -0.222 NA
ATOM     13  C   UNL d   1     -46.591  11.968  23.692  0.00  0.00     0.200 A 
ATOM     14  N   UNL d   1     -47.059  12.608  23.469  0.00  0.00    -0.215 NA
ENDBRANCH   1   2
BRANCH   1  15
ATOM     15  C   UNL d   1     -48.039  13.745  22.741  0.00  0.00     0.098 C 
BRANCH  15  16
ATOM     16  C   UNL d   1     -48.497  14.422  22.886  0.00  0.00     0.271 C 
ATOM     17  N   UNL d   1     -49.282  14.461  22.625  0.00  0.00    -0.273 N 
ATOM     18  C   UNL d   1     -49.613  13.830  22.222  0.00  0.00     0.067 A 
ATOM     19  C   UNL d   1     -49.739  15.142  22.772  0.00  0.00     0.083 A 
ATOM     20  C   UNL d   1     -50.395  13.864  21.961  0.00  0.00     0.016 A 
ATOM     21  C   UNL d   1     -49.159  13.155  22.077  0.00  0.00     0.018 A 
ATOM     22  C   UNL d   1     -50.737  13.227  21.551  0.00  0.00     0.001 A 
ATOM     23  C   UNL d   1     -50.848  14.539  22.106  0.00  0.00     0.003 A 
ATOM     24  C   UNL d   1     -50.273  12.553  21.410  0.00  0.00     0.000 A 
ATOM     25  C   UNL d   1     -49.492  12.515  21.669  0.00  0.00     0.002 A 
ATOM     26  C   UNL d   1     -50.522  15.173  22.509  0.00  0.00     0.019 A 
ATOM     27  O   UNL d   1     -48.163  15.061  23.293  0.00  0.00    -0.266 OA
ENDBRANCH  15  16
ENDBRANCH   1  15
TORSDOF 3
ENDMDL
