MODEL 1
REMARK VINA RESULT:      66.2      0.000      0.000
REMARK  5 active torsions:
REMARK  status: ('A' for Active; 'I' for Inactive)
REMARK    1  A    between atoms: S_3  and  C_10 
REMARK    2  A    between atoms: N_11  and  S_3 
REMARK    3  A    between atoms: C_12  and  C_4 
REMARK    4  A    between atoms: C_22  and  N_11 
REMARK    5  A    between atoms: C_23  and  N_11 
ROOT
ATOM      1  C   UNL d   1      58.197  49.263  50.477  0.00  0.00     0.104 A 
ATOM      2  C   UNL d   1      59.828  49.423  50.641  0.00  0.00     0.036 A 
ATOM      3  C   UNL d   1      58.511  49.627  51.160  0.00  0.00     0.013 A 
ATOM      4  C   UNL d   1      58.694  48.985  49.888  0.00  0.00     0.013 A 
ATOM      5  C   UNL d   1      59.326  49.705  51.237  0.00  0.00     0.004 A 
ATOM      6  C   UNL d   1      59.510  49.064  49.970  0.00  0.00     0.004 A 
ENDROOT
BRANCH   2   7
ATOM      7  C   UNL d   1      60.645  49.501  50.720  0.00  0.00     0.171 A 
ATOM      8  N   UNL d   1      61.063  49.566  51.432  0.00  0.00    -0.269 N 
ATOM      9  C   UNL d   1      61.859  49.633  51.254  0.00  0.00     0.201 A 
ATOM     10  C   UNL d   1      60.976  49.587  52.248  0.00  0.00     0.073 A 
ATOM     11  N   UNL d   1      61.949  49.612  50.435  0.00  0.00    -0.121 NA
ATOM     12  S   UNL d   1      62.285  49.698  51.963  0.00  0.00    -0.047 SA
ATOM     13  N   UNL d   1      61.192  49.530  50.102  0.00  0.00    -0.128 NA
ATOM     14  C   UNL d   1      61.738  49.670  52.585  0.00  0.00     0.049 A 
ATOM     15  C   UNL d   1      61.827  49.707  53.400  0.00  0.00     0.008 A 
ATOM     16  C   UNL d   1      61.159  49.663  53.890  0.00  0.00     0.001 A 
ATOM     17  C   UNL d   1      60.408  49.582  53.565  0.00  0.00     0.002 A 
ATOM     18  C   UNL d   1      60.323  49.545  52.740  0.00  0.00     0.017 A 
ATOM     19  C   UNL d   1      59.565  49.463  52.413  0.00  0.00     0.002 C 
ENDBRANCH   2   7
BRANCH   1  20
ATOM     20  S   UNL d   1      57.373  49.182  50.394  0.00  0.00     0.271 S 
ATOM     21  O   UNL d   1      57.399  49.640  49.700  0.00  0.00    -0.200 OA
ATOM     22  O   UNL d   1      57.352  48.730  51.079  0.00  0.00    -0.200 OA
BRANCH  20  23
ATOM     23  N   UNL d   1      56.556  49.104  50.308  0.00  0.00    -0.229 N 
BRANCH  23  24
ATOM     24  C   UNL d   1      56.228  48.962  49.552  0.00  0.00     0.092 C 
ATOM     25  C   UNL d   1      56.044  49.593  49.058  0.00  0.00     0.021 C 
ENDBRANCH  23  24
BRANCH  23  26
ATOM     26  C   UNL d   1      56.063  49.166  50.967  0.00  0.00     0.092 C 
ATOM     27  C   UNL d   1      56.037  48.547  51.517  0.00  0.00     0.021 C 
ENDBRANCH  23  26
ENDBRANCH  20  23
ENDBRANCH   1  20
TORSDOF 5
ENDMDL
