MODEL 1
REMARK VINA RESULT:      -1.0      0.000      0.000
REMARK  10 active torsions:
REMARK  status: ('A' for Active; 'I' for Inactive)
REMARK    1  A    between atoms: C_10  and  N_1 
REMARK    2  A    between atoms: S_7  and  C_2 
REMARK    3  A    between atoms: C_9  and  C_3 
REMARK       I    between atoms: C_6  and  N_8 
REMARK    4  A    between atoms: C_11  and  C_6 
REMARK    5  A    between atoms: C_15  and  S_7 
REMARK    6  A    between atoms: N_8  and  C_9 
REMARK    7  A    between atoms: C_12  and  C_15 
REMARK    8  A    between atoms: O_21  and  C_12 
REMARK    9  A    between atoms: O_22  and  C_18 
REMARK   10  A    between atoms: C_25  and  O_21 
ROOT
ATOM      1  N   UNL d   1      33.169  21.211 -22.995  0.00  0.00    -0.268 N 
ATOM      2  C   UNL d   1      33.165  21.363 -22.183  0.00  0.00     0.201 A 
ATOM      3  C   UNL d   1      33.216  20.385 -23.088  0.00  0.00     0.190 A 
ATOM      4  N   UNL d   1      33.210  20.639 -21.781  0.00  0.00    -0.121 NA
ATOM      5  N   UNL d   1      33.241  20.039 -22.332  0.00  0.00    -0.126 NA
ENDROOT
BRANCH   3   6
ATOM      6  C   UNL d   1      33.235  19.977 -23.807  0.00  0.00     0.141 C 
BRANCH   6   7
ATOM      7  N   UNL d   1      32.942  19.227 -23.607  0.00  0.00    -0.203 NA
ATOM      8  C   UNL d   1      32.863  18.650 -24.193  0.00  0.00     0.279 C 
ATOM      9  O   UNL d   1      33.072  18.814 -24.970  0.00  0.00    -0.265 OA
BRANCH   8  10
ATOM     10  C   UNL d   1      32.571  17.906 -23.989  0.00  0.00     0.058 A 
ATOM     11  C   UNL d   1      33.050  17.361 -23.609  0.00  0.00     0.007 A 
ATOM     12  C   UNL d   1      32.758  16.617 -23.404  0.00  0.00     0.024 A 
ATOM     13  C   UNL d   1      31.975  16.426 -23.587  0.00  0.00     0.094 A 
ATOM     14  C   UNL d   1      31.496  16.971 -23.966  0.00  0.00     0.024 A 
ATOM     15  C   UNL d   1      31.787  17.715 -24.171  0.00  0.00     0.007 A 
BRANCH  13  16
ATOM     16  O   UNL d   1      31.684  15.681 -23.382  0.00  0.00    -0.328 OA
ATOM     17  C   UNL d   1      31.186  15.603 -22.736  0.00  0.00     0.181 C 
ENDBRANCH  13  16
ENDBRANCH   8  10
ENDBRANCH   6   7
ENDBRANCH   3   6
BRANCH   1  18
ATOM     18  C   UNL d   1      33.133  21.766 -23.589  0.00  0.00     0.067 A 
ATOM     19  C   UNL d   1      33.039  21.524 -24.369  0.00  0.00     0.018 A 
ATOM     20  C   UNL d   1      33.003  22.088 -24.973  0.00  0.00     0.002 A 
ATOM     21  C   UNL d   1      33.060  22.891 -24.795  0.00  0.00     0.000 A 
ATOM     22  C   UNL d   1      33.153  23.127 -24.013  0.00  0.00     0.002 A 
ATOM     23  C   UNL d   1      33.189  22.569 -23.415  0.00  0.00     0.018 A 
ENDBRANCH   1  18
BRANCH   2  24
ATOM     24  S   UNL d   1      33.124  22.110 -21.828  0.00  0.00    -0.042 SA
BRANCH  24  25
ATOM     25  C   UNL d   1      33.146  22.183 -21.007  0.00  0.00     0.107 C 
BRANCH  25  26
ATOM     26  C   UNL d   1      32.846  22.861 -20.653  0.00  0.00     0.307 C 
ATOM     27  O   UNL d   1      32.834  23.568 -21.061  0.00  0.00    -0.258 OA
BRANCH  26  28
ATOM     28  O   UNL d   1      32.556  22.822 -19.881  0.00  0.00    -0.271 OA
BRANCH  28  29
ATOM     29  C   UNL d   1      32.997  23.140 -19.266  0.00  0.00     0.126 C 
ATOM     30  C   UNL d   1      32.930  22.822 -18.509  0.00  0.00     0.029 C 
ENDBRANCH  28  29
ENDBRANCH  26  28
ENDBRANCH  25  26
ENDBRANCH  24  25
ENDBRANCH   2  24
TORSDOF 10
ENDMDL
MODEL 2
REMARK VINA RESULT:      -0.4      1.110      5.468
REMARK  10 active torsions:
REMARK  status: ('A' for Active; 'I' for Inactive)
REMARK    1  A    between atoms: C_10  and  N_1 
REMARK    2  A    between atoms: S_7  and  C_2 
REMARK    3  A    between atoms: C_9  and  C_3 
REMARK       I    between atoms: C_6  and  N_8 
REMARK    4  A    between atoms: C_11  and  C_6 
REMARK    5  A    between atoms: C_15  and  S_7 
REMARK    6  A    between atoms: N_8  and  C_9 
REMARK    7  A    between atoms: C_12  and  C_15 
REMARK    8  A    between atoms: O_21  and  C_12 
REMARK    9  A    between atoms: O_22  and  C_18 
REMARK   10  A    between atoms: C_25  and  O_21 
ROOT
ATOM      1  N   UNL d   1      32.896  20.751 -22.857  0.00  0.00    -0.268 N 
ATOM      2  C   UNL d   1      32.811  19.950 -22.678  0.00  0.00     0.201 A 
ATOM      3  C   UNL d   1      32.842  21.168 -22.138  0.00  0.00     0.190 A 
ATOM      4  N   UNL d   1      32.707  19.874 -21.859  0.00  0.00    -0.121 NA
ATOM      5  N   UNL d   1      32.725  20.617 -21.526  0.00  0.00    -0.126 NA
ENDROOT
BRANCH   3   6
ATOM      6  C   UNL d   1      32.896  21.988 -22.047  0.00  0.00     0.141 C 
BRANCH   6   7
ATOM      7  N   UNL d   1      32.782  22.096 -21.232  0.00  0.00    -0.203 NA
ATOM      8  C   UNL d   1      32.735  22.861 -20.924  0.00  0.00     0.279 C 
ATOM      9  O   UNL d   1      32.800  23.513 -21.418  0.00  0.00    -0.265 OA
BRANCH   8  10
ATOM     10  C   UNL d   1      32.622  22.962 -20.113  0.00  0.00     0.058 A 
ATOM     11  C   UNL d   1      31.907  23.238 -19.823  0.00  0.00     0.007 A 
ATOM     12  C   UNL d   1      31.793  23.339 -19.012  0.00  0.00     0.024 A 
ATOM     13  C   UNL d   1      32.410  23.158 -18.492  0.00  0.00     0.094 A 
ATOM     14  C   UNL d   1      33.125  22.882 -18.782  0.00  0.00     0.024 A 
ATOM     15  C   UNL d   1      33.239  22.781 -19.592  0.00  0.00     0.007 A 
BRANCH  13  16
ATOM     16  O   UNL d   1      32.296  23.260 -17.682  0.00  0.00    -0.328 OA
ATOM     17  C   UNL d   1      32.936  23.427 -17.199  0.00  0.00     0.181 C 
ENDBRANCH  13  16
ENDBRANCH   8  10
ENDBRANCH   6   7
ENDBRANCH   3   6
BRANCH   1  18
ATOM     18  C   UNL d   1      33.010  21.071 -23.597  0.00  0.00     0.067 A 
ATOM     19  C   UNL d   1      33.056  20.577 -24.253  0.00  0.00     0.018 A 
ATOM     20  C   UNL d   1      33.171  20.902 -25.004  0.00  0.00     0.002 A 
ATOM     21  C   UNL d   1      33.241  21.719 -25.097  0.00  0.00     0.000 A 
ATOM     22  C   UNL d   1      33.194  22.207 -24.437  0.00  0.00     0.002 A 
ATOM     23  C   UNL d   1      33.079  21.886 -23.694  0.00  0.00     0.018 A 
ENDBRANCH   1  18
BRANCH   2  24
ATOM     24  S   UNL d   1      32.827  19.325 -23.222  0.00  0.00    -0.042 SA
BRANCH  24  25
ATOM     25  C   UNL d   1      32.827  18.543 -22.960  0.00  0.00     0.107 C 
BRANCH  25  26
ATOM     26  C   UNL d   1      32.578  17.947 -23.466  0.00  0.00     0.307 C 
ATOM     27  O   UNL d   1      32.126  18.125 -24.122  0.00  0.00    -0.258 OA
BRANCH  26  28
ATOM     28  O   UNL d   1      32.789  17.165 -23.308  0.00  0.00    -0.271 OA
BRANCH  28  29
ATOM     29  C   UNL d   1      32.235  16.567 -23.407  0.00  0.00     0.126 C 
ATOM     30  C   UNL d   1      32.395  15.811 -23.120  0.00  0.00     0.029 C 
ENDBRANCH  28  29
ENDBRANCH  26  28
ENDBRANCH  25  26
ENDBRANCH  24  25
ENDBRANCH   2  24
TORSDOF 10
ENDMDL
