MODEL 1
REMARK VINA RESULT:      -3.8      0.000      0.000
REMARK  7 active torsions:
REMARK  status: ('A' for Active; 'I' for Inactive)
REMARK    1  A    between atoms: C_3  and  C_1 
REMARK    2  A    between atoms: C_4  and  C_1 
REMARK    3  A    between atoms: N_2  and  C_6 
REMARK    4  A    between atoms: C_6  and  C_13 
REMARK    5  A    between atoms: O_12  and  C_14 
REMARK    6  A    between atoms: C_16  and  O_12 
REMARK    7  A    between atoms: C_13  and  C_16 
ROOT
ATOM      1  C   UNL d   1      56.603   0.087  33.002  0.00  0.00     0.039 A 
ATOM      2  C   UNL d   1      56.674   0.571  32.332  0.00  0.00     0.005 A 
ATOM      3  C   UNL d   1      56.744  -0.718  32.941  0.00  0.00     0.005 A 
ATOM      4  C   UNL d   1      57.024  -0.563  31.557  0.00  0.00     0.100 A 
ATOM      5  C   UNL d   1      56.883   0.242  31.619  0.00  0.00     0.025 A 
ATOM      6  C   UNL d   1      56.957  -1.045  32.208  0.00  0.00     0.025 A 
ENDROOT
BRANCH   4   7
ATOM      7  O   UNL d   1      57.239  -0.889  30.816  0.00  0.00    -0.302 OA
BRANCH   7   8
ATOM      8  C   UNL d   1      58.037  -0.874  30.549  0.00  0.00     0.166 C 
BRANCH   8   9
ATOM      9  C   UNL d   1      58.244  -1.241  29.830  0.00  0.00     0.238 C 
ATOM     10  O   UNL d   1      58.186  -2.061  29.753  0.00  0.00    -0.283 OA
BRANCH   9  11
ATOM     11  C   UNL d   1      58.507  -0.781  29.194  0.00  0.00     0.125 C 
BRANCH  11  12
ATOM     12  N   UNL d   1      59.282  -0.482  29.189  0.00  0.00    -0.296 N 
ATOM     13  C   UNL d   1      59.409   0.332  29.231  0.00  0.00     0.107 A 
ATOM     14  C   UNL d   1      60.185   0.620  29.226  0.00  0.00     0.142 A 
ATOM     15  O   UNL d   1      60.831   0.096  29.179  0.00  0.00    -0.300 OA
ATOM     16  C   UNL d   1      60.690  -0.717  29.138  0.00  0.00     0.142 A 
ATOM     17  C   UNL d   1      59.923  -1.012  29.143  0.00  0.00     0.107 A 
ENDBRANCH  11  12
ENDBRANCH   9  11
ENDBRANCH   8   9
ENDBRANCH   7   8
ENDBRANCH   4   7
BRANCH   1  18
ATOM     18  C   UNL d   1      56.391   0.415  33.727  0.00  0.00     0.196 C 
ATOM     19  O   UNL d   1      56.973   0.676  34.248  0.00  0.00    -0.287 OA
BRANCH  18  20
ATOM     20  C   UNL d   1      55.596   0.481  33.929  0.00  0.00     0.039 A 
ATOM     21  C   UNL d   1      55.376   0.559  34.723  0.00  0.00     0.004 A 
ATOM     22  C   UNL d   1      54.584   0.625  34.928  0.00  0.00     0.011 A 
ATOM     23  C   UNL d   1      54.003   0.614  34.337  0.00  0.00     0.058 A 
ATOM     24  C   UNL d   1      54.222   0.537  33.545  0.00  0.00     0.011 A 
ATOM     25 CL   UNL d   1      53.208   0.680  34.540  0.00  0.00    -0.082 Cl
ATOM     26  C   UNL d   1      55.021   0.471  33.344  0.00  0.00     0.004 A 
ENDBRANCH  18  20
ENDBRANCH   1  18
TORSDOF 7
ENDMDL
MODEL 2
REMARK VINA RESULT:      -3.0      1.206      1.485
REMARK  7 active torsions:
REMARK  status: ('A' for Active; 'I' for Inactive)
REMARK    1  A    between atoms: C_3  and  C_1 
REMARK    2  A    between atoms: C_4  and  C_1 
REMARK    3  A    between atoms: N_2  and  C_6 
REMARK    4  A    between atoms: C_6  and  C_13 
REMARK    5  A    between atoms: O_12  and  C_14 
REMARK    6  A    between atoms: C_16  and  O_12 
REMARK    7  A    between atoms: C_13  and  C_16 
ROOT
ATOM      1  C   UNL d   1      56.665  -0.610  32.348  0.00  0.00     0.039 A 
ATOM      2  C   UNL d   1      57.248  -0.049  32.530  0.00  0.00     0.005 A 
ATOM      3  C   UNL d   1      56.484  -0.770  31.564  0.00  0.00     0.005 A 
ATOM      4  C   UNL d   1      57.454   0.178  31.146  0.00  0.00     0.100 A 
ATOM      5  C   UNL d   1      57.636   0.338  31.929  0.00  0.00     0.025 A 
ATOM      6  C   UNL d   1      56.885  -0.370  30.958  0.00  0.00     0.025 A 
ENDROOT
BRANCH   4   7
ATOM      7  O   UNL d   1      57.862   0.584  30.537  0.00  0.00    -0.302 OA
BRANCH   7   8
ATOM      8  C   UNL d   1      58.646   0.371  30.320  0.00  0.00     0.166 C 
BRANCH   8   9
ATOM      9  C   UNL d   1      58.874   0.377  29.519  0.00  0.00     0.238 C 
ATOM     10  O   UNL d   1      58.302   0.428  28.926  0.00  0.00    -0.283 OA
BRANCH   9  11
ATOM     11  C   UNL d   1      59.677   0.331  29.319  0.00  0.00     0.125 C 
BRANCH  11  12
ATOM     12  N   UNL d   1      60.001  -0.389  29.059  0.00  0.00    -0.296 N 
ATOM     13  C   UNL d   1      60.809  -0.528  29.139  0.00  0.00     0.107 A 
ATOM     14  C   UNL d   1      61.121  -1.249  28.876  0.00  0.00     0.142 A 
ATOM     15  O   UNL d   1      60.627  -1.826  28.535  0.00  0.00    -0.300 OA
ATOM     16  C   UNL d   1      59.819  -1.673  28.461  0.00  0.00     0.142 A 
ATOM     17  C   UNL d   1      59.499  -0.961  28.719  0.00  0.00     0.107 A 
ENDBRANCH  11  12
ENDBRANCH   9  11
ENDBRANCH   8   9
ENDBRANCH   7   8
ENDBRANCH   4   7
BRANCH   1  18
ATOM     18  C   UNL d   1      56.270  -1.005  32.952  0.00  0.00     0.196 C 
ATOM     19  O   UNL d   1      56.358  -1.820  33.041  0.00  0.00    -0.287 OA
BRANCH  18  20
ATOM     20  C   UNL d   1      55.786  -0.583  33.468  0.00  0.00     0.039 A 
ATOM     21  C   UNL d   1      55.882  -0.667  34.285  0.00  0.00     0.004 A 
ATOM     22  C   UNL d   1      55.401  -0.249  34.803  0.00  0.00     0.011 A 
ATOM     23  C   UNL d   1      54.819   0.260  34.504  0.00  0.00     0.058 A 
ATOM     24  C   UNL d   1      54.723   0.343  33.688  0.00  0.00     0.011 A 
ATOM     25 CL   UNL d   1      54.336   0.681  35.020  0.00  0.00    -0.082 Cl
ATOM     26  C   UNL d   1      55.209  -0.081  33.172  0.00  0.00     0.004 A 
ENDBRANCH  18  20
ENDBRANCH   1  18
TORSDOF 7
ENDMDL
MODEL 3
REMARK VINA RESULT:      -1.0      2.618      5.937
REMARK  7 active torsions:
REMARK  status: ('A' for Active; 'I' for Inactive)
REMARK    1  A    between atoms: C_3  and  C_1 
REMARK    2  A    between atoms: C_4  and  C_1 
REMARK    3  A    between atoms: N_2  and  C_6 
REMARK    4  A    between atoms: C_6  and  C_13 
REMARK    5  A    between atoms: O_12  and  C_14 
REMARK    6  A    between atoms: C_16  and  O_12 
REMARK    7  A    between atoms: C_13  and  C_16 
ROOT
ATOM      1  C   UNL d   1      58.860  -1.185  29.498  0.00  0.00     0.039 A 
ATOM      2  C   UNL d   1      58.376  -0.554  29.262  0.00  0.00     0.005 A 
ATOM      3  C   UNL d   1      58.739  -1.543  30.226  0.00  0.00     0.005 A 
ATOM      4  C   UNL d   1      57.663  -0.653  30.484  0.00  0.00     0.100 A 
ATOM      5  C   UNL d   1      57.785  -0.295  29.756  0.00  0.00     0.025 A 
ATOM      6  C   UNL d   1      58.133  -1.271  30.722  0.00  0.00     0.025 A 
ENDROOT
BRANCH   4   7
ATOM      7  O   UNL d   1      57.050  -0.376  30.983  0.00  0.00    -0.302 OA
BRANCH   7   8
ATOM      8  C   UNL d   1      57.028  -0.578  31.799  0.00  0.00     0.166 C 
BRANCH   8   9
ATOM      9  C   UNL d   1      56.311  -0.531  32.221  0.00  0.00     0.238 C 
ATOM     10  O   UNL d   1      55.820  -1.192  32.278  0.00  0.00    -0.283 OA
BRANCH   9  11
ATOM     11  C   UNL d   1      56.092   0.181  32.583  0.00  0.00     0.125 C 
BRANCH  11  12
ATOM     12  N   UNL d   1      56.292   0.324  33.377  0.00  0.00    -0.296 N 
ATOM     13  C   UNL d   1      55.700   0.376  33.947  0.00  0.00     0.107 A 
ATOM     14  C   UNL d   1      55.911   0.518  34.735  0.00  0.00     0.142 A 
ATOM     15  O   UNL d   1      56.711   0.608  34.951  0.00  0.00    -0.300 OA
ATOM     16  C   UNL d   1      57.294   0.553  34.369  0.00  0.00     0.142 A 
ATOM     17  C   UNL d   1      57.095   0.412  33.584  0.00  0.00     0.107 A 
ENDBRANCH  11  12
ENDBRANCH   9  11
ENDBRANCH   8   9
ENDBRANCH   7   8
ENDBRANCH   4   7
BRANCH   1  18
ATOM     18  C   UNL d   1      59.461  -1.451  29.002  0.00  0.00     0.196 C 
ATOM     19  O   UNL d   1      59.804  -0.938  28.456  0.00  0.00    -0.287 OA
BRANCH  18  20
ATOM     20  C   UNL d   1      59.717  -2.232  29.053  0.00  0.00     0.039 A 
ATOM     21  C   UNL d   1      60.526  -2.398  29.108  0.00  0.00     0.004 A 
ATOM     22  C   UNL d   1      60.786  -3.174  29.160  0.00  0.00     0.011 A 
ATOM     23  C   UNL d   1      60.236  -3.794  29.156  0.00  0.00     0.058 A 
ATOM     24  C   UNL d   1      59.428  -3.628  29.101  0.00  0.00     0.011 A 
ATOM     25 CL   UNL d   1      60.493  -4.574  29.207  0.00  0.00    -0.082 Cl
ATOM     26  C   UNL d   1      59.173  -2.845  29.049  0.00  0.00     0.004 A 
ENDBRANCH  18  20
ENDBRANCH   1  18
TORSDOF 7
ENDMDL
