MODEL 1
REMARK VINA RESULT:      38.3      0.000      0.000
REMARK  5 active torsions:
REMARK  status: ('A' for Active; 'I' for Inactive)
REMARK    1  A    between atoms: C_10  and  C_3 
REMARK    2  A    between atoms: C_11  and  N_5 
REMARK    3  A    between atoms: O_17  and  C_10 
REMARK    4  A    between atoms: C_22  and  O_17 
REMARK    5  A    between atoms: O_21  and  C_18 
ROOT
ATOM      1  C   UNL d   1      13.409  13.059  -3.864  0.00  0.00     0.086 A 
ATOM      2  C   UNL d   1      13.553  12.508  -3.273  0.00  0.00     0.038 A 
ATOM      3  C   UNL d   1      13.939  12.720  -2.572  0.00  0.00     0.165 A 
ATOM      4  C   UNL d   1      13.654  13.845  -3.758  0.00  0.00     0.282 A 
ATOM      5  N   UNL d   1      14.038  14.068  -3.066  0.00  0.00    -0.194 N 
ATOM      6  N   UNL d   1      14.180  13.506  -2.475  0.00  0.00    -0.157 NA
ATOM      7  C   UNL d   1      13.019  12.676  -4.484  0.00  0.00     0.137 A 
ATOM      8  C   UNL d   1      13.255  11.779  -3.519  0.00  0.00     0.039 A 
ATOM      9  S   UNL d   1      12.925  11.887  -4.269  0.00  0.00    -0.066 SA
ATOM     10  O   UNL d   1      13.514  14.404  -4.343  0.00  0.00    -0.265 OA
ATOM     11  N   UNL d   1      12.769  13.026  -5.191  0.00  0.00    -0.141 N 
ENDROOT
BRANCH   5  12
ATOM     12  C   UNL d   1      14.282  14.848  -2.961  0.00  0.00     0.086 A 
ATOM     13  C   UNL d   1      14.331  15.361  -3.611  0.00  0.00     0.021 A 
ATOM     14  C   UNL d   1      14.575  16.141  -3.500  0.00  0.00     0.026 A 
ATOM     15  C   UNL d   1      14.770  16.412  -2.747  0.00  0.00     0.094 A 
ATOM     16  C   UNL d   1      14.721  15.899  -2.097  0.00  0.00     0.026 A 
ATOM     17  C   UNL d   1      14.475  15.116  -2.211  0.00  0.00     0.021 A 
BRANCH  15  18
ATOM     18  O   UNL d   1      15.013  17.191  -2.645  0.00  0.00    -0.328 OA
ATOM     19  C   UNL d   1      15.493  17.393  -1.998  0.00  0.00     0.181 C 
ENDBRANCH  15  18
ENDBRANCH   5  12
BRANCH   3  20
ATOM     20  C   UNL d   1      14.081  12.163  -1.983  0.00  0.00     0.320 C 
ATOM     21  O   UNL d   1      14.820  11.790  -1.935  0.00  0.00    -0.257 OA
BRANCH  20  22
ATOM     22  O   UNL d   1      13.487  11.977  -1.438  0.00  0.00    -0.270 OA
BRANCH  22  23
ATOM     23  C   UNL d   1      13.685  11.780  -0.666  0.00  0.00     0.126 C 
ATOM     24  C   UNL d   1      13.643  12.343  -0.066  0.00  0.00     0.029 C 
ENDBRANCH  22  23
ENDBRANCH  20  22
ENDBRANCH   3  20
TORSDOF 5
ENDMDL
MODEL 2
REMARK VINA RESULT:      40.2      1.399      2.652
REMARK  5 active torsions:
REMARK  status: ('A' for Active; 'I' for Inactive)
REMARK    1  A    between atoms: C_10  and  C_3 
REMARK    2  A    between atoms: C_11  and  N_5 
REMARK    3  A    between atoms: O_17  and  C_10 
REMARK    4  A    between atoms: C_22  and  O_17 
REMARK    5  A    between atoms: O_21  and  C_18 
ROOT
ATOM      1  C   UNL d   1      14.672  13.038  -1.357  0.00  0.00     0.086 A 
ATOM      2  C   UNL d   1      14.277  12.581  -1.913  0.00  0.00     0.038 A 
ATOM      3  C   UNL d   1      14.008  12.907  -2.624  0.00  0.00     0.165 A 
ATOM      4  C   UNL d   1      14.804  13.842  -1.509  0.00  0.00     0.282 A 
ATOM      5  N   UNL d   1      14.540  14.178  -2.212  0.00  0.00    -0.194 N 
ATOM      6  N   UNL d   1      14.143  13.711  -2.768  0.00  0.00    -0.157 NA
ATOM      7  C   UNL d   1      14.865  12.552  -0.716  0.00  0.00     0.137 A 
ATOM      8  C   UNL d   1      14.222  11.810  -1.624  0.00  0.00     0.039 A 
ATOM      9  S   UNL d   1      14.587  11.796  -0.883  0.00  0.00    -0.066 SA
ATOM     10  O   UNL d   1      15.198  14.308  -0.959  0.00  0.00    -0.265 OA
ATOM     11  N   UNL d   1      15.267  12.789  -0.032  0.00  0.00    -0.141 N 
ENDROOT
BRANCH   5  12
ATOM     12  C   UNL d   1      14.672  14.977  -2.363  0.00  0.00     0.086 A 
ATOM     13  C   UNL d   1      15.076  15.446  -1.810  0.00  0.00     0.021 A 
ATOM     14  C   UNL d   1      15.205  16.246  -1.967  0.00  0.00     0.026 A 
ATOM     15  C   UNL d   1      14.933  16.580  -2.669  0.00  0.00     0.094 A 
ATOM     16  C   UNL d   1      14.529  16.112  -3.221  0.00  0.00     0.026 A 
ATOM     17  C   UNL d   1      14.401  15.309  -3.062  0.00  0.00     0.021 A 
BRANCH  15  18
ATOM     18  O   UNL d   1      15.065  17.378  -2.817  0.00  0.00    -0.328 OA
ATOM     19  C   UNL d   1      15.241  17.631  -3.588  0.00  0.00     0.181 C 
ENDBRANCH  15  18
ENDBRANCH   5  12
BRANCH   3  20
ATOM     20  C   UNL d   1      13.612  12.445  -3.179  0.00  0.00     0.320 C 
ATOM     21  O   UNL d   1      13.170  11.788  -2.931  0.00  0.00    -0.257 OA
BRANCH  20  22
ATOM     22  O   UNL d   1      13.656  12.635  -3.983  0.00  0.00    -0.270 OA
BRANCH  22  23
ATOM     23  C   UNL d   1      13.173  12.249  -4.523  0.00  0.00     0.126 C 
ATOM     24  C   UNL d   1      13.371  12.228  -5.323  0.00  0.00     0.029 C 
ENDBRANCH  22  23
ENDBRANCH  20  22
ENDBRANCH   3  20
TORSDOF 5
ENDMDL
