MODEL 1
REMARK VINA RESULT:      33.7      0.000      0.000
REMARK  6 active torsions:
REMARK  status: ('A' for Active; 'I' for Inactive)
REMARK    1  A    between atoms: C_9  and  C_2 
REMARK    2  A    between atoms: N_3  and  C_7 
REMARK       I    between atoms: C_8  and  N_14 
REMARK    3  A    between atoms: C_10  and  C_8 
REMARK    4  A    between atoms: C_13  and  C_10 
REMARK    5  A    between atoms: C_19  and  C_13 
REMARK    6  A    between atoms: N_14  and  C_20 
ROOT
ATOM      1  C   UNL d   1      46.313 -18.421  41.599  0.00  0.00     0.041 A 
ATOM      2  C   UNL d   1      46.217 -17.614  41.499  0.00  0.00     0.005 A 
ATOM      3  C   UNL d   1      46.346 -18.942  40.973  0.00  0.00     0.005 A 
ATOM      4  C   UNL d   1      46.184 -17.844  40.102  0.00  0.00     0.085 A 
ATOM      5  C   UNL d   1      46.153 -17.341  40.714  0.00  0.00     0.019 A 
ATOM      6  C   UNL d   1      46.280 -18.651  40.207  0.00  0.00     0.019 A 
ENDROOT
BRANCH   4   7
ATOM      7  N   UNL d   1      46.115 -17.527  39.345  0.00  0.00    -0.208 NA
ATOM      8  C   UNL d   1      45.381 -17.541  38.958  0.00  0.00     0.279 C 
ATOM      9  O   UNL d   1      44.741 -17.872  39.344  0.00  0.00    -0.265 OA
BRANCH   8  10
ATOM     10  C   UNL d   1      45.308 -17.224  38.198  0.00  0.00     0.062 C 
BRANCH  10  11
ATOM     11  C   UNL d   1      44.634 -16.824  37.968  0.00  0.00     0.005 C 
BRANCH  11  12
ATOM     12  C   UNL d   1      44.666 -16.166  37.439  0.00  0.00     0.002 A 
ATOM     13  C   UNL d   1      45.331 -15.676  37.432  0.00  0.00     0.024 A 
ATOM     14  C   UNL d   1      45.358 -15.019  36.900  0.00  0.00     0.127 A 
ATOM     15  C   UNL d   1      44.713 -14.881  36.397  0.00  0.00     0.024 A 
ATOM     16  C   UNL d   1      44.059 -15.384  36.421  0.00  0.00     0.002 A 
ATOM     17  C   UNL d   1      44.028 -16.029  36.940  0.00  0.00     0.000 A 
BRANCH  14  18
ATOM     18  N   UNL d   1      46.010 -14.523  36.880  0.00  0.00    -0.114 N 
ATOM     19  O   UNL d   1      46.645 -14.565  36.330  0.00  0.00    -0.532 OA
ATOM     20  O   UNL d   1      46.126 -13.901  37.412  0.00  0.00    -0.532 OA
ENDBRANCH  14  18
ENDBRANCH  11  12
ENDBRANCH  10  11
ENDBRANCH   8  10
ENDBRANCH   4   7
BRANCH   1  21
ATOM     21  C   UNL d   1      46.379 -18.704  42.377  0.00  0.00     0.182 A 
ATOM     22  N   UNL d   1      46.535 -18.345  43.110  0.00  0.00    -0.220 NA
ATOM     23  C   UNL d   1      46.527 -18.926  43.687  0.00  0.00     0.106 A 
ATOM     24  C   UNL d   1      46.367 -19.642  43.314  0.00  0.00     0.119 A 
ATOM     25  C   UNL d   1      46.646 -18.895  44.508  0.00  0.00     0.021 A 
ATOM     26  C   UNL d   1      46.325 -20.329  43.759  0.00  0.00     0.026 A 
ATOM     27  O   UNL d   1      46.280 -19.502  42.533  0.00  0.00    -0.288 OA
ATOM     28  C   UNL d   1      46.438 -20.320  44.562  0.00  0.00     0.002 A 
ATOM     29  C   UNL d   1      46.602 -19.598  44.955  0.00  0.00     0.002 A 
ENDBRANCH   1  21
TORSDOF 6
ENDMDL
MODEL 2
REMARK VINA RESULT:      34.6      1.354      1.591
REMARK  6 active torsions:
REMARK  status: ('A' for Active; 'I' for Inactive)
REMARK    1  A    between atoms: C_9  and  C_2 
REMARK    2  A    between atoms: N_3  and  C_7 
REMARK       I    between atoms: C_8  and  N_14 
REMARK    3  A    between atoms: C_10  and  C_8 
REMARK    4  A    between atoms: C_13  and  C_10 
REMARK    5  A    between atoms: C_19  and  C_13 
REMARK    6  A    between atoms: N_14  and  C_20 
ROOT
ATOM      1  C   UNL d   1      46.074 -18.617  41.538  0.00  0.00     0.041 A 
ATOM      2  C   UNL d   1      46.644 -18.735  40.962  0.00  0.00     0.005 A 
ATOM      3  C   UNL d   1      45.397 -18.182  41.405  0.00  0.00     0.005 A 
ATOM      4  C   UNL d   1      45.846 -17.960  40.086  0.00  0.00     0.085 A 
ATOM      5  C   UNL d   1      46.503 -18.384  40.219  0.00  0.00     0.019 A 
ATOM      6  C   UNL d   1      45.278 -17.845  40.665  0.00  0.00     0.019 A 
ENDROOT
BRANCH   4   7
ATOM      7  N   UNL d   1      45.750 -17.633  39.336  0.00  0.00    -0.208 NA
ATOM      8  C   UNL d   1      44.987 -17.514  39.033  0.00  0.00     0.279 C 
ATOM      9  O   UNL d   1      44.345 -17.728  39.493  0.00  0.00    -0.265 OA
BRANCH   8  10
ATOM     10  C   UNL d   1      44.886 -17.187  38.281  0.00  0.00     0.062 C 
BRANCH  10  11
ATOM     11  C   UNL d   1      45.212 -16.463  38.086  0.00  0.00     0.005 C 
BRANCH  11  12
ATOM     12  C   UNL d   1      44.848 -15.950  37.522  0.00  0.00     0.002 A 
ATOM     13  C   UNL d   1      44.025 -15.924  37.461  0.00  0.00     0.024 A 
ATOM     14  C   UNL d   1      43.666 -15.408  36.894  0.00  0.00     0.127 A 
ATOM     15  C   UNL d   1      44.152 -14.940  36.412  0.00  0.00     0.024 A 
ATOM     16  C   UNL d   1      44.972 -14.982  36.490  0.00  0.00     0.002 A 
ATOM     17  C   UNL d   1      45.328 -15.486  37.044  0.00  0.00     0.000 A 
BRANCH  14  18
ATOM     18  N   UNL d   1      42.851 -15.369  36.819  0.00  0.00    -0.114 N 
ATOM     19  O   UNL d   1      42.376 -15.863  36.332  0.00  0.00    -0.532 OA
ATOM     20  O   UNL d   1      42.382 -14.823  37.226  0.00  0.00    -0.532 OA
ENDBRANCH  14  18
ENDBRANCH  11  12
ENDBRANCH  10  11
ENDBRANCH   8  10
ENDBRANCH   4   7
BRANCH   1  21
ATOM     21  C   UNL d   1      46.205 -18.963  42.281  0.00  0.00     0.182 A 
ATOM     22  N   UNL d   1      46.371 -19.735  42.538  0.00  0.00    -0.220 NA
ATOM     23  C   UNL d   1      46.443 -19.725  43.353  0.00  0.00     0.106 A 
ATOM     24  C   UNL d   1      46.323 -18.950  43.602  0.00  0.00     0.119 A 
ATOM     25  C   UNL d   1      46.604 -20.325  43.904  0.00  0.00     0.021 A 
ATOM     26  C   UNL d   1      46.364 -18.771  44.401  0.00  0.00     0.026 A 
ATOM     27  O   UNL d   1      46.182 -18.501  42.957  0.00  0.00    -0.288 OA
ATOM     28  C   UNL d   1      46.519 -19.343  44.955  0.00  0.00     0.002 A 
ATOM     29  C   UNL d   1      46.643 -20.136  44.715  0.00  0.00     0.002 A 
ENDBRANCH   1  21
TORSDOF 6
ENDMDL
