MODEL 1
REMARK VINA RESULT:      85.2      0.000      0.000
REMARK  7 active torsions:
REMARK  status: ('A' for Active; 'I' for Inactive)
REMARK    1  A    between atoms: C_12  and  C_3 
REMARK    2  A    between atoms: N_9  and  C_5 
REMARK    3  A    between atoms: C_17  and  N_9 
REMARK    4  A    between atoms: N_14  and  C_12 
REMARK    5  A    between atoms: C_18  and  N_14 
REMARK    6  A    between atoms: C_16  and  C_18 
REMARK    7  A    between atoms: C_19  and  C_17 
ROOT
ATOM      1  N   UNL d   1     -48.380  28.628  35.203  0.00  0.00    -0.258 N 
ATOM      2  C   UNL d   1     -48.930  28.222  34.727  0.00  0.00     0.270 A 
ATOM      3  C   UNL d   1     -49.555  27.804  35.067  0.00  0.00     0.111 A 
ATOM      4  N   UNL d   1     -49.083  28.196  36.378  0.00  0.00    -0.209 NA
ATOM      5  C   UNL d   1     -49.631  27.791  35.894  0.00  0.00     0.170 A 
ATOM      6  C   UNL d   1     -48.456  28.615  36.016  0.00  0.00     0.152 A 
ATOM      7  C   UNL d   1     -47.769  29.036  34.848  0.00  0.00     0.084 A 
ATOM      8  C   UNL d   1     -47.922  29.010  36.499  0.00  0.00     0.038 A 
ATOM      9  C   UNL d   1     -47.229  29.434  35.309  0.00  0.00     0.018 A 
ATOM     10  C   UNL d   1     -47.306  29.421  36.136  0.00  0.00     0.005 A 
ATOM     11  O   UNL d   1     -48.854  28.235  33.913  0.00  0.00    -0.266 OA
ATOM     12  C   UNL d   1     -46.601  29.853  34.942  0.00  0.00     0.002 C 
ENDROOT
BRANCH   3  13
ATOM     13  C   UNL d   1     -50.084  27.412  34.579  0.00  0.00     0.107 C 
BRANCH  13  14
ATOM     14  N   UNL d   1     -49.856  26.737  34.169  0.00  0.00    -0.242 NA
BRANCH  14  15
ATOM     15  C   UNL d   1     -50.348  26.422  33.587  0.00  0.00     0.101 C 
BRANCH  15  16
ATOM     16  C   UNL d   1     -50.429  25.613  33.496  0.00  0.00     0.038 A 
ATOM     17  C   UNL d   1     -51.187  25.271  33.470  0.00  0.00     0.101 A 
ATOM     18  N   UNL d   1     -51.268  24.463  33.379  0.00  0.00    -0.242 NA
ATOM     19  C   UNL d   1     -50.592  23.982  33.314  0.00  0.00     0.099 A 
ATOM     20  C   UNL d   1     -49.849  24.306  33.339  0.00  0.00     0.021 A 
ATOM     21  C   UNL d   1     -49.767  25.129  33.431  0.00  0.00     0.005 A 
ENDBRANCH  15  16
ENDBRANCH  14  15
ENDBRANCH  13  14
ENDBRANCH   3  13
BRANCH   5  22
ATOM     22  N   UNL d   1     -50.242  27.385  36.277  0.00  0.00    -0.225 NA
BRANCH  22  23
ATOM     23  C   UNL d   1     -50.283  27.343  37.107  0.00  0.00     0.101 C 
BRANCH  23  24
ATOM     24  C   UNL d   1     -50.861  26.880  37.468  0.00  0.00     0.019 A 
ATOM     25  C   UNL d   1     -50.737  26.564  38.202  0.00  0.00     0.002 A 
ATOM     26  C   UNL d   1     -51.329  26.098  38.556  0.00  0.00     0.000 A 
ATOM     27  C   UNL d   1     -52.042  25.951  38.175  0.00  0.00     0.000 A 
ATOM     28  C   UNL d   1     -52.165  26.278  37.420  0.00  0.00     0.000 A 
ATOM     29  C   UNL d   1     -51.579  26.745  37.059  0.00  0.00     0.002 A 
ENDBRANCH  23  24
ENDBRANCH  22  23
ENDBRANCH   5  22
TORSDOF 7
ENDMDL
MODEL 2
REMARK VINA RESULT:      85.3      1.171      3.501
REMARK  7 active torsions:
REMARK  status: ('A' for Active; 'I' for Inactive)
REMARK    1  A    between atoms: C_12  and  C_3 
REMARK    2  A    between atoms: N_9  and  C_5 
REMARK    3  A    between atoms: C_17  and  N_9 
REMARK    4  A    between atoms: N_14  and  C_12 
REMARK    5  A    between atoms: C_18  and  N_14 
REMARK    6  A    between atoms: C_16  and  C_18 
REMARK    7  A    between atoms: C_19  and  C_17 
ROOT
ATOM      1  N   UNL d   1     -48.138  29.240  35.836  0.00  0.00    -0.258 N 
ATOM      2  C   UNL d   1     -48.498  28.716  36.374  0.00  0.00     0.270 A 
ATOM      3  C   UNL d   1     -48.957  28.085  36.106  0.00  0.00     0.111 A 
ATOM      4  N   UNL d   1     -48.699  28.497  34.742  0.00  0.00    -0.209 NA
ATOM      5  C   UNL d   1     -49.058  27.975  35.289  0.00  0.00     0.170 A 
ATOM      6  C   UNL d   1     -48.237  29.132  35.032  0.00  0.00     0.152 A 
ATOM      7  C   UNL d   1     -47.688  29.858  36.120  0.00  0.00     0.084 A 
ATOM      8  C   UNL d   1     -47.889  29.639  34.489  0.00  0.00     0.038 A 
ATOM      9  C   UNL d   1     -47.334  30.373  35.599  0.00  0.00     0.018 A 
ATOM     10  C   UNL d   1     -47.435  30.263  34.782  0.00  0.00     0.005 A 
ATOM     11  O   UNL d   1     -48.399  28.824  37.178  0.00  0.00    -0.266 OA
ATOM     12  C   UNL d   1     -46.872  31.008  35.894  0.00  0.00     0.002 C 
ENDROOT
BRANCH   3  13
ATOM     13  C   UNL d   1     -49.302  27.582  36.653  0.00  0.00     0.107 C 
BRANCH  13  14
ATOM     14  N   UNL d   1     -50.059  27.728  36.939  0.00  0.00    -0.242 NA
BRANCH  14  15
ATOM     15  C   UNL d   1     -50.252  27.533  37.717  0.00  0.00     0.101 C 
BRANCH  15  16
ATOM     16  C   UNL d   1     -50.879  27.035  37.883  0.00  0.00     0.038 A 
ATOM     17  C   UNL d   1     -50.926  26.660  38.625  0.00  0.00     0.101 A 
ATOM     18  N   UNL d   1     -51.552  26.161  38.791  0.00  0.00    -0.242 NA
ATOM     19  C   UNL d   1     -52.142  26.029  38.219  0.00  0.00     0.099 A 
ATOM     20  C   UNL d   1     -52.104  26.390  37.494  0.00  0.00     0.021 A 
ATOM     21  C   UNL d   1     -51.466  26.897  37.325  0.00  0.00     0.005 A 
ENDBRANCH  15  16
ENDBRANCH  14  15
ENDBRANCH  13  14
ENDBRANCH   3  13
BRANCH   5  22
ATOM     22  N   UNL d   1     -49.509  27.357  34.976  0.00  0.00    -0.225 NA
BRANCH  22  23
ATOM     23  C   UNL d   1     -49.661  27.298  34.160  0.00  0.00     0.101 C 
BRANCH  23  24
ATOM     24  C   UNL d   1     -50.202  26.743  33.880  0.00  0.00     0.019 A 
ATOM     25  C   UNL d   1     -50.993  26.910  33.865  0.00  0.00     0.002 A 
ATOM     26  C   UNL d   1     -51.529  26.340  33.579  0.00  0.00     0.000 A 
ATOM     27  C   UNL d   1     -51.272  25.608  33.312  0.00  0.00     0.000 A 
ATOM     28  C   UNL d   1     -50.457  25.440  33.330  0.00  0.00     0.000 A 
ATOM     29  C   UNL d   1     -49.915  26.004  33.613  0.00  0.00     0.002 A 
ENDBRANCH  23  24
ENDBRANCH  22  23
ENDBRANCH   5  22
TORSDOF 7
ENDMDL
MODEL 3
REMARK VINA RESULT:      85.9      0.935      3.660
REMARK  7 active torsions:
REMARK  status: ('A' for Active; 'I' for Inactive)
REMARK    1  A    between atoms: C_12  and  C_3 
REMARK    2  A    between atoms: N_9  and  C_5 
REMARK    3  A    between atoms: C_17  and  N_9 
REMARK    4  A    between atoms: N_14  and  C_12 
REMARK    5  A    between atoms: C_18  and  N_14 
REMARK    6  A    between atoms: C_16  and  C_18 
REMARK    7  A    between atoms: C_19  and  C_17 
ROOT
ATOM      1  N   UNL d   1     -50.733  26.948  36.761  0.00  0.00    -0.258 N 
ATOM      2  C   UNL d   1     -50.720  26.849  35.935  0.00  0.00     0.270 A 
ATOM      3  C   UNL d   1     -50.156  27.232  35.472  0.00  0.00     0.111 A 
ATOM      4  N   UNL d   1     -49.601  27.827  36.669  0.00  0.00    -0.209 NA
ATOM      5  C   UNL d   1     -49.595  27.722  35.840  0.00  0.00     0.170 A 
ATOM      6  C   UNL d   1     -50.181  27.430  37.123  0.00  0.00     0.152 A 
ATOM      7  C   UNL d   1     -51.299  26.561  37.202  0.00  0.00     0.084 A 
ATOM      8  C   UNL d   1     -50.180  27.539  37.937  0.00  0.00     0.038 A 
ATOM      9  C   UNL d   1     -51.316  26.654  38.010  0.00  0.00     0.018 A 
ATOM     10  C   UNL d   1     -50.755  27.145  38.378  0.00  0.00     0.005 A 
ATOM     11  O   UNL d   1     -51.273  26.367  35.573  0.00  0.00    -0.266 OA
ATOM     12  C   UNL d   1     -51.900  26.255  38.462  0.00  0.00     0.002 C 
ENDROOT
BRANCH   3  13
ATOM     13  C   UNL d   1     -50.162  27.120  34.660  0.00  0.00     0.107 C 
BRANCH  13  14
ATOM     14  N   UNL d   1     -50.773  26.706  34.298  0.00  0.00    -0.242 NA
BRANCH  14  15
ATOM     15  C   UNL d   1     -50.642  26.316  33.584  0.00  0.00     0.101 C 
BRANCH  15  16
ATOM     16  C   UNL d   1     -50.837  25.526  33.492  0.00  0.00     0.038 A 
ATOM     17  C   UNL d   1     -51.636  25.300  33.430  0.00  0.00     0.101 A 
ATOM     18  N   UNL d   1     -51.831  24.512  33.339  0.00  0.00    -0.242 NA
ATOM     19  C   UNL d   1     -51.231  23.936  33.309  0.00  0.00     0.099 A 
ATOM     20  C   UNL d   1     -50.450  24.147  33.368  0.00  0.00     0.021 A 
ATOM     21  C   UNL d   1     -50.252  24.950  33.461  0.00  0.00     0.005 A 
ENDBRANCH  15  16
ENDBRANCH  14  15
ENDBRANCH  13  14
ENDBRANCH   3  13
BRANCH   5  22
ATOM     22  N   UNL d   1     -49.011  28.126  35.415  0.00  0.00    -0.225 NA
BRANCH  22  23
ATOM     23  C   UNL d   1     -48.301  28.369  35.775  0.00  0.00     0.101 C 
BRANCH  23  24
ATOM     24  C   UNL d   1     -47.979  29.106  35.595  0.00  0.00     0.019 A 
ATOM     25  C   UNL d   1     -47.427  29.444  36.080  0.00  0.00     0.002 A 
ATOM     26  C   UNL d   1     -47.110  30.189  35.887  0.00  0.00     0.000 A 
ATOM     27  C   UNL d   1     -47.345  30.592  35.212  0.00  0.00     0.000 A 
ATOM     28  C   UNL d   1     -47.913  30.241  34.715  0.00  0.00     0.000 A 
ATOM     29  C   UNL d   1     -48.235  29.496  34.901  0.00  0.00     0.002 A 
ENDBRANCH  23  24
ENDBRANCH  22  23
ENDBRANCH   5  22
TORSDOF 7
ENDMDL
MODEL 4
REMARK VINA RESULT:      86.8      1.059      3.455
REMARK  7 active torsions:
REMARK  status: ('A' for Active; 'I' for Inactive)
REMARK    1  A    between atoms: C_12  and  C_3 
REMARK    2  A    between atoms: N_9  and  C_5 
REMARK    3  A    between atoms: C_17  and  N_9 
REMARK    4  A    between atoms: N_14  and  C_12 
REMARK    5  A    between atoms: C_18  and  N_14 
REMARK    6  A    between atoms: C_16  and  C_18 
REMARK    7  A    between atoms: C_19  and  C_17 
ROOT
ATOM      1  N   UNL d   1     -48.633  28.530  35.855  0.00  0.00    -0.258 N 
ATOM      2  C   UNL d   1     -49.141  28.061  36.319  0.00  0.00     0.270 A 
ATOM      3  C   UNL d   1     -49.573  27.445  35.982  0.00  0.00     0.111 A 
ATOM      4  N   UNL d   1     -48.988  27.759  34.696  0.00  0.00    -0.209 NA
ATOM      5  C   UNL d   1     -49.496  27.293  35.169  0.00  0.00     0.170 A 
ATOM      6  C   UNL d   1     -48.557  28.381  35.055  0.00  0.00     0.152 A 
ATOM      7  C   UNL d   1     -48.214  29.135  36.207  0.00  0.00     0.084 A 
ATOM      8  C   UNL d   1     -48.061  28.833  34.584  0.00  0.00     0.038 A 
ATOM      9  C   UNL d   1     -47.716  29.595  35.758  0.00  0.00     0.018 A 
ATOM     10  C   UNL d   1     -47.639  29.444  34.944  0.00  0.00     0.005 A 
ATOM     11  O   UNL d   1     -49.217  28.210  37.120  0.00  0.00    -0.266 OA
ATOM     12  C   UNL d   1     -47.286  30.218  36.122  0.00  0.00     0.002 C 
ENDROOT
BRANCH   3  13
ATOM     13  C   UNL d   1     -50.068  26.997  36.458  0.00  0.00     0.107 C 
BRANCH  13  14
ATOM     14  N   UNL d   1     -50.528  27.354  37.038  0.00  0.00    -0.242 NA
BRANCH  14  15
ATOM     15  C   UNL d   1     -50.600  27.004  37.782  0.00  0.00     0.101 C 
BRANCH  15  16
ATOM     16  C   UNL d   1     -51.251  26.545  37.970  0.00  0.00     0.038 A 
ATOM     17  C   UNL d   1     -51.937  26.584  37.501  0.00  0.00     0.101 A 
ATOM     18  N   UNL d   1     -52.587  26.125  37.690  0.00  0.00    -0.242 NA
ATOM     19  C   UNL d   1     -52.562  25.620  38.350  0.00  0.00     0.099 A 
ATOM     20  C   UNL d   1     -51.897  25.576  38.813  0.00  0.00     0.021 A 
ATOM     21  C   UNL d   1     -51.236  26.043  38.621  0.00  0.00     0.005 A 
ENDBRANCH  15  16
ENDBRANCH  14  15
ENDBRANCH  13  14
ENDBRANCH   3  13
BRANCH   5  22
ATOM     22  N   UNL d   1     -49.910  26.686  34.789  0.00  0.00    -0.225 NA
BRANCH  22  23
ATOM     23  C   UNL d   1     -50.386  26.834  34.123  0.00  0.00     0.101 C 
BRANCH  23  24
ATOM     24  C   UNL d   1     -50.910  26.257  33.855  0.00  0.00     0.019 A 
ATOM     25  C   UNL d   1     -50.662  25.495  33.746  0.00  0.00     0.002 A 
ATOM     26  C   UNL d   1     -51.202  24.922  33.474  0.00  0.00     0.000 A 
ATOM     27  C   UNL d   1     -51.984  25.113  33.312  0.00  0.00     0.000 A 
ATOM     28  C   UNL d   1     -52.233  25.898  33.426  0.00  0.00     0.000 A 
ATOM     29  C   UNL d   1     -51.701  26.477  33.697  0.00  0.00     0.002 A 
ENDBRANCH  23  24
ENDBRANCH  22  23
ENDBRANCH   5  22
TORSDOF 7
ENDMDL
