MODEL 1
REMARK VINA RESULT:      72.8      0.000      0.000
REMARK  5 active torsions:
REMARK  status: ('A' for Active; 'I' for Inactive)
REMARK    1  A    between atoms: C_2  and  C_1 
REMARK       I    between atoms: N_3  and  C_2 
REMARK    2  A    between atoms: C_6  and  N_3 
REMARK    3  A    between atoms: O_15  and  C_5 
REMARK    4  A    between atoms: O_17  and  C_11 
REMARK    5  A    between atoms: O_18  and  C_14 
ROOT
ATOM      1  C   UNL d   1      58.822  48.629  50.854  0.00  0.00     0.281 C 
ATOM      2  N   UNL d   1      58.255  49.179  50.569  0.00  0.00    -0.206 NA
ATOM      3  O   UNL d   1      58.638  47.843  50.896  0.00  0.00    -0.265 OA
ENDROOT
BRANCH   1   4
ATOM      4  C   UNL d   1      59.574  48.898  51.094  0.00  0.00     0.080 A 
ATOM      5  C   UNL d   1      59.800  48.862  51.877  0.00  0.00     0.007 A 
ATOM      6  C   UNL d   1      60.540  49.122  52.139  0.00  0.00     0.000 A 
ATOM      7  C   UNL d   1      60.754  49.083  52.908  0.00  0.00     0.000 A 
ATOM      8  C   UNL d   1      61.081  49.438  51.571  0.00  0.00     0.002 A 
ATOM      9  C   UNL d   1      61.490  49.342  53.165  0.00  0.00     0.000 A 
ATOM     10  C   UNL d   1      62.030  49.658  52.597  0.00  0.00     0.000 A 
ATOM     11  C   UNL d   1      61.812  49.701  51.797  0.00  0.00     0.000 A 
ATOM     12  C   UNL d   1      60.858  49.479  50.766  0.00  0.00     0.024 A 
ATOM     13  C   UNL d   1      60.114  49.214  50.526  0.00  0.00     0.099 A 
BRANCH  13  14
ATOM     14  O   UNL d   1      59.896  49.256  49.726  0.00  0.00    -0.328 OA
ATOM     15  C   UNL d   1      60.365  49.704  49.185  0.00  0.00     0.181 C 
ENDBRANCH  13  14
ENDBRANCH   1   4
BRANCH   2  16
ATOM     16  C   UNL d   1      57.503  48.910  50.329  0.00  0.00     0.109 A 
ATOM     17  C   UNL d   1      57.457  48.403  49.701  0.00  0.00     0.045 A 
ATOM     18  C   UNL d   1      56.714  48.150  49.481  0.00  0.00     0.096 A 
ATOM     19  C   UNL d   1      56.033  48.392  49.871  0.00  0.00     0.026 A 
ATOM     20  C   UNL d   1      56.104  48.899  50.496  0.00  0.00     0.028 A 
ATOM     21  C   UNL d   1      56.819  49.168  50.740  0.00  0.00     0.112 A 
BRANCH  18  22
ATOM     22  O   UNL d   1      56.640  47.623  48.831  0.00  0.00    -0.328 OA
ATOM     23  C   UNL d   1      56.547  46.841  48.966  0.00  0.00     0.181 C 
ENDBRANCH  18  22
BRANCH  21  24
ATOM     24  O   UNL d   1      56.867  49.698  51.397  0.00  0.00    -0.327 OA
ATOM     25  C   UNL d   1      57.244  49.461  52.090  0.00  0.00     0.181 C 
ENDBRANCH  21  24
ENDBRANCH   2  16
TORSDOF 5
ENDMDL
