MODEL 1
REMARK VINA RESULT:      41.6      0.000      0.000
REMARK  5 active torsions:
REMARK  status: ('A' for Active; 'I' for Inactive)
REMARK    1  A    between atoms: C_12  and  C_3 
REMARK    2  A    between atoms: C_13  and  N_5 
REMARK    3  A    between atoms: C_11  and  C_6 
REMARK    4  A    between atoms: O_24  and  C_12 
REMARK    5  A    between atoms: C_14  and  C_13 
ROOT
ATOM      1  C   UNL d   1      46.169 -17.646  43.722  0.00  0.00     0.080 A 
ATOM      2  C   UNL d   1      46.075 -16.925  43.312  0.00  0.00     0.267 A 
ATOM      3  C   UNL d   1      46.195 -19.069  43.722  0.00  0.00     0.106 A 
ATOM      4  C   UNL d   1      46.328 -17.635  44.528  0.00  0.00     0.108 A 
ATOM      5  N   UNL d   1      46.142 -16.202  43.717  0.00  0.00    -0.271 N 
ATOM      6  C   UNL d   1      46.103 -18.363  43.320  0.00  0.00     0.015 A 
ATOM      7  C   UNL d   1      46.356 -19.063  44.535  0.00  0.00     0.208 A 
ATOM      8  O   UNL d   1      46.422 -18.347  44.938  0.00  0.00    -0.288 OA
ATOM      9  C   UNL d   1      46.396 -16.923  44.939  0.00  0.00     0.043 A 
ATOM     10  C   UNL d   1      46.304 -16.206  44.539  0.00  0.00     0.069 A 
ATOM     11  O   UNL d   1      45.914 -16.929  42.494  0.00  0.00    -0.267 OA
ATOM     12  N   UNL d   1      46.449 -19.777  44.942  0.00  0.00    -0.121 N 
ATOM     13  C   UNL d   1      46.373 -15.482  44.952  0.00  0.00     0.019 C 
ENDROOT
BRANCH   6  14
ATOM     14  C   UNL d   1      45.943 -18.365  42.511  0.00  0.00     0.001 A 
ATOM     15  C   UNL d   1      45.202 -18.125  42.238  0.00  0.00     0.011 A 
ATOM     16  C   UNL d   1      45.038 -18.125  41.432  0.00  0.00     0.058 A 
ATOM     17 CL   UNL d   1      44.292 -17.883  41.165  0.00  0.00    -0.082 Cl
ATOM     18  C   UNL d   1      45.621 -18.368  40.892  0.00  0.00     0.011 A 
ATOM     19  C   UNL d   1      46.362 -18.609  41.164  0.00  0.00     0.001 A 
ATOM     20  C   UNL d   1      46.523 -18.607  41.974  0.00  0.00     0.000 A 
ENDBRANCH   6  14
BRANCH   3  21
ATOM     21  C   UNL d   1      46.129 -19.785  43.320  0.00  0.00     0.299 C 
ATOM     22  O   UNL d   1      46.641 -19.964  42.702  0.00  0.00    -0.259 OA
BRANCH  21  23
ATOM     23  O   UNL d   1      45.545 -20.330  43.536  0.00  0.00    -0.296 OA
ATOM     24  C   UNL d   1      44.805 -20.325  43.161  0.00  0.00     0.185 C 
ENDBRANCH  21  23
ENDBRANCH   3  21
BRANCH   5  25
ATOM     25  C   UNL d   1      46.049 -15.488  43.310  0.00  0.00     0.108 C 
BRANCH  25  26
ATOM     26  C   UNL d   1      45.564 -14.897  43.619  0.00  0.00     0.118 A 
ATOM     27  O   UNL d   1      44.765 -14.977  43.823  0.00  0.00    -0.304 OA
ATOM     28  C   UNL d   1      44.496 -14.252  44.110  0.00  0.00     0.123 A 
ATOM     29  C   UNL d   1      45.127 -13.721  44.084  0.00  0.00     0.029 A 
ATOM     30  C   UNL d   1      45.791 -14.117  43.780  0.00  0.00     0.028 A 
ENDBRANCH  25  26
ENDBRANCH   5  25
TORSDOF 5
ENDMDL
