MODEL 1
REMARK VINA RESULT:      44.7      0.000      0.000
REMARK  3 active torsions:
REMARK  status: ('A' for Active; 'I' for Inactive)
REMARK    1  A    between atoms: C_6  and  C_1 
REMARK       I    between atoms: N_10  and  C_6 
REMARK    2  A    between atoms: C_23  and  N_10 
REMARK    3  A    between atoms: C_22  and  C_23 
ROOT
ATOM      1  C   UNL d   1     -54.822-101.664 -42.273  0.00  0.00     0.266 C 
ATOM      2  N   UNL d   1     -54.781-101.373 -41.508  0.00  0.00    -0.210 NA
ATOM      3  O   UNL d   1     -54.789-102.479 -42.249  0.00  0.00    -0.269 OA
ENDROOT
BRANCH   1   4
ATOM      4  C   UNL d   1     -54.883-101.106 -42.865  0.00  0.00     0.150 A 
ATOM      5  C   UNL d   1     -55.003 -99.949 -43.715  0.00  0.00     0.028 A 
ATOM      6  C   UNL d   1     -54.938-100.629 -43.509  0.00  0.00     0.078 A 
ATOM      7  C   UNL d   1     -55.075 -99.125 -43.680  0.00  0.00     0.002 C 
ATOM      8  C   UNL d   1     -55.018 -99.970 -44.541  0.00  0.00     0.002 C 
ATOM      9  C   UNL d   1     -54.954-100.642 -44.335  0.00  0.00     0.012 C 
ATOM     10  C   UNL d   1     -54.928-100.573 -42.734  0.00  0.00    -0.023 A 
ATOM     11  C   UNL d   1     -54.898-101.213 -44.074  0.00  0.00     0.211 A 
ATOM     12  C   UNL d   1     -54.881-100.959 -42.143  0.00  0.00    -0.015 A 
ATOM     13  C   UNL d   1     -54.845-101.661 -43.415  0.00  0.00     0.219 A 
ATOM     14  O   UNL d   1     -54.913-101.234 -44.903  0.00  0.00    -0.288 OA
ATOM     15  O   UNL d   1     -54.804-102.252 -43.974  0.00  0.00    -0.287 OA
ENDBRANCH   1   4
BRANCH   2  16
ATOM     16  C   UNL d   1     -54.718-101.894 -40.870  0.00  0.00     0.102 C 
BRANCH  16  17
ATOM     17  C   UNL d   1     -55.071-102.159 -40.176  0.00  0.00     0.021 A 
ATOM     18  C   UNL d   1     -54.713-101.999 -39.446  0.00  0.00     0.028 A 
ATOM     19  C   UNL d   1     -55.068-102.266 -38.740  0.00  0.00     0.119 A 
ATOM     20  O   UNL d   1     -54.851-102.195 -37.953  0.00  0.00    -0.300 OA
ATOM     21  C   UNL d   1     -55.781-102.693 -38.774  0.00  0.00     0.119 A 
ATOM     22  C   UNL d   1     -55.418-102.571 -37.493  0.00  0.00     0.304 A 
ATOM     23  O   UNL d   1     -55.995-102.880 -37.999  0.00  0.00    -0.300 OA
ATOM     24  C   UNL d   1     -56.131-102.847 -39.507  0.00  0.00     0.026 A 
ATOM     25  C   UNL d   1     -55.779-102.583 -40.206  0.00  0.00     0.004 A 
ENDBRANCH  16  17
ENDBRANCH   2  16
TORSDOF 3
ENDMDL
