MODEL 1
REMARK VINA RESULT:     -10.1      0.000      0.000
REMARK  3 active torsions:
REMARK  status: ('A' for Active; 'I' for Inactive)
REMARK    1  A    between atoms: C_11  and  C_8 
REMARK       I    between atoms: N_14  and  C_11 
REMARK    2  A    between atoms: C_20  and  N_14 
REMARK    3  A    between atoms: C_21  and  C_20 
ROOT
ATOM      1  C   UNL d   1      51.961  33.544  53.564  0.00  0.00     0.154 A 
ATOM      2  C   UNL d   1      52.176  34.340  53.596  0.00  0.00     0.093 A 
ATOM      3  N   UNL d   1      52.467  32.968  53.882  0.00  0.00    -0.210 NA
ATOM      4  N   UNL d   1      53.396  33.984  54.259  0.00  0.00    -0.258 N 
ATOM      5  C   UNL d   1      52.896  34.560  53.945  0.00  0.00     0.269 A 
ATOM      6  N   UNL d   1      51.230  33.489  53.194  0.00  0.00    -0.285 N 
ATOM      7  C   UNL d   1      53.181  33.188  54.227  0.00  0.00     0.152 A 
ATOM      8  C   UNL d   1      50.988  34.248  52.994  0.00  0.00     0.124 A 
ATOM      9  C   UNL d   1      51.577  34.775  53.245  0.00  0.00     0.030 A 
ATOM     10  C   UNL d   1      54.109  34.206  54.604  0.00  0.00     0.084 A 
ATOM     11  C   UNL d   1      53.680  32.614  54.541  0.00  0.00     0.038 A 
ATOM     12  C   UNL d   1      54.609  33.631  54.918  0.00  0.00     0.018 A 
ATOM     13  C   UNL d   1      54.394  32.835  54.886  0.00  0.00     0.005 A 
ATOM     14  O   UNL d   1      53.111  35.356  53.977  0.00  0.00    -0.266 OA
ATOM     15  C   UNL d   1      50.805  32.792  53.044  0.00  0.00     0.101 C 
ATOM     16  C   UNL d   1      55.333  33.849  55.269  0.00  0.00     0.002 C 
ENDROOT
BRANCH   8  17
ATOM     17  C   UNL d   1      50.284  34.449  52.612  0.00  0.00     0.295 C 
ATOM     18  N   UNL d   1      49.738  34.940  52.993  0.00  0.00    -0.203 NA
ATOM     19  O   UNL d   1      50.125  34.164  51.857  0.00  0.00    -0.264 OA
BRANCH  18  20
ATOM     20  C   UNL d   1      49.033  35.143  52.614  0.00  0.00     0.127 C 
BRANCH  20  21
ATOM     21  C   UNL d   1      48.528  35.697  52.954  0.00  0.00     0.119 A 
ATOM     22  O   UNL d   1      48.568  36.126  53.666  0.00  0.00    -0.304 OA
ATOM     23  C   UNL d   1      47.896  36.603  53.711  0.00  0.00     0.123 A 
ATOM     24  C   UNL d   1      47.441  36.478  53.042  0.00  0.00     0.029 A 
ATOM     25  C   UNL d   1      47.828  35.916  52.567  0.00  0.00     0.028 A 
ENDBRANCH  20  21
ENDBRANCH  18  20
ENDBRANCH   8  17
TORSDOF 3
ENDMDL
MODEL 2
REMARK VINA RESULT:      -8.1      1.666      5.410
REMARK  3 active torsions:
REMARK  status: ('A' for Active; 'I' for Inactive)
REMARK    1  A    between atoms: C_11  and  C_8 
REMARK       I    between atoms: N_14  and  C_11 
REMARK    2  A    between atoms: C_20  and  N_14 
REMARK    3  A    between atoms: C_21  and  C_20 
ROOT
ATOM      1  C   UNL d   1      50.197  34.775  52.948  0.00  0.00     0.154 A 
ATOM      2  C   UNL d   1      50.106  34.456  52.193  0.00  0.00     0.093 A 
ATOM      3  N   UNL d   1      49.592  35.239  53.276  0.00  0.00    -0.210 NA
ATOM      4  N   UNL d   1      48.811  35.062  52.094  0.00  0.00    -0.258 N 
ATOM      5  C   UNL d   1      49.409  34.601  51.765  0.00  0.00     0.269 A 
ATOM      6  N   UNL d   1      50.930  34.545  53.238  0.00  0.00    -0.285 N 
ATOM      7  C   UNL d   1      48.902  35.381  52.849  0.00  0.00     0.152 A 
ATOM      8  C   UNL d   1      51.297  34.084  52.666  0.00  0.00     0.124 A 
ATOM      9  C   UNL d   1      50.783  34.030  52.018  0.00  0.00     0.030 A 
ATOM     10  C   UNL d   1      48.121  35.203  51.666  0.00  0.00     0.084 A 
ATOM     11  C   UNL d   1      48.304  35.841  53.177  0.00  0.00     0.038 A 
ATOM     12  C   UNL d   1      47.523  35.664  51.995  0.00  0.00     0.018 A 
ATOM     13  C   UNL d   1      47.614  35.983  52.750  0.00  0.00     0.005 A 
ATOM     14  O   UNL d   1      49.318  34.282  51.009  0.00  0.00    -0.266 OA
ATOM     15  C   UNL d   1      51.251  34.741  53.978  0.00  0.00     0.101 C 
ATOM     16  C   UNL d   1      46.822  35.811  51.567  0.00  0.00     0.002 C 
ENDROOT
BRANCH   8  17
ATOM     17  C   UNL d   1      52.043  33.737  52.727  0.00  0.00     0.295 C 
ATOM     18  N   UNL d   1      52.107  32.919  52.838  0.00  0.00    -0.203 NA
ATOM     19  O   UNL d   1      52.723  34.199  52.677  0.00  0.00    -0.264 OA
BRANCH  18  20
ATOM     20  C   UNL d   1      52.851  32.569  52.900  0.00  0.00     0.127 C 
BRANCH  20  21
ATOM     21  C   UNL d   1      52.916  31.753  52.989  0.00  0.00     0.119 A 
ATOM     22  O   UNL d   1      52.547  31.118  52.599  0.00  0.00    -0.304 OA
ATOM     23  C   UNL d   1      52.833  30.418  52.929  0.00  0.00     0.123 A 
ATOM     24  C   UNL d   1      53.372  30.607  53.517  0.00  0.00     0.029 A 
ATOM     25  C   UNL d   1      53.428  31.435  53.560  0.00  0.00     0.028 A 
ENDBRANCH  20  21
ENDBRANCH  18  20
ENDBRANCH   8  17
TORSDOF 3
ENDMDL
MODEL 3
REMARK VINA RESULT:      -7.6      1.533      2.327
REMARK  3 active torsions:
REMARK  status: ('A' for Active; 'I' for Inactive)
REMARK    1  A    between atoms: C_11  and  C_8 
REMARK       I    between atoms: N_14  and  C_11 
REMARK    2  A    between atoms: C_20  and  N_14 
REMARK    3  A    between atoms: C_21  and  C_20 
ROOT
ATOM      1  C   UNL d   1      52.239  33.364  53.173  0.00  0.00     0.154 A 
ATOM      2  C   UNL d   1      51.654  32.783  53.193  0.00  0.00     0.093 A 
ATOM      3  N   UNL d   1      53.038  33.146  53.223  0.00  0.00    -0.210 NA
ATOM      4  N   UNL d   1      52.662  31.772  53.310  0.00  0.00    -0.258 N 
ATOM      5  C   UNL d   1      51.868  31.984  53.261  0.00  0.00     0.269 A 
ATOM      6  N   UNL d   1      51.872  34.096  53.104  0.00  0.00    -0.285 N 
ATOM      7  C   UNL d   1      53.247  32.353  53.291  0.00  0.00     0.152 A 
ATOM      8  C   UNL d   1      51.060  33.973  53.079  0.00  0.00     0.124 A 
ATOM      9  C   UNL d   1      50.927  33.157  53.135  0.00  0.00     0.030 A 
ATOM     10  C   UNL d   1      52.871  30.978  53.378  0.00  0.00     0.084 A 
ATOM     11  C   UNL d   1      54.041  32.141  53.339  0.00  0.00     0.038 A 
ATOM     12  C   UNL d   1      53.665  30.766  53.427  0.00  0.00     0.018 A 
ATOM     13  C   UNL d   1      54.250  31.348  53.407  0.00  0.00     0.005 A 
ATOM     14  O   UNL d   1      51.283  31.402  53.281  0.00  0.00    -0.266 OA
ATOM     15  C   UNL d   1      52.250  34.834  53.064  0.00  0.00     0.101 C 
ATOM     16  C   UNL d   1      53.883  29.964  53.496  0.00  0.00     0.002 C 
ENDROOT
BRANCH   8  17
ATOM     17  C   UNL d   1      50.482  34.558  53.012  0.00  0.00     0.295 C 
ATOM     18  N   UNL d   1      49.891  34.485  52.437  0.00  0.00    -0.203 NA
ATOM     19  O   UNL d   1      50.491  35.212  53.512  0.00  0.00    -0.264 OA
BRANCH  18  20
ATOM     20  C   UNL d   1      49.311  35.068  52.367  0.00  0.00     0.127 C 
BRANCH  20  21
ATOM     21  C   UNL d   1      48.748  35.019  51.768  0.00  0.00     0.119 A 
ATOM     22  O   UNL d   1      48.740  34.612  51.043  0.00  0.00    -0.304 OA
ATOM     23  C   UNL d   1      48.020  34.772  50.672  0.00  0.00     0.123 A 
ATOM     24  C   UNL d   1      47.583  35.270  51.153  0.00  0.00     0.029 A 
ATOM     25  C   UNL d   1      48.030  35.428  51.836  0.00  0.00     0.028 A 
ENDBRANCH  20  21
ENDBRANCH  18  20
ENDBRANCH   8  17
TORSDOF 3
ENDMDL
