MODEL 1
REMARK VINA RESULT:      76.8      0.000      0.000
REMARK  3 active torsions:
REMARK  status: ('A' for Active; 'I' for Inactive)
REMARK    1  A    between atoms: N_2  and  S_1 
REMARK    2  A    between atoms: C_3  and  C_7 
REMARK       I    between atoms: N_4  and  C_3 
REMARK    3  A    between atoms: C_13  and  N_4 
ROOT
ATOM      1  N   UNL d   1      60.669  49.045  51.126  0.00  0.00    -0.233 N 
ATOM      2  C   UNL d   1      59.813  49.240  52.507  0.00  0.00     0.061 A 
ATOM      3  C   UNL d   1      60.005  48.579  51.272  0.00  0.00     0.091 A 
ATOM      4  C   UNL d   1      60.898  49.601  51.668  0.00  0.00     0.091 A 
ATOM      5  C   UNL d   1      60.477  49.706  52.361  0.00  0.00     0.025 A 
ATOM      6  C   UNL d   1      59.572  48.670  51.960  0.00  0.00     0.025 A 
ENDROOT
BRANCH   2   7
ATOM      7  C   UNL d   1      59.378  49.339  53.210  0.00  0.00     0.279 C 
ATOM      8  N   UNL d   1      58.548  49.311  53.178  0.00  0.00    -0.208 NA
ATOM      9  O   UNL d   1      59.760  49.461  53.919  0.00  0.00    -0.265 OA
BRANCH   8  10
ATOM     10  C   UNL d   1      58.110  49.409  53.875  0.00  0.00     0.085 A 
ATOM     11  C   UNL d   1      57.290  49.562  53.835  0.00  0.00     0.019 A 
ATOM     12  C   UNL d   1      56.859  49.658  54.536  0.00  0.00     0.002 A 
ATOM     13  C   UNL d   1      57.234  49.605  55.268  0.00  0.00     0.000 A 
ATOM     14  C   UNL d   1      58.050  49.452  55.307  0.00  0.00     0.002 A 
ATOM     15  C   UNL d   1      56.801  49.702  55.965  0.00  0.00     0.000 C 
ATOM     16  C   UNL d   1      58.480  49.356  54.610  0.00  0.00     0.019 A 
ENDBRANCH   8  10
ENDBRANCH   2   7
BRANCH   1  17
ATOM     17  S   UNL d   1      61.097  48.942  50.425  0.00  0.00     0.252 S 
ATOM     18  O   UNL d   1      60.885  49.703  50.186  0.00  0.00    -0.204 OA
ATOM     19  O   UNL d   1      61.298  48.126  50.727  0.00  0.00    -0.204 OA
ATOM     20  C   UNL d   1      61.521  48.837  49.734  0.00  0.00     0.164 C 
ENDBRANCH   1  17
TORSDOF 3
ENDMDL
