MODEL 1
REMARK VINA RESULT:      37.5      0.000      0.000
REMARK  8 active torsions:
REMARK  status: ('A' for Active; 'I' for Inactive)
REMARK    1  A    between atoms: C_3  and  C_1 
REMARK    2  A    between atoms: N_4  and  C_2 
REMARK    3  A    between atoms: O_21  and  C_3 
REMARK       I    between atoms: C_11  and  N_4 
REMARK    4  A    between atoms: C_6  and  C_7 
REMARK    5  A    between atoms: O_22  and  C_6 
REMARK    6  A    between atoms: C_10  and  C_20 
REMARK    7  A    between atoms: C_19  and  C_11 
REMARK    8  A    between atoms: C_20  and  C_19 
ROOT
ATOM      1  C   UNL d   1      13.471  12.471  -3.341  0.00  0.00     0.081 A 
ATOM      2  C   UNL d   1      13.831  13.156  -3.057  0.00  0.00     0.090 A 
ATOM      3  C   UNL d   1      14.240  12.469  -1.880  0.00  0.00     0.065 A 
ATOM      4  C   UNL d   1      14.215  13.159  -2.330  0.00  0.00     0.025 A 
ATOM      5  C   UNL d   1      13.496  11.781  -2.890  0.00  0.00     0.007 A 
ATOM      6  C   UNL d   1      13.881  11.780  -2.159  0.00  0.00     0.006 A 
ENDROOT
BRANCH   2   7
ATOM      7  N   UNL d   1      13.803  13.841  -3.510  0.00  0.00    -0.208 NA
ATOM      8  C   UNL d   1      13.982  14.573  -3.163  0.00  0.00     0.279 C 
ATOM      9  O   UNL d   1      14.187  14.605  -2.362  0.00  0.00    -0.265 OA
BRANCH   8  10
ATOM     10  C   UNL d   1      13.955  15.258  -3.613  0.00  0.00     0.065 C 
BRANCH  10  11
ATOM     11  C   UNL d   1      14.502  15.866  -3.474  0.00  0.00     0.030 C 
BRANCH  11  12
ATOM     12  C   UNL d   1      14.789  16.310  -4.103  0.00  0.00     0.100 A 
ATOM     13  O   UNL d   1      15.433  16.827  -4.081  0.00  0.00    -0.307 OA
ATOM     14  C   UNL d   1      15.521  17.146  -4.827  0.00  0.00     0.100 A 
ATOM     15  C   UNL d   1      16.097  17.692  -5.053  0.00  0.00     0.027 C 
ATOM     16  C   UNL d   1      14.941  16.837  -5.316  0.00  0.00     0.027 A 
ATOM     17  C   UNL d   1      14.488  16.323  -4.879  0.00  0.00     0.027 A 
ENDBRANCH  11  12
ENDBRANCH  10  11
ENDBRANCH   8  10
ENDBRANCH   2   7
BRANCH   1  18
ATOM     18  C   UNL d   1      13.089  12.481  -4.071  0.00  0.00     0.297 C 
ATOM     19  O   UNL d   1      12.802  13.183  -4.379  0.00  0.00    -0.259 OA
BRANCH  18  20
ATOM     20  O   UNL d   1      12.995  11.779  -4.494  0.00  0.00    -0.296 OA
ATOM     21  C   UNL d   1      12.826  11.808  -5.304  0.00  0.00     0.185 C 
ENDBRANCH  18  20
ENDBRANCH   1  18
BRANCH   3  22
ATOM     22  C   UNL d   1      14.624  12.467  -1.148  0.00  0.00     0.296 C 
ATOM     23  O   UNL d   1      14.547  11.822  -0.638  0.00  0.00    -0.259 OA
BRANCH  22  24
ATOM     24  O   UNL d   1      15.089  13.111  -0.923  0.00  0.00    -0.296 OA
ATOM     25  C   UNL d   1      15.322  13.200  -0.137  0.00  0.00     0.185 C 
ENDBRANCH  22  24
ENDBRANCH   3  22
TORSDOF 8
ENDMDL
MODEL 2
REMARK VINA RESULT:      38.5      1.620      3.197
REMARK  8 active torsions:
REMARK  status: ('A' for Active; 'I' for Inactive)
REMARK    1  A    between atoms: C_3  and  C_1 
REMARK    2  A    between atoms: N_4  and  C_2 
REMARK    3  A    between atoms: O_21  and  C_3 
REMARK       I    between atoms: C_11  and  N_4 
REMARK    4  A    between atoms: C_6  and  C_7 
REMARK    5  A    between atoms: O_22  and  C_6 
REMARK    6  A    between atoms: C_10  and  C_20 
REMARK    7  A    between atoms: C_19  and  C_11 
REMARK    8  A    between atoms: C_20  and  C_19 
ROOT
ATOM      1  C   UNL d   1      13.999  12.408  -1.877  0.00  0.00     0.081 A 
ATOM      2  C   UNL d   1      14.149  13.071  -2.342  0.00  0.00     0.090 A 
ATOM      3  C   UNL d   1      13.444  12.484  -3.430  0.00  0.00     0.065 A 
ATOM      4  C   UNL d   1      13.875  13.113  -3.115  0.00  0.00     0.025 A 
ATOM      5  C   UNL d   1      13.569  11.779  -2.191  0.00  0.00     0.007 A 
ATOM      6  C   UNL d   1      13.291  11.817  -2.969  0.00  0.00     0.006 A 
ENDROOT
BRANCH   2   7
ATOM      7  N   UNL d   1      14.579  13.696  -2.024  0.00  0.00    -0.208 NA
ATOM      8  C   UNL d   1      14.310  14.474  -2.122  0.00  0.00     0.279 C 
ATOM      9  O   UNL d   1      13.610  14.614  -2.540  0.00  0.00    -0.265 OA
BRANCH   8  10
ATOM     10  C   UNL d   1      14.737  15.099  -1.805  0.00  0.00     0.065 C 
BRANCH  10  11
ATOM     11  C   UNL d   1      14.527  15.879  -1.990  0.00  0.00     0.030 C 
BRANCH  11  12
ATOM     12  C   UNL d   1      14.986  16.503  -1.717  0.00  0.00     0.100 A 
ATOM     13  O   UNL d   1      14.825  16.976  -1.059  0.00  0.00    -0.307 OA
ATOM     14  C   UNL d   1      15.426  17.524  -0.994  0.00  0.00     0.100 A 
ATOM     15  C   UNL d   1      15.486  18.107  -0.413  0.00  0.00     0.027 C 
ATOM     16  C   UNL d   1      15.962  17.402  -1.602  0.00  0.00     0.027 A 
ATOM     17  C   UNL d   1      15.698  16.777  -2.050  0.00  0.00     0.027 A 
ENDBRANCH  11  12
ENDBRANCH  10  11
ENDBRANCH   8  10
ENDBRANCH   2   7
BRANCH   1  18
ATOM     18  C   UNL d   1      14.279  12.378  -1.103  0.00  0.00     0.297 C 
ATOM     19  O   UNL d   1      13.757  12.400  -0.472  0.00  0.00    -0.259 OA
BRANCH  18  20
ATOM     20  O   UNL d   1      15.090  12.325  -0.961  0.00  0.00    -0.296 OA
ATOM     21  C   UNL d   1      15.375  11.782  -0.404  0.00  0.00     0.185 C 
ENDBRANCH  18  20
ENDBRANCH   1  18
BRANCH   3  22
ATOM     22  C   UNL d   1      13.167  12.521  -4.207  0.00  0.00     0.296 C 
ATOM     23  O   UNL d   1      12.874  13.230  -4.512  0.00  0.00    -0.259 OA
BRANCH  22  24
ATOM     24  O   UNL d   1      13.180  11.847  -4.684  0.00  0.00    -0.296 OA
ATOM     25  C   UNL d   1      13.336  11.913  -5.492  0.00  0.00     0.185 C 
ENDBRANCH  22  24
ENDBRANCH   3  22
TORSDOF 8
ENDMDL
MODEL 3
REMARK VINA RESULT:      38.9      1.003      1.370
REMARK  8 active torsions:
REMARK  status: ('A' for Active; 'I' for Inactive)
REMARK    1  A    between atoms: C_3  and  C_1 
REMARK    2  A    between atoms: N_4  and  C_2 
REMARK    3  A    between atoms: O_21  and  C_3 
REMARK       I    between atoms: C_11  and  N_4 
REMARK    4  A    between atoms: C_6  and  C_7 
REMARK    5  A    between atoms: O_22  and  C_6 
REMARK    6  A    between atoms: C_10  and  C_20 
REMARK    7  A    between atoms: C_19  and  C_11 
REMARK    8  A    between atoms: C_20  and  C_19 
ROOT
ATOM      1  C   UNL d   1      13.429  12.497  -3.357  0.00  0.00     0.081 A 
ATOM      2  C   UNL d   1      13.752  13.171  -3.012  0.00  0.00     0.090 A 
ATOM      3  C   UNL d   1      13.959  12.466  -1.793  0.00  0.00     0.065 A 
ATOM      4  C   UNL d   1      14.017  13.160  -2.234  0.00  0.00     0.025 A 
ATOM      5  C   UNL d   1      13.371  11.802  -2.916  0.00  0.00     0.007 A 
ATOM      6  C   UNL d   1      13.636  11.787  -2.134  0.00  0.00     0.006 A 
ENDROOT
BRANCH   2   7
ATOM      7  N   UNL d   1      13.808  13.861  -3.455  0.00  0.00    -0.208 NA
ATOM      8  C   UNL d   1      14.114  14.551  -3.109  0.00  0.00     0.279 C 
ATOM      9  O   UNL d   1      14.359  14.536  -2.320  0.00  0.00    -0.265 OA
BRANCH   8  10
ATOM     10  C   UNL d   1      14.170  15.240  -3.550  0.00  0.00     0.065 C 
BRANCH  10  11
ATOM     11  C   UNL d   1      14.866  15.691  -3.525  0.00  0.00     0.030 C 
BRANCH  11  12
ATOM     12  C   UNL d   1      14.941  16.299  -2.979  0.00  0.00     0.100 A 
ATOM     13  O   UNL d   1      15.134  16.217  -2.180  0.00  0.00    -0.307 OA
ATOM     14  C   UNL d   1      15.147  16.962  -1.849  0.00  0.00     0.100 A 
ATOM     15  C   UNL d   1      15.316  17.138  -1.060  0.00  0.00     0.027 C 
ATOM     16  C   UNL d   1      14.965  17.512  -2.429  0.00  0.00     0.027 A 
ATOM     17  C   UNL d   1      14.837  17.112  -3.125  0.00  0.00     0.027 A 
ENDBRANCH  11  12
ENDBRANCH  10  11
ENDBRANCH   8  10
ENDBRANCH   2   7
BRANCH   1  18
ATOM     18  C   UNL d   1      13.167  12.520  -4.137  0.00  0.00     0.297 C 
ATOM     19  O   UNL d   1      12.979  13.235  -4.490  0.00  0.00    -0.259 OA
BRANCH  18  20
ATOM     20  O   UNL d   1      13.093  11.820  -4.567  0.00  0.00    -0.296 OA
ATOM     21  C   UNL d   1      12.965  11.852  -5.385  0.00  0.00     0.185 C 
ENDBRANCH  18  20
ENDBRANCH   1  18
BRANCH   3  22
ATOM     22  C   UNL d   1      14.224  12.449  -1.011  0.00  0.00     0.296 C 
ATOM     23  O   UNL d   1      13.702  12.270  -0.397  0.00  0.00    -0.259 OA
BRANCH  22  24
ATOM     24  O   UNL d   1      15.015  12.613  -0.838  0.00  0.00    -0.296 OA
ATOM     25  C   UNL d   1      15.402  12.203  -0.236  0.00  0.00     0.185 C 
ENDBRANCH  22  24
ENDBRANCH   3  22
TORSDOF 8
ENDMDL
MODEL 4
REMARK VINA RESULT:      39.0      1.553      4.020
REMARK  8 active torsions:
REMARK  status: ('A' for Active; 'I' for Inactive)
REMARK    1  A    between atoms: C_3  and  C_1 
REMARK    2  A    between atoms: N_4  and  C_2 
REMARK    3  A    between atoms: O_21  and  C_3 
REMARK       I    between atoms: C_11  and  N_4 
REMARK    4  A    between atoms: C_6  and  C_7 
REMARK    5  A    between atoms: O_22  and  C_6 
REMARK    6  A    between atoms: C_10  and  C_20 
REMARK    7  A    between atoms: C_19  and  C_11 
REMARK    8  A    between atoms: C_20  and  C_19 
ROOT
ATOM      1  C   UNL d   1      15.173  13.054  -0.879  0.00  0.00     0.081 A 
ATOM      2  C   UNL d   1      14.758  13.205  -1.575  0.00  0.00     0.090 A 
ATOM      3  C   UNL d   1      14.822  14.605  -1.326  0.00  0.00     0.065 A 
ATOM      4  C   UNL d   1      14.582  13.975  -1.801  0.00  0.00     0.025 A 
ATOM      5  C   UNL d   1      15.413  13.684  -0.404  0.00  0.00     0.007 A 
ATOM      6  C   UNL d   1      15.238  14.460  -0.628  0.00  0.00     0.006 A 
ENDROOT
BRANCH   2   7
ATOM      7  N   UNL d   1      14.521  12.574  -2.046  0.00  0.00    -0.208 NA
ATOM      8  C   UNL d   1      13.734  12.525  -2.304  0.00  0.00     0.279 C 
ATOM      9  O   UNL d   1      13.196  13.113  -2.084  0.00  0.00    -0.265 OA
BRANCH   8  10
ATOM     10  C   UNL d   1      13.495  11.896  -2.773  0.00  0.00     0.065 C 
BRANCH  10  11
ATOM     11  C   UNL d   1      12.962  12.023  -3.395  0.00  0.00     0.030 C 
BRANCH  11  12
ATOM     12  C   UNL d   1      13.222  11.984  -4.173  0.00  0.00     0.100 A 
ATOM     13  O   UNL d   1      12.769  12.129  -4.848  0.00  0.00    -0.307 OA
ATOM     14  C   UNL d   1      13.251  12.026  -5.498  0.00  0.00     0.100 A 
ATOM     15  C   UNL d   1      13.023  12.117  -6.286  0.00  0.00     0.027 C 
ATOM     16  C   UNL d   1      14.000  11.818  -5.241  0.00  0.00     0.027 A 
ATOM     17  C   UNL d   1      13.991  11.790  -4.429  0.00  0.00     0.027 A 
ENDBRANCH  11  12
ENDBRANCH  10  11
ENDBRANCH   8  10
ENDBRANCH   2   7
BRANCH   1  18
ATOM     18  C   UNL d   1      15.343  12.278  -0.663  0.00  0.00     0.297 C 
ATOM     19  O   UNL d   1      14.976  11.938  -0.014  0.00  0.00    -0.259 OA
BRANCH  18  20
ATOM     20  O   UNL d   1      15.887  11.840  -1.102  0.00  0.00    -0.296 OA
ATOM     21  C   UNL d   1      16.677  11.799  -0.853  0.00  0.00     0.185 C 
ENDBRANCH  18  20
ENDBRANCH   1  18
BRANCH   3  22
ATOM     22  C   UNL d   1      14.647  15.381  -1.549  0.00  0.00     0.296 C 
ATOM     23  O   UNL d   1      14.264  15.890  -1.024  0.00  0.00    -0.259 OA
BRANCH  22  24
ATOM     24  O   UNL d   1      14.856  15.653  -2.301  0.00  0.00    -0.296 OA
ATOM     25  C   UNL d   1      14.811  16.457  -2.478  0.00  0.00     0.185 C 
ENDBRANCH  22  24
ENDBRANCH   3  22
TORSDOF 8
ENDMDL
MODEL 5
REMARK VINA RESULT:      39.7      1.311      3.796
REMARK  8 active torsions:
REMARK  status: ('A' for Active; 'I' for Inactive)
REMARK    1  A    between atoms: C_3  and  C_1 
REMARK    2  A    between atoms: N_4  and  C_2 
REMARK    3  A    between atoms: O_21  and  C_3 
REMARK       I    between atoms: C_11  and  N_4 
REMARK    4  A    between atoms: C_6  and  C_7 
REMARK    5  A    between atoms: O_22  and  C_6 
REMARK    6  A    between atoms: C_10  and  C_20 
REMARK    7  A    between atoms: C_19  and  C_11 
REMARK    8  A    between atoms: C_20  and  C_19 
ROOT
ATOM      1  C   UNL d   1      13.307  13.084  -4.720  0.00  0.00     0.081 A 
ATOM      2  C   UNL d   1      13.540  13.168  -3.934  0.00  0.00     0.090 A 
ATOM      3  C   UNL d   1      13.700  14.570  -4.116  0.00  0.00     0.065 A 
ATOM      4  C   UNL d   1      13.736  13.906  -3.630  0.00  0.00     0.025 A 
ATOM      5  C   UNL d   1      13.271  13.749  -5.206  0.00  0.00     0.007 A 
ATOM      6  C   UNL d   1      13.467  14.493  -4.904  0.00  0.00     0.006 A 
ENDROOT
BRANCH   2   7
ATOM      7  N   UNL d   1      13.575  12.502  -3.453  0.00  0.00    -0.208 NA
ATOM      8  C   UNL d   1      14.093  12.488  -2.805  0.00  0.00     0.279 C 
ATOM      9  O   UNL d   1      14.571  13.145  -2.651  0.00  0.00    -0.265 OA
BRANCH   8  10
ATOM     10  C   UNL d   1      14.129  11.824  -2.324  0.00  0.00     0.065 C 
BRANCH  10  11
ATOM     11  C   UNL d   1      14.701  11.779  -1.725  0.00  0.00     0.030 C 
BRANCH  11  12
ATOM     12  C   UNL d   1      14.712  12.341  -1.126  0.00  0.00     0.100 A 
ATOM     13  O   UNL d   1      15.221  12.989  -1.073  0.00  0.00    -0.307 OA
ATOM     14  C   UNL d   1      15.037  13.396  -0.391  0.00  0.00     0.100 A 
ATOM     15  C   UNL d   1      15.410  14.081  -0.122  0.00  0.00     0.027 C 
ATOM     16  C   UNL d   1      14.419  13.013  -0.014  0.00  0.00     0.027 A 
ATOM     17  C   UNL d   1      14.214  12.364  -0.459  0.00  0.00     0.027 A 
ENDBRANCH  11  12
ENDBRANCH  10  11
ENDBRANCH   8  10
ENDBRANCH   2   7
BRANCH   1  18
ATOM     18  C   UNL d   1      13.113  12.340  -5.013  0.00  0.00     0.297 C 
ATOM     19  O   UNL d   1      12.769  11.779  -4.525  0.00  0.00    -0.259 OA
BRANCH  18  20
ATOM     20  O   UNL d   1      13.265  12.157  -5.803  0.00  0.00    -0.296 OA
ATOM     21  C   UNL d   1      14.018  11.891  -6.025  0.00  0.00     0.185 C 
ENDBRANCH  18  20
ENDBRANCH   1  18
BRANCH   3  22
ATOM     22  C   UNL d   1      13.896  15.314  -3.815  0.00  0.00     0.296 C 
ATOM     23  O   UNL d   1      13.878  15.980  -4.303  0.00  0.00    -0.259 OA
BRANCH  22  24
ATOM     24  O   UNL d   1      14.111  15.396  -3.022  0.00  0.00    -0.296 OA
ATOM     25  C   UNL d   1      14.540  16.056  -2.774  0.00  0.00     0.185 C 
ENDBRANCH  22  24
ENDBRANCH   3  22
TORSDOF 8
ENDMDL
