MODEL 1
REMARK VINA RESULT:      -2.7      0.000      0.000
REMARK  1 active torsions:
REMARK  status: ('A' for Active; 'I' for Inactive)
REMARK    1  A    between atoms: C_4  and  C_1 
ROOT
ATOM      1  C   UNL d   1      30.434  16.090 -23.633  0.00  0.00     0.036 A 
ATOM      2  C   UNL d   1      29.951  16.549 -24.127  0.00  0.00     0.061 A 
ATOM      3  C   UNL d   1      30.078  15.591 -23.088  0.00  0.00     0.004 A 
ATOM      4  C   UNL d   1      29.141  16.507 -24.075  0.00  0.00     0.023 A 
ATOM      5  C   UNL d   1      28.792  15.999 -23.521  0.00  0.00     0.059 A 
ATOM      6 CL   UNL d   1      30.307  17.049 -24.672  0.00  0.00    -0.082 Cl
ATOM      7  C   UNL d   1      29.253  15.544 -23.031  0.00  0.00     0.011 A 
ATOM      8 CL   UNL d   1      27.974  15.962 -23.475  0.00  0.00    -0.082 Cl
ENDROOT
BRANCH   1   9
ATOM      9  C   UNL d   1      31.257  16.127 -23.679  0.00  0.00     0.136 A 
ATOM     10  S   UNL d   1      31.758  15.579 -24.039  0.00  0.00    -0.024 SA
ATOM     11  C   UNL d   1      32.537  15.836 -23.953  0.00  0.00     0.236 A 
ATOM     12  N   UNL d   1      33.216  15.458 -24.229  0.00  0.00    -0.118 N 
ATOM     13  N   UNL d   1      32.528  16.563 -23.530  0.00  0.00    -0.119 NA
ATOM     14  N   UNL d   1      31.740  16.742 -23.361  0.00  0.00    -0.139 NA
ENDBRANCH   1   9
TORSDOF 1
ENDMDL
MODEL 2
REMARK VINA RESULT:      -2.7      2.064      3.108
REMARK  1 active torsions:
REMARK  status: ('A' for Active; 'I' for Inactive)
REMARK    1  A    between atoms: C_4  and  C_1 
ROOT
ATOM      1  C   UNL d   1      30.470  16.561 -24.108  0.00  0.00     0.036 A 
ATOM      2  C   UNL d   1      30.596  17.315 -24.428  0.00  0.00     0.061 A 
ATOM      3  C   UNL d   1      31.079  16.202 -23.693  0.00  0.00     0.004 A 
ATOM      4  C   UNL d   1      31.308  17.696 -24.334  0.00  0.00     0.023 A 
ATOM      5  C   UNL d   1      31.917  17.324 -23.912  0.00  0.00     0.059 A 
ATOM      6 CL   UNL d   1      29.986  17.674 -24.844  0.00  0.00    -0.082 Cl
ATOM      7  C   UNL d   1      31.808  16.585 -23.594  0.00  0.00     0.011 A 
ATOM      8 CL   UNL d   1      32.633  17.714 -23.821  0.00  0.00    -0.082 Cl
ENDROOT
BRANCH   1   9
ATOM      9  C   UNL d   1      29.750  16.168 -24.200  0.00  0.00     0.136 A 
ATOM     10  S   UNL d   1      29.151  16.094 -23.636  0.00  0.00    -0.024 SA
ATOM     11  C   UNL d   1      28.532  15.658 -23.964  0.00  0.00     0.236 A 
ATOM     12  N   UNL d   1      27.823  15.453 -23.596  0.00  0.00    -0.118 N 
ATOM     13  N   UNL d   1      28.744  15.453 -24.752  0.00  0.00    -0.119 NA
ATOM     14  N   UNL d   1      29.494  15.766 -24.896  0.00  0.00    -0.139 NA
ENDBRANCH   1   9
TORSDOF 1
ENDMDL
MODEL 3
REMARK VINA RESULT:      -2.6      6.514      7.081
REMARK  1 active torsions:
REMARK  status: ('A' for Active; 'I' for Inactive)
REMARK    1  A    between atoms: C_4  and  C_1 
ROOT
ATOM      1  C   UNL d   1      32.842  21.636 -21.254  0.00  0.00     0.036 A 
ATOM      2  C   UNL d   1      33.040  21.673 -22.058  0.00  0.00     0.061 A 
ATOM      3  C   UNL d   1      32.763  20.900 -20.902  0.00  0.00     0.004 A 
ATOM      4  C   UNL d   1      33.153  20.995 -22.493  0.00  0.00     0.023 A 
ATOM      5  C   UNL d   1      33.070  20.257 -22.127  0.00  0.00     0.059 A 
ATOM      6 CL   UNL d   1      33.119  22.410 -22.410  0.00  0.00    -0.082 Cl
ATOM      7  C   UNL d   1      32.877  20.205 -21.340  0.00  0.00     0.011 A 
ATOM      8 CL   UNL d   1      33.185  19.577 -22.571  0.00  0.00    -0.082 Cl
ENDROOT
BRANCH   1   9
ATOM      9  C   UNL d   1      32.726  22.319 -20.806  0.00  0.00     0.136 A 
ATOM     10  S   UNL d   1      33.151  22.552 -20.137  0.00  0.00    -0.024 SA
ATOM     11  C   UNL d   1      32.847  23.270 -19.868  0.00  0.00     0.236 A 
ATOM     12  N   UNL d   1      33.107  23.702 -19.215  0.00  0.00    -0.118 N 
ATOM     13  N   UNL d   1      32.217  23.496 -20.377  0.00  0.00    -0.119 NA
ATOM     14  N   UNL d   1      32.143  22.911 -20.954  0.00  0.00    -0.139 NA
ENDBRANCH   1   9
TORSDOF 1
ENDMDL
MODEL 4
REMARK VINA RESULT:      -2.6      1.106      1.405
REMARK  1 active torsions:
REMARK  status: ('A' for Active; 'I' for Inactive)
REMARK    1  A    between atoms: C_4  and  C_1 
ROOT
ATOM      1  C   UNL d   1      30.301  16.478 -24.082  0.00  0.00     0.036 A 
ATOM      2  C   UNL d   1      30.061  15.930 -23.508  0.00  0.00     0.061 A 
ATOM      3  C   UNL d   1      29.733  16.954 -24.433  0.00  0.00     0.004 A 
ATOM      4  C   UNL d   1      29.279  15.863 -23.294  0.00  0.00     0.023 A 
ATOM      5  C   UNL d   1      28.714  16.349 -23.656  0.00  0.00     0.059 A 
ATOM      6 CL   UNL d   1      30.629  15.453 -23.156  0.00  0.00    -0.082 Cl
ATOM      7  C   UNL d   1      28.935  16.890 -24.220  0.00  0.00     0.011 A 
ATOM      8 CL   UNL d   1      27.927  16.277 -23.436  0.00  0.00    -0.082 Cl
ENDROOT
BRANCH   1   9
ATOM      9  C   UNL d   1      31.092  16.551 -24.303  0.00  0.00     0.136 A 
ATOM     10  S   UNL d   1      31.635  17.109 -24.027  0.00  0.00    -0.024 SA
ATOM     11  C   UNL d   1      32.360  16.978 -24.397  0.00  0.00     0.236 A 
ATOM     12  N   UNL d   1      33.056  17.406 -24.285  0.00  0.00    -0.118 N 
ATOM     13  N   UNL d   1      32.274  16.324 -24.919  0.00  0.00    -0.119 NA
ATOM     14  N   UNL d   1      31.494  16.062 -24.861  0.00  0.00    -0.139 NA
ENDBRANCH   1   9
TORSDOF 1
ENDMDL
MODEL 5
REMARK VINA RESULT:      -2.5      6.920      7.309
REMARK  1 active torsions:
REMARK  status: ('A' for Active; 'I' for Inactive)
REMARK    1  A    between atoms: C_4  and  C_1 
ROOT
ATOM      1  C   UNL d   1      32.808  22.223 -20.537  0.00  0.00     0.036 A 
ATOM      2  C   UNL d   1      32.261  22.845 -20.561  0.00  0.00     0.061 A 
ATOM      3  C   UNL d   1      33.241  22.107 -19.850  0.00  0.00     0.004 A 
ATOM      4  C   UNL d   1      32.152  23.332 -19.919  0.00  0.00     0.023 A 
ATOM      5  C   UNL d   1      32.595  23.205 -19.231  0.00  0.00     0.059 A 
ATOM      6 CL   UNL d   1      31.827  22.962 -21.249  0.00  0.00    -0.082 Cl
ATOM      7  C   UNL d   1      33.135  22.600 -19.192  0.00  0.00     0.011 A 
ATOM      8 CL   UNL d   1      32.480  23.700 -18.587  0.00  0.00    -0.082 Cl
ENDROOT
BRANCH   1   9
ATOM      9  C   UNL d   1      32.924  21.725 -21.184  0.00  0.00     0.136 A 
ATOM     10  S   UNL d   1      32.797  20.909 -21.211  0.00  0.00    -0.024 SA
ATOM     11  C   UNL d   1      32.984  20.637 -21.967  0.00  0.00     0.236 A 
ATOM     12  N   UNL d   1      32.937  19.859 -22.238  0.00  0.00    -0.118 N 
ATOM     13  N   UNL d   1      33.235  21.295 -22.427  0.00  0.00    -0.119 NA
ATOM     14  N   UNL d   1      33.198  21.964 -21.946  0.00  0.00    -0.139 NA
ENDBRANCH   1   9
TORSDOF 1
ENDMDL
MODEL 6
REMARK VINA RESULT:      -2.0      3.119      3.955
REMARK  1 active torsions:
REMARK  status: ('A' for Active; 'I' for Inactive)
REMARK    1  A    between atoms: C_4  and  C_1 
ROOT
ATOM      1  C   UNL d   1      32.850  18.602 -23.248  0.00  0.00     0.036 A 
ATOM      2  C   UNL d   1      32.933  19.176 -23.840  0.00  0.00     0.061 A 
ATOM      3  C   UNL d   1      32.900  18.836 -22.464  0.00  0.00     0.004 A 
ATOM      4  C   UNL d   1      33.062  19.957 -23.651  0.00  0.00     0.023 A 
ATOM      5  C   UNL d   1      33.110  20.181 -22.855  0.00  0.00     0.059 A 
ATOM      6 CL   UNL d   1      32.883  18.943 -24.626  0.00  0.00    -0.082 Cl
ATOM      7  C   UNL d   1      33.031  19.629 -22.265  0.00  0.00     0.011 A 
ATOM      8 CL   UNL d   1      33.240  20.970 -22.672  0.00  0.00    -0.082 Cl
ENDROOT
BRANCH   1   9
ATOM      9  C   UNL d   1      32.719  17.808 -23.432  0.00  0.00     0.136 A 
ATOM     10  S   UNL d   1      33.229  17.175 -23.287  0.00  0.00    -0.024 SA
ATOM     11  C   UNL d   1      32.875  16.483 -23.561  0.00  0.00     0.236 A 
ATOM     12  N   UNL d   1      33.190  15.720 -23.528  0.00  0.00    -0.118 N 
ATOM     13  N   UNL d   1      32.126  16.682 -23.887  0.00  0.00    -0.119 NA
ATOM     14  N   UNL d   1      32.030  17.497 -23.808  0.00  0.00    -0.139 NA
ENDBRANCH   1   9
TORSDOF 1
ENDMDL
