MODEL 1
REMARK VINA RESULT:       4.6      0.000      0.000
REMARK  1 active torsions:
REMARK  status: ('A' for Active; 'I' for Inactive)
REMARK    1  A    between atoms: C_5  and  C_2 
ROOT
ATOM      1  N   UNL d   1     -52.797  24.509  33.316  0.00  0.00    -0.217 NA
ATOM      2  C   UNL d   1     -51.991  24.590  33.360  0.00  0.00     0.113 A 
ATOM      3  C   UNL d   1     -52.974  23.701  33.343  0.00  0.00     0.215 A 
ATOM      4  S   UNL d   1     -52.246  23.289  33.406  0.00  0.00    -0.045 SA
ATOM      5  C   UNL d   1     -51.642  23.835  33.417  0.00  0.00     0.060 A 
ATOM      6  N   UNL d   1     -53.742  23.363  33.312  0.00  0.00    -0.120 N 
ENDROOT
BRANCH   2   7
ATOM      7  C   UNL d   1     -51.543  25.308  33.354  0.00  0.00     0.118 A 
ATOM      8  O   UNL d   1     -50.708  25.391  33.368  0.00  0.00    -0.304 OA
ATOM      9  C   UNL d   1     -50.541  26.212  33.354  0.00  0.00     0.123 A 
ATOM     10  C   UNL d   1     -51.261  26.614  33.332  0.00  0.00     0.029 A 
ATOM     11  C   UNL d   1     -51.868  26.065  33.332  0.00  0.00     0.028 A 
ENDBRANCH   2   7
TORSDOF 1
ENDMDL
MODEL 2
REMARK VINA RESULT:       5.5      1.866      2.968
REMARK  1 active torsions:
REMARK  status: ('A' for Active; 'I' for Inactive)
REMARK    1  A    between atoms: C_5  and  C_2 
ROOT
ATOM      1  N   UNL d   1     -50.624  25.608  33.331  0.00  0.00    -0.217 NA
ATOM      2  C   UNL d   1     -51.392  25.346  33.321  0.00  0.00     0.113 A 
ATOM      3  C   UNL d   1     -50.637  26.437  33.322  0.00  0.00     0.215 A 
ATOM      4  S   UNL d   1     -51.443  26.672  33.306  0.00  0.00    -0.045 SA
ATOM      5  C   UNL d   1     -51.906  26.002  33.306  0.00  0.00     0.060 A 
ATOM      6  N   UNL d   1     -49.967  26.941  33.327  0.00  0.00    -0.120 N 
ENDROOT
BRANCH   2   7
ATOM      7  C   UNL d   1     -51.664  24.545  33.325  0.00  0.00     0.118 A 
ATOM      8  O   UNL d   1     -52.457  24.273  33.340  0.00  0.00    -0.304 OA
ATOM      9  C   UNL d   1     -52.431  23.435  33.338  0.00  0.00     0.123 A 
ATOM     10  C   UNL d   1     -51.638  23.209  33.324  0.00  0.00     0.029 A 
ATOM     11  C   UNL d   1     -51.173  23.882  33.316  0.00  0.00     0.028 A 
ENDBRANCH   2   7
TORSDOF 1
ENDMDL
