MODEL 1
REMARK VINA RESULT:      77.5      0.000      0.000
REMARK  9 active torsions:
REMARK  status: ('A' for Active; 'I' for Inactive)
REMARK    1  A    between atoms: P_4  and  C_1 
REMARK    2  A    between atoms: N_7  and  C_3 
REMARK    3  A    between atoms: O_10  and  P_4 
REMARK    4  A    between atoms: O_11  and  P_4 
REMARK    5  A    between atoms: C_8  and  C_5 
REMARK    6  A    between atoms: C_14  and  N_7 
REMARK    7  A    between atoms: C_21  and  O_10 
REMARK    8  A    between atoms: C_20  and  O_11 
REMARK    9  A    between atoms: C_19  and  C_14 
ROOT
ATOM      1  C   UNL d   1      60.317  48.092  51.088  0.00  0.00     0.205 A 
ATOM      2  N   UNL d   1      60.815  47.442  51.093  0.00  0.00    -0.211 NA
ATOM      3  C   UNL d   1      59.605  47.885  50.731  0.00  0.00     0.209 A 
ATOM      4  C   UNL d   1      60.424  46.840  50.745  0.00  0.00     0.184 A 
ATOM      5  O   UNL d   1      59.680  47.086  50.515  0.00  0.00    -0.270 OA
ENDROOT
BRANCH   1   6
ATOM      6  P   UNL d   1      60.493  48.859  51.398  0.00  0.00     0.395 P 
ATOM      7  O   UNL d   1      59.991  48.731  52.039  0.00  0.00    -0.251 OA
BRANCH   6   8
ATOM      8  O   UNL d   1      60.672  49.609  51.690  0.00  0.00    -0.263 OA
BRANCH   8   9
ATOM      9  C   UNL d   1      61.140  49.708  52.340  0.00  0.00     0.126 C 
ATOM     10  C   UNL d   1      61.940  49.682  52.265  0.00  0.00     0.029 C 
ENDBRANCH   8   9
ENDBRANCH   6   8
BRANCH   6  11
ATOM     11  O   UNL d   1      61.002  48.974  50.736  0.00  0.00    -0.263 OA
BRANCH  11  12
ATOM     12  C   UNL d   1      60.981  49.691  50.351  0.00  0.00     0.126 C 
ATOM     13  C   UNL d   1      61.262  49.705  49.578  0.00  0.00     0.029 C 
ENDBRANCH  11  12
ENDBRANCH   6  11
ENDBRANCH   1   6
BRANCH   3  14
ATOM     14  N   UNL d   1      58.993  48.457  50.655  0.00  0.00    -0.219 NA
BRANCH  14  15
ATOM     15  C   UNL d   1      58.217  48.258  50.865  0.00  0.00     0.101 C 
BRANCH  15  16
ATOM     16  C   UNL d   1      57.591  48.738  50.618  0.00  0.00     0.019 A 
ATOM     17  C   UNL d   1      57.071  49.084  51.182  0.00  0.00     0.002 A 
ATOM     18  C   UNL d   1      56.455  49.558  50.927  0.00  0.00     0.000 A 
ATOM     19  C   UNL d   1      56.329  49.707  50.113  0.00  0.00     0.000 A 
ATOM     20  C   UNL d   1      56.855  49.356  49.544  0.00  0.00     0.000 A 
ATOM     21  C   UNL d   1      57.475  48.878  49.820  0.00  0.00     0.002 A 
ENDBRANCH  15  16
ENDBRANCH  14  15
ENDBRANCH   3  14
BRANCH   4  22
ATOM     22  C   UNL d   1      60.756  46.090  50.651  0.00  0.00     0.042 A 
ATOM     23  C   UNL d   1      61.243  45.917  50.015  0.00  0.00     0.006 A 
ATOM     24  C   UNL d   1      61.566  45.169  49.934  0.00  0.00     0.030 A 
ATOM     25  C   UNL d   1      61.411  44.571  50.488  0.00  0.00     0.140 A 
ATOM     26  C   UNL d   1      60.908  44.744  51.149  0.00  0.00     0.030 A 
ATOM     27  F   UNL d   1      61.720  43.813  50.433  0.00  0.00    -0.204 F 
ATOM     28  C   UNL d   1      60.588  45.499  51.221  0.00  0.00     0.006 A 
ENDBRANCH   4  22
TORSDOF 9
ENDMDL
MODEL 2
REMARK VINA RESULT:      77.8      1.736      4.239
REMARK  9 active torsions:
REMARK  status: ('A' for Active; 'I' for Inactive)
REMARK    1  A    between atoms: P_4  and  C_1 
REMARK    2  A    between atoms: N_7  and  C_3 
REMARK    3  A    between atoms: O_10  and  P_4 
REMARK    4  A    between atoms: O_11  and  P_4 
REMARK    5  A    between atoms: C_8  and  C_5 
REMARK    6  A    between atoms: C_14  and  N_7 
REMARK    7  A    between atoms: C_21  and  O_10 
REMARK    8  A    between atoms: C_20  and  O_11 
REMARK    9  A    between atoms: C_19  and  C_14 
ROOT
ATOM      1  C   UNL d   1      60.349  49.069  50.987  0.00  0.00     0.205 A 
ATOM      2  N   UNL d   1      59.627  49.445  50.896  0.00  0.00    -0.211 NA
ATOM      3  C   UNL d   1      60.307  48.319  50.652  0.00  0.00     0.209 A 
ATOM      4  C   UNL d   1      59.143  48.941  50.513  0.00  0.00     0.184 A 
ATOM      5  O   UNL d   1      59.537  48.244  50.352  0.00  0.00    -0.270 OA
ENDROOT
BRANCH   1   6
ATOM      6  P   UNL d   1      61.036  49.390  51.363  0.00  0.00     0.395 P 
ATOM      7  O   UNL d   1      61.519  49.091  50.765  0.00  0.00    -0.251 OA
BRANCH   6   8
ATOM      8  O   UNL d   1      61.698  49.707  51.738  0.00  0.00    -0.263 OA
BRANCH   8   9
ATOM      9  C   UNL d   1      62.404  49.316  51.750  0.00  0.00     0.126 C 
ATOM     10  C   UNL d   1      62.778  49.185  52.449  0.00  0.00     0.029 C 
ENDBRANCH   8   9
ENDBRANCH   6   8
BRANCH   6  11
ATOM     11  O   UNL d   1      60.527  49.689  51.965  0.00  0.00    -0.263 OA
BRANCH  11  12
ATOM     12  C   UNL d   1      60.782  49.658  52.738  0.00  0.00     0.126 C 
ATOM     13  C   UNL d   1      60.204  49.695  53.321  0.00  0.00     0.029 C 
ENDBRANCH  11  12
ENDBRANCH   6  11
ENDBRANCH   1   6
BRANCH   3  14
ATOM     14  N   UNL d   1      60.981  47.815  50.671  0.00  0.00    -0.219 NA
BRANCH  14  15
ATOM     15  C   UNL d   1      61.057  47.211  50.109  0.00  0.00     0.101 C 
BRANCH  15  16
ATOM     16  C   UNL d   1      61.091  46.423  50.357  0.00  0.00     0.019 A 
ATOM     17  C   UNL d   1      60.425  46.064  50.725  0.00  0.00     0.002 A 
ATOM     18  C   UNL d   1      60.469  45.284  50.968  0.00  0.00     0.000 A 
ATOM     19  C   UNL d   1      61.165  44.832  50.858  0.00  0.00     0.000 A 
ATOM     20  C   UNL d   1      61.838  45.198  50.485  0.00  0.00     0.000 A 
ATOM     21  C   UNL d   1      61.776  45.990  50.245  0.00  0.00     0.002 A 
ENDBRANCH  15  16
ENDBRANCH  14  15
ENDBRANCH   3  14
BRANCH   4  22
ATOM     22  C   UNL d   1      58.363  49.133  50.323  0.00  0.00     0.042 A 
ATOM     23  C   UNL d   1      57.800  49.255  50.905  0.00  0.00     0.006 A 
ATOM     24  C   UNL d   1      57.030  49.444  50.702  0.00  0.00     0.030 A 
ATOM     25  C   UNL d   1      56.799  49.517  49.909  0.00  0.00     0.140 A 
ATOM     26  C   UNL d   1      57.378  49.391  49.301  0.00  0.00     0.030 A 
ATOM     27  F   UNL d   1      56.036  49.705  49.676  0.00  0.00    -0.204 F 
ATOM     28  C   UNL d   1      58.149  49.201  49.515  0.00  0.00     0.006 A 
ENDBRANCH   4  22
TORSDOF 9
ENDMDL
