MODEL 1
REMARK VINA RESULT:      42.0      0.000      0.000
REMARK  7 active torsions:
REMARK  status: ('A' for Active; 'I' for Inactive)
REMARK    1  A    between atoms: C_3  and  C_1 
REMARK    2  A    between atoms: C_5  and  C_3 
REMARK    3  A    between atoms: C_14  and  C_3 
REMARK    4  A    between atoms: N_6  and  C_14 
REMARK    5  A    between atoms: O_17  and  C_9 
REMARK    6  A    between atoms: O_18  and  C_10 
REMARK    7  A    between atoms: O_19  and  C_11 
ROOT
ATOM      1  C   UNL d   1      14.590  12.649  -1.988  0.00  0.00     0.025 C 
ENDROOT
BRANCH   1   2
ATOM      2  C   UNL d   1      13.942  12.364  -2.411  0.00  0.00     0.021 A 
ATOM      3  C   UNL d   1      13.279  11.967  -2.078  0.00  0.00     0.082 A 
ATOM      4  N   UNL d   1      12.769  11.779  -2.680  0.00  0.00    -0.246 NA
ATOM      5  C   UNL d   1      13.170  11.799  -1.274  0.00  0.00     0.021 C 
ATOM      6  C   UNL d   1      13.096  12.049  -3.387  0.00  0.00     0.081 A 
ATOM      7  C   UNL d   1      13.820  12.408  -3.206  0.00  0.00     0.019 A 
ATOM      8  C   UNL d   1      12.843  12.020  -4.156  0.00  0.00     0.019 A 
ATOM      9  C   UNL d   1      14.279  12.734  -3.811  0.00  0.00     0.002 A 
ATOM     10  C   UNL d   1      14.019  12.702  -4.586  0.00  0.00     0.000 A 
ATOM     11  C   UNL d   1      13.295  12.343  -4.767  0.00  0.00     0.002 A 
ENDBRANCH   1   2
BRANCH   1  12
ATOM     12  C   UNL d   1      14.617  13.452  -1.782  0.00  0.00     0.006 A 
ATOM     13  C   UNL d   1      14.373  14.018  -2.318  0.00  0.00     0.026 A 
ATOM     14  C   UNL d   1      14.396  14.816  -2.122  0.00  0.00     0.118 A 
ATOM     15  C   UNL d   1      14.667  15.037  -1.382  0.00  0.00     0.138 A 
ATOM     16  C   UNL d   1      14.916  14.473  -0.834  0.00  0.00     0.118 A 
ATOM     17  C   UNL d   1      14.888  13.673  -1.042  0.00  0.00     0.026 A 
BRANCH  14  18
ATOM     18  O   UNL d   1      14.152  15.382  -2.658  0.00  0.00    -0.326 OA
ATOM     19  C   UNL d   1      14.689  15.720  -3.175  0.00  0.00     0.181 C 
ENDBRANCH  14  18
BRANCH  15  20
ATOM     20  O   UNL d   1      14.691  15.831  -1.184  0.00  0.00    -0.324 OA
ATOM     21  C   UNL d   1      15.423  16.216  -1.148  0.00  0.00     0.182 C 
ENDBRANCH  15  20
BRANCH  16  22
ATOM     22  O   UNL d   1      15.187  14.689  -0.096  0.00  0.00    -0.326 OA
ATOM     23  C   UNL d   1      15.892  15.102  -0.014  0.00  0.00     0.181 C 
ENDBRANCH  16  22
ENDBRANCH   1  12
BRANCH   1  24
ATOM     24  C   UNL d   1      15.209  12.145  -1.770  0.00  0.00     0.148 C 
BRANCH  24  25
ATOM     25  N   UNL d   1      15.655  12.365  -1.107  0.00  0.00    -0.112 N 
ATOM     26  O   UNL d   1      16.300  12.885  -1.206  0.00  0.00    -0.532 OA
ATOM     27  O   UNL d   1      15.463  12.073  -0.365  0.00  0.00    -0.532 OA
ENDBRANCH  24  25
ENDBRANCH   1  24
TORSDOF 7
ENDMDL
