MODEL 1
REMARK VINA RESULT:      -8.1      0.000      0.000
REMARK  8 active torsions:
REMARK  status: ('A' for Active; 'I' for Inactive)
REMARK    1  A    between atoms: N_10  and  C_1 
REMARK    2  A    between atoms: C_20  and  N_2 
REMARK    3  A    between atoms: C_4  and  S_13 
REMARK       I    between atoms: C_14  and  N_10 
REMARK       I    between atoms: C_12  and  N_18 
REMARK    4  A    between atoms: C_16  and  C_12 
REMARK    5  A    between atoms: S_13  and  C_19 
REMARK    6  A    between atoms: C_19  and  C_14 
REMARK    7  A    between atoms: N_18  and  C_22 
REMARK    8  A    between atoms: C_22  and  C_20 
ROOT
ATOM      1  N   UNL d   1      52.978  33.185  53.374  0.00  0.00    -0.302 N 
ATOM      2  C   UNL d   1      52.050  34.054  52.961  0.00  0.00     0.049 A 
ATOM      3  C   UNL d   1      52.324  33.288  52.864  0.00  0.00     0.087 A 
ATOM      4  C   UNL d   1      52.525  34.433  53.526  0.00  0.00     0.024 A 
ATOM      5  C   UNL d   1      53.096  33.894  53.779  0.00  0.00     0.065 A 
ATOM      6  C   UNL d   1      52.504  35.192  53.834  0.00  0.00     0.002 A 
ATOM      7  C   UNL d   1      53.644  34.122  54.341  0.00  0.00     0.018 A 
ATOM      8  C   UNL d   1      53.057  35.418  54.400  0.00  0.00     0.000 A 
ATOM      9  C   UNL d   1      53.630  34.885  54.656  0.00  0.00     0.002 A 
ENDROOT
BRANCH   1  10
ATOM     10  C   UNL d   1      53.427  32.502  53.462  0.00  0.00     0.101 C 
BRANCH  10  11
ATOM     11  C   UNL d   1      53.095  31.768  53.297  0.00  0.00     0.121 C 
BRANCH  11  12
ATOM     12  N   UNL d   1      53.289  31.114  53.769  0.00  0.00    -0.205 NA
ATOM     13  C   UNL d   1      53.014  30.361  53.563  0.00  0.00     0.279 C 
ATOM     14  O   UNL d   1      52.546  30.264  52.886  0.00  0.00    -0.265 OA
BRANCH  13  15
ATOM     15  C   UNL d   1      53.207  29.716  54.031  0.00  0.00     0.058 A 
ATOM     16  C   UNL d   1      53.713  29.148  53.759  0.00  0.00     0.005 A 
ATOM     17  C   UNL d   1      53.917  28.494  54.216  0.00  0.00     0.000 A 
ATOM     18  C   UNL d   1      53.598  28.413  54.973  0.00  0.00     0.000 A 
ATOM     19  C   UNL d   1      53.077  28.991  55.262  0.00  0.00     0.000 A 
ATOM     20  C   UNL d   1      52.882  29.641  54.790  0.00  0.00     0.005 A 
ENDBRANCH  13  15
ENDBRANCH  11  12
ENDBRANCH  10  11
ENDBRANCH   1  10
BRANCH   2  21
ATOM     21  S   UNL d   1      51.411  34.395  52.566  0.00  0.00    -0.080 SA
BRANCH  21  22
ATOM     22  C   UNL d   1      50.704  33.979  52.504  0.00  0.00     0.098 C 
BRANCH  22  23
ATOM     23  C   UNL d   1      50.074  34.293  52.063  0.00  0.00     0.288 C 
ATOM     24  N   UNL d   1      49.363  34.458  52.435  0.00  0.00    -0.181 NA
ATOM     25  O   UNL d   1      50.168  34.435  51.260  0.00  0.00    -0.265 OA
BRANCH  24  26
ATOM     26  C   UNL d   1      48.728  34.772  52.003  0.00  0.00     0.219 A 
ATOM     27  S   UNL d   1      48.241  35.390  52.230  0.00  0.00    -0.026 SA
ATOM     28  C   UNL d   1      47.689  35.511  51.629  0.00  0.00     0.135 A 
ATOM     29  C   UNL d   1      47.091  36.082  51.629  0.00  0.00     0.030 C 
ATOM     30  N   UNL d   1      47.825  34.977  51.031  0.00  0.00    -0.139 NA
ATOM     31  N   UNL d   1      48.469  34.514  51.255  0.00  0.00    -0.121 NA
ENDBRANCH  24  26
ENDBRANCH  22  23
ENDBRANCH  21  22
ENDBRANCH   2  21
TORSDOF 8
ENDMDL
MODEL 2
REMARK VINA RESULT:      -7.9      1.377      6.062
REMARK  8 active torsions:
REMARK  status: ('A' for Active; 'I' for Inactive)
REMARK    1  A    between atoms: N_10  and  C_1 
REMARK    2  A    between atoms: C_20  and  N_2 
REMARK    3  A    between atoms: C_4  and  S_13 
REMARK       I    between atoms: C_14  and  N_10 
REMARK       I    between atoms: C_12  and  N_18 
REMARK    4  A    between atoms: C_16  and  C_12 
REMARK    5  A    between atoms: S_13  and  C_19 
REMARK    6  A    between atoms: C_19  and  C_14 
REMARK    7  A    between atoms: N_18  and  C_22 
REMARK    8  A    between atoms: C_22  and  C_20 
ROOT
ATOM      1  N   UNL d   1      51.656  34.354  53.105  0.00  0.00    -0.302 N 
ATOM      2  C   UNL d   1      52.520  33.336  53.147  0.00  0.00     0.049 A 
ATOM      3  C   UNL d   1      51.809  33.582  52.824  0.00  0.00     0.087 A 
ATOM      4  C   UNL d   1      52.815  33.944  53.628  0.00  0.00     0.024 A 
ATOM      5  C   UNL d   1      52.280  34.570  53.599  0.00  0.00     0.065 A 
ATOM      6  C   UNL d   1      53.497  33.999  54.079  0.00  0.00     0.002 A 
ATOM      7  C   UNL d   1      52.433  35.251  54.026  0.00  0.00     0.018 A 
ATOM      8  C   UNL d   1      53.647  34.685  54.508  0.00  0.00     0.000 A 
ATOM      9  C   UNL d   1      53.117  35.314  54.484  0.00  0.00     0.002 A 
ENDROOT
BRANCH   1  10
ATOM     10  C   UNL d   1      51.003  34.820  52.924  0.00  0.00     0.101 C 
BRANCH  10  11
ATOM     11  C   UNL d   1      50.333  34.477  52.593  0.00  0.00     0.121 C 
BRANCH  11  12
ATOM     12  N   UNL d   1      49.609  34.882  52.617  0.00  0.00    -0.205 NA
ATOM     13  C   UNL d   1      49.081  34.819  51.984  0.00  0.00     0.279 C 
ATOM     14  O   UNL d   1      49.276  34.351  51.328  0.00  0.00    -0.265 OA
BRANCH  13  15
ATOM     15  C   UNL d   1      48.366  35.221  52.009  0.00  0.00     0.058 A 
ATOM     16  C   UNL d   1      48.183  35.695  52.638  0.00  0.00     0.005 A 
ATOM     17  C   UNL d   1      47.471  36.105  52.679  0.00  0.00     0.000 A 
ATOM     18  C   UNL d   1      46.925  36.032  52.063  0.00  0.00     0.000 A 
ATOM     19  C   UNL d   1      47.103  35.547  51.413  0.00  0.00     0.000 A 
ATOM     20  C   UNL d   1      47.823  35.142  51.388  0.00  0.00     0.005 A 
ENDBRANCH  13  15
ENDBRANCH  11  12
ENDBRANCH  10  11
ENDBRANCH   1  10
BRANCH   2  21
ATOM     21  S   UNL d   1      52.884  32.607  53.019  0.00  0.00    -0.080 SA
BRANCH  21  22
ATOM     22  C   UNL d   1      52.422  31.942  52.871  0.00  0.00     0.098 C 
BRANCH  22  23
ATOM     23  C   UNL d   1      52.723  31.183  53.024  0.00  0.00     0.288 C 
ATOM     24  N   UNL d   1      52.374  30.719  53.602  0.00  0.00    -0.181 NA
ATOM     25  O   UNL d   1      53.365  30.904  52.596  0.00  0.00    -0.265 OA
BRANCH  24  26
ATOM     26  C   UNL d   1      52.668  29.960  53.763  0.00  0.00     0.219 A 
ATOM     27  S   UNL d   1      53.081  29.727  54.430  0.00  0.00    -0.026 SA
ATOM     28  C   UNL d   1      53.261  28.925  54.350  0.00  0.00     0.135 A 
ATOM     29  C   UNL d   1      53.674  28.465  54.897  0.00  0.00     0.030 C 
ATOM     30  N   UNL d   1      52.965  28.657  53.641  0.00  0.00    -0.139 NA
ATOM     31  N   UNL d   1      52.595  29.293  53.270  0.00  0.00    -0.121 NA
ENDBRANCH  24  26
ENDBRANCH  22  23
ENDBRANCH  21  22
ENDBRANCH   2  21
TORSDOF 8
ENDMDL
MODEL 3
REMARK VINA RESULT:      -6.3      2.571      4.244
REMARK  8 active torsions:
REMARK  status: ('A' for Active; 'I' for Inactive)
REMARK    1  A    between atoms: N_10  and  C_1 
REMARK    2  A    between atoms: C_20  and  N_2 
REMARK    3  A    between atoms: C_4  and  S_13 
REMARK       I    between atoms: C_14  and  N_10 
REMARK       I    between atoms: C_12  and  N_18 
REMARK    4  A    between atoms: C_16  and  C_12 
REMARK    5  A    between atoms: S_13  and  C_19 
REMARK    6  A    between atoms: C_19  and  C_14 
REMARK    7  A    between atoms: N_18  and  C_22 
REMARK    8  A    between atoms: C_22  and  C_20 
ROOT
ATOM      1  N   UNL d   1      50.007  34.450  52.740  0.00  0.00    -0.302 N 
ATOM      2  C   UNL d   1      48.992  35.312  52.840  0.00  0.00     0.049 A 
ATOM      3  C   UNL d   1      49.620  34.986  53.251  0.00  0.00     0.087 A 
ATOM      4  C   UNL d   1      48.980  34.988  52.077  0.00  0.00     0.024 A 
ATOM      5  C   UNL d   1      49.607  34.457  52.018  0.00  0.00     0.065 A 
ATOM      6  C   UNL d   1      48.479  35.114  51.440  0.00  0.00     0.002 A 
ATOM      7  C   UNL d   1      49.729  34.053  51.318  0.00  0.00     0.018 A 
ATOM      8  C   UNL d   1      48.605  34.705  50.737  0.00  0.00     0.000 A 
ATOM      9  C   UNL d   1      49.230  34.173  50.672  0.00  0.00     0.002 A 
ENDROOT
BRANCH   1  10
ATOM     10  C   UNL d   1      50.668  33.995  52.918  0.00  0.00     0.101 C 
BRANCH  10  11
ATOM     11  C   UNL d   1      51.389  34.359  53.071  0.00  0.00     0.121 C 
BRANCH  11  12
ATOM     12  N   UNL d   1      51.983  33.942  53.473  0.00  0.00    -0.205 NA
ATOM     13  C   UNL d   1      52.734  34.279  53.563  0.00  0.00     0.279 C 
ATOM     14  O   UNL d   1      52.889  35.031  53.251  0.00  0.00    -0.265 OA
BRANCH  13  15
ATOM     15  C   UNL d   1      53.320  33.865  53.961  0.00  0.00     0.058 A 
ATOM     16  C   UNL d   1      53.965  33.584  53.564  0.00  0.00     0.005 A 
ATOM     17  C   UNL d   1      54.562  33.167  53.948  0.00  0.00     0.000 A 
ATOM     18  C   UNL d   1      54.504  33.030  54.761  0.00  0.00     0.000 A 
ATOM     19  C   UNL d   1      53.845  33.315  55.177  0.00  0.00     0.000 A 
ATOM     20  C   UNL d   1      53.254  33.732  54.777  0.00  0.00     0.005 A 
ENDBRANCH  13  15
ENDBRANCH  11  12
ENDBRANCH  10  11
ENDBRANCH   1  10
BRANCH   2  21
ATOM     21  S   UNL d   1      48.459  35.870  53.132  0.00  0.00    -0.080 SA
BRANCH  21  22
ATOM     22  C   UNL d   1      48.048  35.714  53.829  0.00  0.00     0.098 C 
BRANCH  22  23
ATOM     23  C   UNL d   1      47.305  36.061  53.961  0.00  0.00     0.288 C 
ATOM     24  N   UNL d   1      46.814  35.757  54.541  0.00  0.00    -0.181 NA
ATOM     25  O   UNL d   1      47.070  36.705  53.510  0.00  0.00    -0.265 OA
BRANCH  24  26
ATOM     26  C   UNL d   1      46.070  36.097  54.680  0.00  0.00     0.219 A 
ATOM     27  S   UNL d   1      45.689  36.158  55.402  0.00  0.00    -0.026 SA
ATOM     28  C   UNL d   1      44.965  36.535  55.276  0.00  0.00     0.135 A 
ATOM     29  C   UNL d   1      44.403  36.709  55.855  0.00  0.00     0.030 C 
ATOM     30  N   UNL d   1      44.892  36.709  54.484  0.00  0.00    -0.139 NA
ATOM     31  N   UNL d   1      45.574  36.441  54.108  0.00  0.00    -0.121 NA
ENDBRANCH  24  26
ENDBRANCH  22  23
ENDBRANCH  21  22
ENDBRANCH   2  21
TORSDOF 8
ENDMDL
MODEL 4
REMARK VINA RESULT:      -5.5     11.684     13.044
REMARK  8 active torsions:
REMARK  status: ('A' for Active; 'I' for Inactive)
REMARK    1  A    between atoms: N_10  and  C_1 
REMARK    2  A    between atoms: C_20  and  N_2 
REMARK    3  A    between atoms: C_4  and  S_13 
REMARK       I    between atoms: C_14  and  N_10 
REMARK       I    between atoms: C_12  and  N_18 
REMARK    4  A    between atoms: C_16  and  C_12 
REMARK    5  A    between atoms: S_13  and  C_19 
REMARK    6  A    between atoms: C_19  and  C_14 
REMARK    7  A    between atoms: N_18  and  C_22 
REMARK    8  A    between atoms: C_22  and  C_20 
ROOT
ATOM      1  N   UNL d   1      44.386  29.342  61.046  0.00  0.00    -0.302 N 
ATOM      2  C   UNL d   1      44.377  29.333  62.382  0.00  0.00     0.049 A 
ATOM      3  C   UNL d   1      44.325  28.853  61.721  0.00  0.00     0.087 A 
ATOM      4  C   UNL d   1      44.470  30.118  62.130  0.00  0.00     0.024 A 
ATOM      5  C   UNL d   1      44.475  30.120  61.306  0.00  0.00     0.065 A 
ATOM      6  C   UNL d   1      44.549  30.818  62.549  0.00  0.00     0.002 A 
ATOM      7  C   UNL d   1      44.560  30.828  60.905  0.00  0.00     0.018 A 
ATOM      8  C   UNL d   1      44.634  31.528  62.142  0.00  0.00     0.000 A 
ATOM      9  C   UNL d   1      44.640  31.537  61.319  0.00  0.00     0.002 A 
ENDROOT
BRANCH   1  10
ATOM     10  C   UNL d   1      44.362  29.098  60.261  0.00  0.00     0.101 C 
BRANCH  10  11
ATOM     11  C   UNL d   1      44.566  28.326  60.064  0.00  0.00     0.121 C 
BRANCH  11  12
ATOM     12  N   UNL d   1      44.663  28.117  59.267  0.00  0.00    -0.205 NA
ATOM     13  C   UNL d   1      44.924  27.357  59.070  0.00  0.00     0.279 C 
ATOM     14  O   UNL d   1      45.086  26.807  59.669  0.00  0.00    -0.265 OA
BRANCH  13  15
ATOM     15  C   UNL d   1      45.019  27.152  58.281  0.00  0.00     0.058 A 
ATOM     16  C   UNL d   1      44.462  26.707  57.902  0.00  0.00     0.005 A 
ATOM     17  C   UNL d   1      44.543  26.492  57.111  0.00  0.00     0.000 A 
ATOM     18  C   UNL d   1      45.210  26.738  56.691  0.00  0.00     0.000 A 
ATOM     19  C   UNL d   1      45.788  27.196  57.071  0.00  0.00     0.000 A 
ATOM     20  C   UNL d   1      45.692  27.402  57.866  0.00  0.00     0.005 A 
ENDBRANCH  13  15
ENDBRANCH  11  12
ENDBRANCH  10  11
ENDBRANCH   1  10
BRANCH   2  21
ATOM     21  S   UNL d   1      44.344  29.082  63.167  0.00  0.00    -0.080 SA
BRANCH  21  22
ATOM     22  C   UNL d   1      44.598  28.325  63.363  0.00  0.00     0.098 C 
BRANCH  22  23
ATOM     23  C   UNL d   1      44.562  28.064  64.151  0.00  0.00     0.288 C 
ATOM     24  N   UNL d   1      44.762  27.290  64.330  0.00  0.00    -0.181 NA
ATOM     25  O   UNL d   1      44.327  28.583  64.742  0.00  0.00    -0.265 OA
BRANCH  24  26
ATOM     26  C   UNL d   1      44.729  27.021  65.115  0.00  0.00     0.219 A 
ATOM     27  S   UNL d   1      44.484  26.281  65.367  0.00  0.00    -0.026 SA
ATOM     28  C   UNL d   1      44.544  26.262  66.190  0.00  0.00     0.135 A 
ATOM     29  C   UNL d   1      44.352  25.620  66.673  0.00  0.00     0.030 C 
ATOM     30  N   UNL d   1      44.823  26.979  66.453  0.00  0.00    -0.139 NA
ATOM     31  N   UNL d   1      44.941  27.456  65.791  0.00  0.00    -0.121 NA
ENDBRANCH  24  26
ENDBRANCH  22  23
ENDBRANCH  21  22
ENDBRANCH   2  21
TORSDOF 8
ENDMDL
