MODEL 1
REMARK VINA RESULT:      -2.3      0.000      0.000
REMARK  3 active torsions:
REMARK  status: ('A' for Active; 'I' for Inactive)
REMARK    1  A    between atoms: S_2  and  N_1 
REMARK    2  A    between atoms: C_6  and  S_2 
REMARK    3  A    between atoms: O_17  and  C_11 
ROOT
ATOM      1  S   UNL d   1     -41.815-122.384 -52.886  0.00  0.00     0.273 S 
ATOM      2  O   UNL d   1     -42.503-122.832 -52.810  0.00  0.00    -0.200 OA
ATOM      3  O   UNL d   1     -41.123-121.934 -52.962  0.00  0.00    -0.200 OA
ENDROOT
BRANCH   1   4
ATOM      4  N   UNL d   1     -41.811-122.523 -53.699  0.00  0.00    -0.214 N 
ATOM      5  C   UNL d   1     -41.490-123.186 -54.078  0.00  0.00     0.157 A 
ATOM      6  N   UNL d   1     -41.607-123.098 -54.897  0.00  0.00    -0.226 NA
ATOM      7  C   UNL d   1     -41.123-123.817 -53.710  0.00  0.00     0.041 C 
ATOM      8  C   UNL d   1     -42.001-122.376 -55.017  0.00  0.00     0.100 A 
ATOM      9  C   UNL d   1     -42.126-122.024 -54.285  0.00  0.00     0.094 A 
ATOM     10  C   UNL d   1     -42.258-122.004 -55.706  0.00  0.00     0.021 A 
ATOM     11  C   UNL d   1     -42.513-121.290 -54.239  0.00  0.00     0.020 A 
ATOM     12  C   UNL d   1     -42.769-120.918 -54.925  0.00  0.00     0.002 A 
ATOM     13  C   UNL d   1     -42.645-121.270 -55.659  0.00  0.00     0.002 A 
ENDBRANCH   1   4
BRANCH   1  14
ATOM     14  C   UNL d   1     -41.816-122.243 -52.073  0.00  0.00     0.106 A 
ATOM     15  C   UNL d   1     -42.375-122.620 -51.587  0.00  0.00     0.039 A 
ATOM     16  C   UNL d   1     -42.377-122.480 -50.774  0.00  0.00     0.122 A 
ATOM     17  C   UNL d   1     -41.821-121.962 -50.440  0.00  0.00     0.162 A 
ATOM     18  C   UNL d   1     -41.266-121.587 -50.922  0.00  0.00     0.032 A 
ATOM     19  F   UNL d   1     -41.827-121.826 -49.635  0.00  0.00    -0.202 F 
ATOM     20  C   UNL d   1     -41.264-121.727 -51.735  0.00  0.00     0.015 A 
BRANCH  16  21
ATOM     21  O   UNL d   1     -42.928-122.853 -50.298  0.00  0.00    -0.326 OA
ATOM     22  C   UNL d   1     -42.785-123.605 -50.025  0.00  0.00     0.181 C 
ENDBRANCH  16  21
ENDBRANCH   1  14
TORSDOF 3
ENDMDL
MODEL 2
REMARK VINA RESULT:       0.0      1.952      3.858
REMARK  3 active torsions:
REMARK  status: ('A' for Active; 'I' for Inactive)
REMARK    1  A    between atoms: S_2  and  N_1 
REMARK    2  A    between atoms: C_6  and  S_2 
REMARK    3  A    between atoms: O_17  and  C_11 
ROOT
ATOM      1  S   UNL d   1     -41.771-122.226 -53.395  0.00  0.00     0.273 S 
ATOM      2  O   UNL d   1     -42.411-121.729 -53.246  0.00  0.00    -0.200 OA
ATOM      3  O   UNL d   1     -41.127-122.726 -53.544  0.00  0.00    -0.200 OA
ENDROOT
BRANCH   1   4
ATOM      4  N   UNL d   1     -41.697-122.378 -52.587  0.00  0.00    -0.214 N 
ATOM      5  C   UNL d   1     -41.812-123.110 -52.216  0.00  0.00     0.157 A 
ATOM      6  N   UNL d   1     -41.682-123.011 -51.401  0.00  0.00    -0.226 NA
ATOM      7  C   UNL d   1     -42.019-123.808 -52.588  0.00  0.00     0.041 C 
ATOM      8  C   UNL d   1     -41.485-122.213 -51.275  0.00  0.00     0.100 A 
ATOM      9  C   UNL d   1     -41.495-121.825 -51.999  0.00  0.00     0.094 A 
ATOM     10  C   UNL d   1     -41.300-121.800 -50.585  0.00  0.00     0.021 A 
ATOM     11  C   UNL d   1     -41.317-121.014 -52.038  0.00  0.00     0.020 A 
ATOM     12  C   UNL d   1     -41.133-120.603 -51.351  0.00  0.00     0.002 A 
ATOM     13  C   UNL d   1     -41.123-120.990 -50.624  0.00  0.00     0.002 A 
ENDBRANCH   1   4
BRANCH   1  14
ATOM     14  C   UNL d   1     -41.841-122.077 -54.202  0.00  0.00     0.106 A 
ATOM     15  C   UNL d   1     -42.592-122.065 -54.559  0.00  0.00     0.039 A 
ATOM     16  C   UNL d   1     -42.664-121.915 -55.367  0.00  0.00     0.122 A 
ATOM     17  C   UNL d   1     -41.986-121.777 -55.826  0.00  0.00     0.162 A 
ATOM     18  C   UNL d   1     -41.240-121.789 -55.473  0.00  0.00     0.032 A 
ATOM     19  F   UNL d   1     -42.062-121.630 -56.625  0.00  0.00    -0.202 F 
ATOM     20  C   UNL d   1     -41.169-121.938 -54.665  0.00  0.00     0.015 A 
BRANCH  16  21
ATOM     21  O   UNL d   1     -43.404-121.904 -55.715  0.00  0.00    -0.326 OA
ATOM     22  C   UNL d   1     -43.807-122.600 -55.833  0.00  0.00     0.181 C 
ENDBRANCH  16  21
ENDBRANCH   1  14
TORSDOF 3
ENDMDL
