MODEL 1
REMARK VINA RESULT:      -3.8      0.000      0.000
REMARK  6 active torsions:
REMARK  status: ('A' for Active; 'I' for Inactive)
REMARK    1  A    between atoms: C_2  and  N_1 
REMARK    2  A    between atoms: C_4  and  C_2 
REMARK    3  A    between atoms: C_6  and  C_2 
REMARK    4  A    between atoms: C_8  and  N_3 
REMARK       I    between atoms: C_5  and  N_7 
REMARK    5  A    between atoms: O_20  and  C_5 
REMARK    6  A    between atoms: N_7  and  C_6 
ROOT
ATOM      1  N   UNL d   1      58.056  -0.588  30.547  0.00  0.00    -0.298 N 
ATOM      2  N   UNL d   1      57.217  -0.168  31.906  0.00  0.00    -0.301 N 
ATOM      3  C   UNL d   1      57.414  -1.036  30.782  0.00  0.00     0.100 A 
ATOM      4  C   UNL d   1      58.285   0.072  30.985  0.00  0.00     0.100 A 
ATOM      5  C   UNL d   1      57.871   0.280  31.657  0.00  0.00     0.100 A 
ATOM      6  C   UNL d   1      56.988  -0.828  31.467  0.00  0.00     0.100 A 
ENDROOT
BRANCH   1   7
ATOM      7  C   UNL d   1      58.482  -0.796  29.862  0.00  0.00     0.107 C 
BRANCH   7   8
ATOM      8  C   UNL d   1      58.947  -0.212  29.479  0.00  0.00     0.118 A 
ATOM      9  O   UNL d   1      58.707   0.112  28.759  0.00  0.00    -0.304 OA
ATOM     10  C   UNL d   1      59.281   0.666  28.529  0.00  0.00     0.123 A 
ATOM     11  C   UNL d   1      59.863   0.682  29.100  0.00  0.00     0.029 A 
ATOM     12  C   UNL d   1      59.662   0.139  29.692  0.00  0.00     0.028 A 
ENDBRANCH   7   8
BRANCH   7  13
ATOM     13  C   UNL d   1      58.455  -1.559  29.555  0.00  0.00     0.124 C 
BRANCH  13  14
ATOM     14  N   UNL d   1      59.141  -2.040  29.584  0.00  0.00    -0.183 NA
ATOM     15  C   UNL d   1      59.164  -2.748  29.184  0.00  0.00     0.388 C 
ATOM     16  O   UNL d   1      58.507  -2.996  28.745  0.00  0.00    -0.236 OA
BRANCH  15  17
ATOM     17  O   UNL d   1      59.842  -3.216  29.217  0.00  0.00    -0.281 OA
ATOM     18  C   UNL d   1      59.988  -3.775  28.628  0.00  0.00     0.186 C 
ENDBRANCH  15  17
ENDBRANCH  13  14
ENDBRANCH   7  13
ENDBRANCH   1   7
BRANCH   2  19
ATOM     19  C   UNL d   1      56.810   0.041  32.571  0.00  0.00     0.064 A 
ATOM     20  C   UNL d   1      56.001  -0.102  32.619  0.00  0.00     0.020 A 
ATOM     21  C   UNL d   1      55.578   0.108  33.294  0.00  0.00     0.031 A 
ATOM     22  C   UNL d   1      55.969   0.465  33.927  0.00  0.00     0.140 A 
ATOM     23  C   UNL d   1      56.781   0.610  33.882  0.00  0.00     0.031 A 
ATOM     24  F   UNL d   1      55.545   0.682  34.617  0.00  0.00    -0.204 F 
ATOM     25  C   UNL d   1      57.201   0.398  33.204  0.00  0.00     0.020 A 
ENDBRANCH   2  19
TORSDOF 6
ENDMDL
MODEL 2
REMARK VINA RESULT:      -2.2      1.044      2.280
REMARK  6 active torsions:
REMARK  status: ('A' for Active; 'I' for Inactive)
REMARK    1  A    between atoms: C_2  and  N_1 
REMARK    2  A    between atoms: C_4  and  C_2 
REMARK    3  A    between atoms: C_6  and  C_2 
REMARK    4  A    between atoms: C_8  and  N_3 
REMARK       I    between atoms: C_5  and  N_7 
REMARK    5  A    between atoms: O_20  and  C_5 
REMARK    6  A    between atoms: N_7  and  C_6 
ROOT
ATOM      1  N   UNL d   1      58.062  -0.707  30.225  0.00  0.00    -0.298 N 
ATOM      2  N   UNL d   1      57.008  -0.422  31.464  0.00  0.00    -0.301 N 
ATOM      3  C   UNL d   1      57.720   0.032  30.306  0.00  0.00     0.100 A 
ATOM      4  C   UNL d   1      57.882  -1.309  30.760  0.00  0.00     0.100 A 
ATOM      5  C   UNL d   1      57.361  -1.169  31.371  0.00  0.00     0.100 A 
ATOM      6  C   UNL d   1      57.188   0.180  30.929  0.00  0.00     0.100 A 
ENDROOT
BRANCH   1   7
ATOM      7  C   UNL d   1      58.594  -0.855  29.602  0.00  0.00     0.107 C 
BRANCH   7   8
ATOM      8  C   UNL d   1      58.630  -1.625  29.271  0.00  0.00     0.118 A 
ATOM      9  O   UNL d   1      58.125  -1.842  28.655  0.00  0.00    -0.304 OA
ATOM     10  C   UNL d   1      58.298  -2.630  28.455  0.00  0.00     0.123 A 
ATOM     11  C   UNL d   1      58.898  -2.890  28.941  0.00  0.00     0.029 A 
ATOM     12  C   UNL d   1      59.109  -2.272  29.450  0.00  0.00     0.028 A 
ENDBRANCH   7   8
BRANCH   7  13
ATOM     13  C   UNL d   1      59.083  -0.263  29.306  0.00  0.00     0.124 C 
BRANCH  13  14
ATOM     14  N   UNL d   1      59.818  -0.109  29.680  0.00  0.00    -0.183 NA
ATOM     15  C   UNL d   1      60.377   0.356  29.313  0.00  0.00     0.388 C 
ATOM     16  O   UNL d   1      60.220   0.679  28.567  0.00  0.00    -0.236 OA
BRANCH  15  17
ATOM     17  O   UNL d   1      61.096   0.503  29.687  0.00  0.00    -0.281 OA
ATOM     18  C   UNL d   1      61.133   0.541  30.511  0.00  0.00     0.186 C 
ENDBRANCH  15  17
ENDBRANCH  13  14
ENDBRANCH   7  13
ENDBRANCH   1   7
BRANCH   2  19
ATOM     19  C   UNL d   1      56.493  -0.288  32.071  0.00  0.00     0.064 A 
ATOM     20  C   UNL d   1      56.340   0.482  32.317  0.00  0.00     0.020 A 
ATOM     21  C   UNL d   1      55.816   0.628  32.936  0.00  0.00     0.031 A 
ATOM     22  C   UNL d   1      55.441  -0.003  33.312  0.00  0.00     0.140 A 
ATOM     23  C   UNL d   1      55.592  -0.778  33.068  0.00  0.00     0.031 A 
ATOM     24  F   UNL d   1      54.907   0.138  33.942  0.00  0.00    -0.204 F 
ATOM     25  C   UNL d   1      56.118  -0.920  32.447  0.00  0.00     0.020 A 
ENDBRANCH   2  19
TORSDOF 6
ENDMDL
