MODEL 1
REMARK VINA RESULT:      81.8      0.000      0.000
REMARK  7 active torsions:
REMARK  status: ('A' for Active; 'I' for Inactive)
REMARK    1  A    between atoms: C_17  and  N_1 
REMARK       I    between atoms: C_4  and  N_7 
REMARK    2  A    between atoms: C_8  and  C_4 
REMARK    3  A    between atoms: N_7  and  C_26 
REMARK    4  A    between atoms: C_9  and  N_7 
REMARK    5  A    between atoms: C_27  and  C_17 
REMARK    6  A    between atoms: C_26  and  C_28 
REMARK    7  A    between atoms: C_28  and  C_27 
ROOT
ATOM      1  C   UNL d   1      59.255  49.667  51.861  0.00  0.00     0.287 C 
ATOM      2  N   UNL d   1      59.201  49.678  51.035  0.00  0.00    -0.272 N 
ATOM      3  O   UNL d   1      59.982  49.663  52.219  0.00  0.00    -0.264 OA
ENDROOT
BRANCH   2   4
ATOM      4  C   UNL d   1      59.876  49.684  50.590  0.00  0.00     0.083 C 
BRANCH   4   5
ATOM      5  C   UNL d   1      60.426  49.066  50.662  0.00  0.00     0.021 C 
BRANCH   5   6
ATOM      6  C   UNL d   1      61.169  49.216  50.960  0.00  0.00     0.021 C 
BRANCH   6   7
ATOM      7  C   UNL d   1      61.612  48.595  51.272  0.00  0.00     0.086 C 
BRANCH   7   8
ATOM      8  N   UNL d   1      61.579  47.841  50.905  0.00  0.00    -0.240 N 
ATOM      9  C   UNL d   1      61.854  47.670  50.184  0.00  0.00     0.267 A 
ATOM     10  C   UNL d   1      61.714  46.876  50.034  0.00  0.00     0.061 A 
ATOM     11  O   UNL d   1      62.238  48.213  49.638  0.00  0.00    -0.267 OA
ATOM     12  C   UNL d   1      61.875  46.403  49.393  0.00  0.00     0.005 A 
ATOM     13  C   UNL d   1      61.331  46.563  50.711  0.00  0.00     0.061 A 
ATOM     14  C   UNL d   1      61.657  45.602  49.413  0.00  0.00     0.000 A 
ATOM     15  C   UNL d   1      61.275  45.289  50.090  0.00  0.00     0.000 A 
ATOM     16  C   UNL d   1      61.119  45.783  50.732  0.00  0.00     0.005 A 
ATOM     17  C   UNL d   1      61.253  47.177  51.248  0.00  0.00     0.267 A 
ATOM     18  O   UNL d   1      60.892  47.110  52.021  0.00  0.00    -0.267 OA
ENDBRANCH   7   8
ENDBRANCH   6   7
ENDBRANCH   5   6
ENDBRANCH   4   5
ENDBRANCH   2   4
BRANCH   2  19
ATOM     19  C   UNL d   1      58.463  49.683  50.660  0.00  0.00     0.067 A 
ATOM     20  C   UNL d   1      58.408  49.670  49.835  0.00  0.00     0.018 A 
ATOM     21  C   UNL d   1      57.671  49.675  49.460  0.00  0.00     0.013 A 
ATOM     22  C   UNL d   1      56.988  49.692  49.911  0.00  0.00     0.058 A 
ATOM     23  C   UNL d   1      57.046  49.705  50.734  0.00  0.00     0.013 A 
ATOM     24 CL   UNL d   1      56.254  49.697  49.534  0.00  0.00    -0.082 Cl
ATOM     25  C   UNL d   1      57.780  49.700  51.111  0.00  0.00     0.018 A 
ENDBRANCH   2  19
BRANCH   1  26
ATOM     26  C   UNL d   1      58.572  49.661  52.312  0.00  0.00     0.156 A 
ATOM     27  O   UNL d   1      57.767  49.637  52.125  0.00  0.00    -0.300 OA
ATOM     28  C   UNL d   1      57.329  49.643  52.821  0.00  0.00     0.123 A 
ATOM     29  C   UNL d   1      57.843  49.671  53.420  0.00  0.00     0.029 A 
ATOM     30  C   UNL d   1      58.629  49.683  53.135  0.00  0.00     0.032 A 
ENDBRANCH   1  26
TORSDOF 7
ENDMDL
