MODEL 1
REMARK VINA RESULT:      85.1      0.000      0.000
REMARK  5 active torsions:
REMARK  status: ('A' for Active; 'I' for Inactive)
REMARK    1  A    between atoms: N_15  and  C_6 
REMARK    2  A    between atoms: N_14  and  C_18 
REMARK    3  A    between atoms: C_24  and  N_15 
REMARK    4  A    between atoms: C_18  and  C_19 
REMARK    5  A    between atoms: C_19  and  C_24 
ROOT
ATOM      1  N   UNL d   1      60.637  47.561  50.899  0.00  0.00    -0.183 N 
ATOM      2  C   UNL d   1      61.162  47.151  50.412  0.00  0.00     0.169 A 
ATOM      3  C   UNL d   1      61.234  46.343  50.467  0.00  0.00     0.073 A 
ATOM      4  C   UNL d   1      60.778  45.947  51.012  0.00  0.00     0.185 A 
ATOM      5  N   UNL d   1      60.253  46.357  51.499  0.00  0.00    -0.142 NA
ATOM      6  C   UNL d   1      60.580  48.369  50.828  0.00  0.00     0.218 A 
ATOM      7  N   UNL d   1      61.615  47.559  49.868  0.00  0.00    -0.226 NA
ATOM      8  C   UNL d   1      61.753  45.937  49.986  0.00  0.00     0.007 A 
ATOM      9  N   UNL d   1      60.839  45.128  51.081  0.00  0.00    -0.225 NA
ATOM     10  C   UNL d   1      61.026  48.777  50.292  0.00  0.00     0.071 A 
ATOM     11  C   UNL d   1      61.824  45.128  50.042  0.00  0.00     0.019 A 
ATOM     12  C   UNL d   1      61.550  48.366  49.805  0.00  0.00     0.087 A 
ATOM     13  C   UNL d   1      61.363  44.718  50.594  0.00  0.00     0.083 A 
ATOM     14  C   UNL d   1      62.207  46.347  49.441  0.00  0.00     0.000 C 
ATOM     15  C   UNL d   1      62.020  48.793  49.241  0.00  0.00     0.021 C 
ATOM     16  C   UNL d   1      61.429  43.913  50.655  0.00  0.00     0.021 C 
ENDROOT
BRANCH   6  17
ATOM     17  N   UNL d   1      60.035  48.785  51.335  0.00  0.00    -0.380 NA
BRANCH  17  18
ATOM     18  C   UNL d   1      59.485  49.265  51.752  0.00  0.00     0.164 C 
BRANCH  18  19
ATOM     19  C   UNL d   1      58.911  49.708  51.326  0.00  0.00     0.054 C 
BRANCH  19  20
ATOM     20  C   UNL d   1      58.084  49.654  51.550  0.00  0.00     0.083 C 
BRANCH  20  21
ATOM     21  N   UNL d   1      57.479  49.672  50.958  0.00  0.00    -0.299 N 
ATOM     22  C   UNL d   1      56.658  49.684  51.195  0.00  0.00     0.107 A 
ATOM     23  C   UNL d   1      56.044  49.702  50.607  0.00  0.00     0.142 A 
ATOM     24  O   UNL d   1      56.252  49.707  49.781  0.00  0.00    -0.300 OA
ATOM     25  C   UNL d   1      57.063  49.695  49.549  0.00  0.00     0.142 A 
ATOM     26  C   UNL d   1      57.677  49.677  50.137  0.00  0.00     0.107 A 
ENDBRANCH  20  21
ENDBRANCH  19  20
ENDBRANCH  18  19
ENDBRANCH  17  18
ENDBRANCH   6  17
TORSDOF 5
ENDMDL
