MODEL 1
REMARK VINA RESULT:      -2.9      0.000      0.000
REMARK  2 active torsions:
REMARK  status: ('A' for Active; 'I' for Inactive)
REMARK    1  A    between atoms: C_10  and  N_3 
REMARK    2  A    between atoms: C_15  and  C_10 
ROOT
ATOM      1  C   UNL d   1     -41.596-122.142 -52.480  0.00  0.00     0.166 A 
ATOM      2  C   UNL d   1     -41.426-122.946 -52.397  0.00  0.00     0.117 A 
ATOM      3  N   UNL d   1     -41.620-121.832 -51.723  0.00  0.00    -0.289 N 
ATOM      4  N   UNL d   1     -41.706-121.808 -53.232  0.00  0.00    -0.225 NA
ATOM      5  N   UNL d   1     -41.371-123.397 -53.083  0.00  0.00    -0.241 NA
ATOM      6  C   UNL d   1     -41.350-123.113 -51.609  0.00  0.00     0.037 A 
ATOM      7  C   UNL d   1     -41.471-122.415 -51.187  0.00  0.00     0.067 A 
ATOM      8  C   UNL d   1     -41.646-122.270 -53.895  0.00  0.00     0.101 A 
ATOM      9  C   UNL d   1     -41.476-123.075 -53.811  0.00  0.00     0.099 A 
ATOM     10  C   UNL d   1     -41.184-123.815 -51.208  0.00  0.00     0.003 A 
ATOM     11  C   UNL d   1     -41.425-122.422 -50.366  0.00  0.00     0.018 A 
ATOM     12  C   UNL d   1     -41.416-123.540 -54.472  0.00  0.00     0.021 A 
ATOM     13  C   UNL d   1     -41.751-121.950 -54.620  0.00  0.00     0.021 A 
ATOM     14  C   UNL d   1     -41.139-123.817 -50.384  0.00  0.00     0.000 A 
ATOM     15  C   UNL d   1     -41.260-123.119 -49.962  0.00  0.00     0.002 A 
ATOM     16  C   UNL d   1     -41.687-122.437 -55.298  0.00  0.00     0.002 A 
ATOM     17  C   UNL d   1     -41.522-123.226 -55.236  0.00  0.00     0.002 A 
ENDROOT
BRANCH   3  18
ATOM     18  C   UNL d   1     -41.770-121.055 -51.540  0.00  0.00     0.082 C 
BRANCH  18  19
ATOM     19  C   UNL d   1     -41.123-120.526 -51.491  0.00  0.00     0.019 C 
ATOM     20  C   UNL d   1     -41.251-119.737 -51.425  0.00  0.00     0.002 C 
ENDBRANCH  18  19
ENDBRANCH   3  18
TORSDOF 2
ENDMDL
MODEL 2
REMARK VINA RESULT:      -0.8      0.961      3.311
REMARK  2 active torsions:
REMARK  status: ('A' for Active; 'I' for Inactive)
REMARK    1  A    between atoms: C_10  and  N_3 
REMARK    2  A    between atoms: C_15  and  C_10 
ROOT
ATOM      1  C   UNL d   1     -41.801-122.228 -51.500  0.00  0.00     0.166 A 
ATOM      2  C   UNL d   1     -41.724-123.038 -51.648  0.00  0.00     0.117 A 
ATOM      3  N   UNL d   1     -41.640-121.848 -52.208  0.00  0.00    -0.289 N 
ATOM      4  N   UNL d   1     -42.006-121.953 -50.745  0.00  0.00    -0.225 NA
ATOM      5  N   UNL d   1     -41.858-123.554 -51.021  0.00  0.00    -0.241 NA
ATOM      6  C   UNL d   1     -41.522-123.140 -52.425  0.00  0.00     0.037 A 
ATOM      7  C   UNL d   1     -41.469-122.395 -52.775  0.00  0.00     0.067 A 
ATOM      8  C   UNL d   1     -42.134-122.479 -50.142  0.00  0.00     0.101 A 
ATOM      9  C   UNL d   1     -42.056-123.288 -50.290  0.00  0.00     0.099 A 
ATOM     10  C   UNL d   1     -41.375-123.817 -52.871  0.00  0.00     0.003 A 
ATOM     11  C   UNL d   1     -41.271-122.332 -53.570  0.00  0.00     0.018 A 
ATOM     12  C   UNL d   1     -42.183-123.817 -49.689  0.00  0.00     0.021 A 
ATOM     13  C   UNL d   1     -42.331-122.216 -49.413  0.00  0.00     0.021 A 
ATOM     14  C   UNL d   1     -41.176-123.750 -53.669  0.00  0.00     0.000 A 
ATOM     15  C   UNL d   1     -41.124-123.005 -54.020  0.00  0.00     0.002 A 
ATOM     16  C   UNL d   1     -42.461-122.768 -48.797  0.00  0.00     0.002 A 
ATOM     17  C   UNL d   1     -42.389-123.564 -48.923  0.00  0.00     0.002 A 
ENDROOT
BRANCH   3  18
ATOM     18  C   UNL d   1     -41.651-121.045 -52.321  0.00  0.00     0.082 C 
BRANCH  18  19
ATOM     19  C   UNL d   1     -41.173-120.567 -51.826  0.00  0.00     0.019 C 
ATOM     20  C   UNL d   1     -41.123-119.777 -51.955  0.00  0.00     0.002 C 
ENDBRANCH  18  19
ENDBRANCH   3  18
TORSDOF 2
ENDMDL
MODEL 3
REMARK VINA RESULT:      -0.3      0.593      2.067
REMARK  2 active torsions:
REMARK  status: ('A' for Active; 'I' for Inactive)
REMARK    1  A    between atoms: C_10  and  N_3 
REMARK    2  A    between atoms: C_15  and  C_10 
ROOT
ATOM      1  C   UNL d   1     -41.406-122.733 -52.561  0.00  0.00     0.166 A 
ATOM      2  C   UNL d   1     -41.395-121.951 -52.826  0.00  0.00     0.117 A 
ATOM      3  N   UNL d   1     -41.329-122.701 -51.746  0.00  0.00    -0.289 N 
ATOM      4  N   UNL d   1     -41.485-123.361 -53.097  0.00  0.00    -0.225 NA
ATOM      5  N   UNL d   1     -41.464-121.822 -53.636  0.00  0.00    -0.241 NA
ATOM      6  C   UNL d   1     -41.313-121.462 -52.186  0.00  0.00     0.037 A 
ATOM      7  C   UNL d   1     -41.272-121.932 -51.510  0.00  0.00     0.067 A 
ATOM      8  C   UNL d   1     -41.552-123.212 -53.890  0.00  0.00     0.101 A 
ATOM      9  C   UNL d   1     -41.540-122.429 -54.155  0.00  0.00     0.099 A 
ATOM     10  C   UNL d   1     -41.269-120.641 -52.122  0.00  0.00     0.003 A 
ATOM     11  C   UNL d   1     -41.187-121.578 -50.773  0.00  0.00     0.018 A 
ATOM     12  C   UNL d   1     -41.606-122.277 -54.949  0.00  0.00     0.021 A 
ATOM     13  C   UNL d   1     -41.628-123.816 -54.409  0.00  0.00     0.021 A 
ATOM     14  C   UNL d   1     -41.184-120.290 -51.380  0.00  0.00     0.000 A 
ATOM     15  C   UNL d   1     -41.143-120.760 -50.703  0.00  0.00     0.002 A 
ATOM     16  C   UNL d   1     -41.696-123.651 -55.227  0.00  0.00     0.002 A 
ATOM     17  C   UNL d   1     -41.686-122.892 -55.505  0.00  0.00     0.002 A 
ENDROOT
BRANCH   3  18
ATOM     18  C   UNL d   1     -41.314-123.345 -51.252  0.00  0.00     0.082 C 
BRANCH  18  19
ATOM     19  C   UNL d   1     -41.961-123.465 -50.734  0.00  0.00     0.019 C 
ATOM     20  C   UNL d   1     -41.846-123.808 -50.018  0.00  0.00     0.002 C 
ENDBRANCH  18  19
ENDBRANCH   3  18
TORSDOF 2
ENDMDL
