MODEL 1
REMARK VINA RESULT:     118.6      0.000      0.000
REMARK  5 active torsions:
REMARK  status: ('A' for Active; 'I' for Inactive)
REMARK    1  A    between atoms: C_9  and  C_1 
REMARK    2  A    between atoms: S_2  and  N_8 
REMARK    3  A    between atoms: C_10  and  S_2 
REMARK    4  A    between atoms: C_14  and  C_3 
REMARK    5  A    between atoms: N_8  and  C_9 
ROOT
ATOM      1  C   UNL d   1      61.124  48.084  50.435  0.00  0.00     0.078 A 
ATOM      2  C   UNL d   1      61.225  47.258  50.460  0.00  0.00     0.008 A 
ATOM      3  C   UNL d   1      61.591  48.541  49.938  0.00  0.00     0.281 A 
ATOM      4  C   UNL d   1      61.796  46.909  49.985  0.00  0.00     0.019 A 
ATOM      5  N   UNL d   1      62.169  48.182  49.458  0.00  0.00    -0.208 NA
ATOM      6  C   UNL d   1      62.264  47.366  49.489  0.00  0.00     0.085 A 
ATOM      7  C   UNL d   1      61.893  46.090  50.014  0.00  0.00     0.013 A 
ATOM      8  O   UNL d   1      61.485  49.377  49.915  0.00  0.00    -0.265 OA
ATOM      9  C   UNL d   1      62.837  47.013  49.012  0.00  0.00     0.020 A 
ATOM     10  C   UNL d   1      62.471  45.729  49.534  0.00  0.00     0.058 A 
ATOM     11  C   UNL d   1      62.938  46.186  49.038  0.00  0.00     0.013 A 
ATOM     12 CL   UNL d   1      62.577  44.895  49.557  0.00  0.00    -0.082 Cl
ENDROOT
BRANCH   1  13
ATOM     13  C   UNL d   1      60.546  48.445  50.914  0.00  0.00     0.117 C 
BRANCH  13  14
ATOM     14  N   UNL d   1      60.400  49.258  50.839  0.00  0.00    -0.157 NA
BRANCH  14  15
ATOM     15  S   UNL d   1      59.569  49.348  50.801  0.00  0.00     0.285 S 
ATOM     16  O   UNL d   1      59.582  49.139  49.998  0.00  0.00    -0.198 OA
ATOM     17  O   UNL d   1      59.565  49.558  51.608  0.00  0.00    -0.198 OA
BRANCH  15  18
ATOM     18  C   UNL d   1      58.745  49.439  50.764  0.00  0.00     0.105 A 
ATOM     19  C   UNL d   1      58.296  49.465  51.458  0.00  0.00     0.013 A 
ATOM     20  C   UNL d   1      57.482  49.554  51.432  0.00  0.00     0.001 A 
ATOM     21  C   UNL d   1      57.097  49.619  50.690  0.00  0.00     0.000 A 
ATOM     22  C   UNL d   1      57.546  49.592  49.995  0.00  0.00     0.001 A 
ATOM     23  C   UNL d   1      56.281  49.708  50.653  0.00  0.00     0.000 C 
ATOM     24  C   UNL d   1      58.371  49.502  50.032  0.00  0.00     0.013 A 
ENDBRANCH  15  18
ENDBRANCH  14  15
ENDBRANCH  13  14
ENDBRANCH   1  13
BRANCH   2  25
ATOM     25  C   UNL d   1      60.756  46.800  50.957  0.00  0.00     0.000 A 
ATOM     26  C   UNL d   1      60.120  46.377  50.659  0.00  0.00     0.000 A 
ATOM     27  C   UNL d   1      59.652  45.919  51.156  0.00  0.00     0.000 A 
ATOM     28  C   UNL d   1      59.812  45.877  51.959  0.00  0.00     0.000 A 
ATOM     29  C   UNL d   1      60.459  46.306  52.273  0.00  0.00     0.000 A 
ATOM     30  C   UNL d   1      60.925  46.762  51.773  0.00  0.00     0.000 A 
ENDBRANCH   2  25
TORSDOF 5
ENDMDL
