MODEL 1
REMARK VINA RESULT:     135.1      0.000      0.000
REMARK  4 active torsions:
REMARK  status: ('A' for Active; 'I' for Inactive)
REMARK    1  A    between atoms: N_2  and  S_1 
REMARK    2  A    between atoms: C_4  and  S_1 
REMARK    3  A    between atoms: C_3  and  C_8 
REMARK       I    between atoms: N_5  and  C_3 
REMARK    4  A    between atoms: C_17  and  N_5 
ROOT
ATOM      1  C   UNL d   1     -59.154 -99.660 -44.327  0.00  0.00     0.104 A 
ATOM      2  C   UNL d   1     -59.281 -99.876 -42.705  0.00  0.00     0.058 A 
ATOM      3  C   UNL d   1     -59.898 -99.689 -43.968  0.00  0.00     0.013 A 
ATOM      4  C   UNL d   1     -58.461 -99.742 -43.861  0.00  0.00     0.013 A 
ATOM      5  C   UNL d   1     -59.960 -99.796 -43.159  0.00  0.00     0.005 A 
ATOM      6  C   UNL d   1     -58.530 -99.850 -43.050  0.00  0.00     0.005 A 
ENDROOT
BRANCH   2   7
ATOM      7  C   UNL d   1     -59.332 -99.987 -41.875  0.00  0.00     0.279 C 
ATOM      8  N   UNL d   1     -59.581 -99.376 -41.385  0.00  0.00    -0.208 NA
ATOM      9  O   UNL d   1     -59.124-100.736 -41.570  0.00  0.00    -0.265 OA
BRANCH   8  10
ATOM     10  C   UNL d   1     -59.632 -99.488 -40.559  0.00  0.00     0.085 A 
ATOM     11  C   UNL d   1     -59.815 -98.839 -40.067  0.00  0.00     0.020 A 
ATOM     12  C   UNL d   1     -59.867 -98.939 -39.257  0.00  0.00     0.013 A 
ATOM     13  C   UNL d   1     -59.738 -99.684 -38.925  0.00  0.00     0.058 A 
ATOM     14  C   UNL d   1     -59.555-100.333 -39.417  0.00  0.00     0.013 A 
ATOM     15 CL   UNL d   1     -59.794 -99.780 -38.086  0.00  0.00    -0.082 Cl
ATOM     16  C   UNL d   1     -59.503-100.227 -40.234  0.00  0.00     0.020 A 
ENDBRANCH   8  10
ENDBRANCH   2   7
BRANCH   1  17
ATOM     17  S   UNL d   1     -59.068 -99.551 -45.152  0.00  0.00     0.272 S 
ATOM     18  O   UNL d   1     -58.752-100.320 -45.250  0.00  0.00    -0.200 OA
ATOM     19  O   UNL d   1     -59.390 -98.764 -45.064  0.00  0.00    -0.200 OA
BRANCH  17  20
ATOM     20  N   UNL d   1     -58.995 -99.409 -45.975  0.00  0.00    -0.225 N 
ATOM     21  C   UNL d   1     -59.658 -99.400 -46.459  0.00  0.00     0.118 A 
ATOM     22  C   UNL d   1     -59.576 -99.261 -47.261  0.00  0.00     0.142 A 
ATOM     23  O   UNL d   1     -58.804 -99.126 -47.594  0.00  0.00    -0.300 OA
ATOM     24  C   UNL d   1     -58.138 -99.135 -47.115  0.00  0.00     0.142 A 
ATOM     25  C   UNL d   1     -58.223 -99.275 -46.308  0.00  0.00     0.118 A 
ENDBRANCH  17  20
ENDBRANCH   1  17
TORSDOF 4
ENDMDL
