MODEL 1
REMARK VINA RESULT:      87.0      0.000      0.000
REMARK  4 active torsions:
REMARK  status: ('A' for Active; 'I' for Inactive)
REMARK    1  A    between atoms: C_4  and  C_1 
REMARK    2  A    between atoms: C_13  and  N_3 
REMARK    3  A    between atoms: C_11  and  N_5 
REMARK    4  A    between atoms: C_14  and  C_11 
ROOT
ATOM      1  C   UNL d   1      60.483  48.098  50.811  0.00  0.00     0.057 A 
ATOM      2  N   UNL d   1      59.665  49.085  51.212  0.00  0.00    -0.272 N 
ATOM      3  C   UNL d   1      60.371  49.140  51.648  0.00  0.00     0.265 A 
ATOM      4  C   UNL d   1      59.739  48.447  50.702  0.00  0.00     0.086 A 
ATOM      5  C   UNL d   1      60.871  48.535  51.401  0.00  0.00     0.066 A 
ATOM      6  O   UNL d   1      60.531  49.708  52.227  0.00  0.00    -0.267 OA
ENDROOT
BRANCH   1   7
ATOM      7  C   UNL d   1      60.737  47.447  50.389  0.00  0.00     0.149 A 
ATOM      8  N   UNL d   1      60.329  46.807  50.151  0.00  0.00    -0.227 NA
ATOM      9  C   UNL d   1      60.841  46.303  49.739  0.00  0.00     0.099 A 
ATOM     10  C   UNL d   1      60.718  45.581  49.380  0.00  0.00     0.021 A 
ATOM     11  C   UNL d   1      61.576  46.656  49.732  0.00  0.00     0.083 A 
ATOM     12  C   UNL d   1      61.358  45.209  49.005  0.00  0.00     0.002 A 
ATOM     13  C   UNL d   1      62.093  45.561  48.998  0.00  0.00     0.002 A 
ATOM     14  C   UNL d   1      62.210  46.296  49.365  0.00  0.00     0.019 A 
ATOM     15  N   UNL d   1      61.510  47.373  50.140  0.00  0.00    -0.289 N 
BRANCH  15  16
ATOM     16  C   UNL d   1      62.123  47.925  50.274  0.00  0.00     0.082 C 
ATOM     17  C   UNL d   1      62.564  47.896  50.988  0.00  0.00     0.021 C 
ENDBRANCH  15  16
ENDBRANCH   1   7
BRANCH   2  18
ATOM     18  C   UNL d   1      59.002  49.589  51.282  0.00  0.00     0.083 C 
BRANCH  18  19
ATOM     19  C   UNL d   1      58.424  49.586  50.683  0.00  0.00     0.018 A 
ATOM     20  C   UNL d   1      58.658  49.703  49.896  0.00  0.00     0.002 A 
ATOM     21  C   UNL d   1      58.083  49.699  49.306  0.00  0.00     0.000 A 
ATOM     22  C   UNL d   1      57.292  49.582  49.487  0.00  0.00     0.000 A 
ATOM     23  C   UNL d   1      57.063  49.467  50.271  0.00  0.00     0.000 A 
ATOM     24  C   UNL d   1      57.635  49.469  50.872  0.00  0.00     0.002 A 
ENDBRANCH  18  19
ENDBRANCH   2  18
TORSDOF 4
ENDMDL
