MODEL 1
REMARK VINA RESULT:      -1.0      0.000      0.000
REMARK  7 active torsions:
REMARK  status: ('A' for Active; 'I' for Inactive)
REMARK    1  A    between atoms: N_2  and  S_1 
REMARK    2  A    between atoms: C_6  and  S_1 
REMARK    3  A    between atoms: C_11  and  C_3 
REMARK    4  A    between atoms: C_4  and  C_5 
REMARK       I    between atoms: N_7  and  C_4 
REMARK       I    between atoms: C_5  and  N_10 
REMARK    5  A    between atoms: C_19  and  N_7 
REMARK    6  A    between atoms: N_10  and  C_11 
REMARK    7  A    between atoms: O_23  and  C_18 
ROOT
ATOM      1  N   UNL d   1      31.630  16.190 -24.460  0.00  0.00    -0.209 N 
ATOM      2  C   UNL d   1      32.127  16.834 -24.314  0.00  0.00     0.197 A 
ATOM      3  O   UNL d   1      32.928  16.795 -24.481  0.00  0.00    -0.287 OA
ATOM      4  C   UNL d   1      31.950  15.493 -24.780  0.00  0.00     0.096 A 
ATOM      5  C   UNL d   1      32.752  15.453 -24.948  0.00  0.00     0.047 A 
ATOM      6  C   UNL d   1      33.240  16.098 -24.800  0.00  0.00     0.126 A 
ENDROOT
BRANCH   2   7
ATOM      7  C   UNL d   1      31.808  17.534 -23.993  0.00  0.00     0.146 C 
BRANCH   7   8
ATOM      8  N   UNL d   1      32.222  17.948 -23.413  0.00  0.00    -0.199 NA
ATOM      9  C   UNL d   1      32.023  18.723 -23.243  0.00  0.00     0.337 C 
ATOM     10  O   UNL d   1      31.405  19.096 -23.649  0.00  0.00    -0.260 OA
BRANCH   9  11
ATOM     11  C   UNL d   1      32.438  19.137 -22.663  0.00  0.00     0.337 C 
ATOM     12  N   UNL d   1      32.159  19.863 -22.395  0.00  0.00    -0.204 NA
ATOM     13  O   UNL d   1      33.136  18.823 -22.350  0.00  0.00    -0.260 OA
BRANCH  12  14
ATOM     14  C   UNL d   1      32.576  20.279 -21.812  0.00  0.00     0.085 A 
ATOM     15  C   UNL d   1      32.762  21.042 -22.037  0.00  0.00     0.019 A 
ATOM     16  C   UNL d   1      33.172  21.384 -21.406  0.00  0.00     0.002 A 
ATOM     17  C   UNL d   1      33.235  20.833 -20.802  0.00  0.00     0.002 A 
ATOM     18  C   UNL d   1      32.857  20.133 -21.059  0.00  0.00     0.019 A 
ENDBRANCH  12  14
ENDBRANCH   9  11
ENDBRANCH   7   8
ENDBRANCH   2   7
BRANCH   1  19
ATOM     19  S   UNL d   1      30.826  16.241 -24.287  0.00  0.00     0.273 S 
ATOM     20  O   UNL d   1      30.973  15.923 -23.535  0.00  0.00    -0.200 OA
ATOM     21  O   UNL d   1      30.681  16.558 -25.037  0.00  0.00    -0.200 OA
BRANCH  19  22
ATOM     22  C   UNL d   1      30.023  16.289 -24.107  0.00  0.00     0.104 A 
ATOM     23  C   UNL d   1      29.739  15.941 -23.417  0.00  0.00     0.015 A 
ATOM     24  C   UNL d   1      28.933  15.988 -23.235  0.00  0.00     0.025 A 
ATOM     25  C   UNL d   1      28.419  16.380 -23.737  0.00  0.00     0.094 A 
ATOM     26  C   UNL d   1      28.695  16.734 -24.435  0.00  0.00     0.025 A 
ATOM     27  C   UNL d   1      29.502  16.688 -24.620  0.00  0.00     0.015 A 
BRANCH  25  28
ATOM     28  O   UNL d   1      27.611  16.427 -23.553  0.00  0.00    -0.328 OA
ATOM     29  C   UNL d   1      27.201  15.751 -23.316  0.00  0.00     0.181 C 
ENDBRANCH  25  28
ENDBRANCH  19  22
ENDBRANCH   1  19
TORSDOF 7
ENDMDL
