MODEL 1
REMARK VINA RESULT:      93.9      0.000      0.000
REMARK  8 active torsions:
REMARK  status: ('A' for Active; 'I' for Inactive)
REMARK    1  A    between atoms: N_10  and  C_4 
REMARK    2  A    between atoms: C_17  and  N_5 
REMARK    3  A    between atoms: C_16  and  N_10 
REMARK    4  A    between atoms: C_11  and  S_19 
REMARK    5  A    between atoms: C_20  and  C_16 
REMARK    6  A    between atoms: C_21  and  C_17 
REMARK    7  A    between atoms: S_19  and  C_26 
REMARK    8  A    between atoms: C_26  and  C_21 
ROOT
ATOM      1  C   UNL d   1      61.070  48.108  51.624  0.00  0.00     0.191 A 
ATOM      2  C   UNL d   1      60.665  48.514  51.030  0.00  0.00     0.174 A 
ATOM      3  N   UNL d   1      61.212  47.334  51.362  0.00  0.00    -0.042 NA
ATOM      4  C   UNL d   1      60.882  47.282  50.596  0.00  0.00     0.722 A 
ATOM      5  N   UNL d   1      60.526  47.970  50.319  0.00  0.00    -0.132 N 
ATOM      6  N   UNL d   1      61.261  48.490  52.328  0.00  0.00    -0.239 N 
ATOM      7  C   UNL d   1      61.046  49.301  52.456  0.00  0.00     0.358 A 
ATOM      8  N   UNL d   1      60.641  49.707  51.862  0.00  0.00    -0.152 NA
ATOM      9  C   UNL d   1      60.451  49.302  51.141  0.00  0.00     0.303 A 
ATOM     10  O   UNL d   1      61.236  49.700  53.171  0.00  0.00    -0.244 OA
ATOM     11  O   UNL d   1      60.046  49.707  50.547  0.00  0.00    -0.263 OA
ATOM     12  C   UNL d   1      61.665  48.084  52.921  0.00  0.00     0.105 C 
ENDROOT
BRANCH   5  13
ATOM     13  C   UNL d   1      60.124  48.383  49.739  0.00  0.00     0.099 C 
BRANCH  13  14
ATOM     14  C   UNL d   1      59.391  48.708  49.918  0.00  0.00     0.027 C 
BRANCH  14  15
ATOM     15  C   UNL d   1      58.848  48.834  49.322  0.00  0.00     0.040 C 
BRANCH  15  16
ATOM     16  S   UNL d   1      58.420  49.543  49.303  0.00  0.00    -0.048 SA
BRANCH  16  17
ATOM     17  C   UNL d   1      57.683  49.584  49.672  0.00  0.00     0.194 A 
ATOM     18  N   UNL d   1      57.635  49.662  50.490  0.00  0.00    -0.220 NA
ATOM     19  C   UNL d   1      56.905  49.702  50.846  0.00  0.00     0.103 A 
ATOM     20  C   UNL d   1      56.215  49.664  50.393  0.00  0.00     0.041 A 
ATOM     21  C   UNL d   1      56.259  49.584  49.567  0.00  0.00     0.103 A 
ATOM     22  N   UNL d   1      57.002  49.545  49.210  0.00  0.00    -0.220 NA
ENDBRANCH  16  17
ENDBRANCH  15  16
ENDBRANCH  14  15
ENDBRANCH  13  14
ENDBRANCH   5  13
BRANCH   4  23
ATOM     23  N   UNL d   1      60.896  46.605  50.124  0.00  0.00    -0.137 N 
ATOM     24  C   UNL d   1      61.082  46.658  49.331  0.00  0.00     0.118 C 
BRANCH  23  25
ATOM     25  C   UNL d   1      60.721  45.870  50.451  0.00  0.00     0.098 C 
BRANCH  25  26
ATOM     26  C   UNL d   1      61.029  45.183  50.113  0.00  0.00     0.018 A 
ATOM     27  C   UNL d   1      61.336  45.205  49.342  0.00  0.00     0.002 A 
ATOM     28  C   UNL d   1      61.643  44.524  49.002  0.00  0.00     0.000 A 
ATOM     29  C   UNL d   1      61.647  43.814  49.431  0.00  0.00     0.000 A 
ATOM     30  C   UNL d   1      61.338  43.797  50.204  0.00  0.00     0.000 A 
ATOM     31  C   UNL d   1      61.032  44.480  50.540  0.00  0.00     0.002 A 
ENDBRANCH  25  26
ENDBRANCH  23  25
ENDBRANCH   4  23
TORSDOF 8
ENDMDL
