MODEL 1
REMARK VINA RESULT:      21.5      0.000      0.000
REMARK  4 active torsions:
REMARK  status: ('A' for Active; 'I' for Inactive)
REMARK    1  A    between atoms: C_10  and  C_3 
REMARK    2  A    between atoms: S_8  and  C_4 
REMARK       I    between atoms: N_6  and  C_7 
REMARK    3  A    between atoms: C_7  and  C_9 
REMARK    4  A    between atoms: C_9  and  S_8 
ROOT
ATOM      1  O   UNL d   1     -56.635 -98.776 -44.129  0.00  0.00    -0.263 OA
ATOM      2  N   UNL d   1     -57.065 -98.771 -45.392  0.00  0.00    -0.120 NA
ATOM      3  C   UNL d   1     -57.307 -98.777 -44.609  0.00  0.00     0.205 A 
ATOM      4  C   UNL d   1     -55.975 -98.769 -44.620  0.00  0.00     0.236 A 
ATOM      5  N   UNL d   1     -56.236 -98.766 -45.399  0.00  0.00    -0.114 NA
ENDROOT
BRANCH   4   6
ATOM      6  S   UNL d   1     -55.180 -98.766 -44.371  0.00  0.00    -0.036 SA
BRANCH   6   7
ATOM      7  C   UNL d   1     -54.800 -99.479 -44.200  0.00  0.00     0.100 C 
BRANCH   7   8
ATOM      8  C   UNL d   1     -54.759-100.083 -44.760  0.00  0.00     0.272 C 
ATOM      9  N   UNL d   1     -54.767-100.870 -44.523  0.00  0.00    -0.272 N 
ATOM     10  C   UNL d   1     -54.815-101.066 -43.721  0.00  0.00     0.083 A 
ATOM     11  C   UNL d   1     -54.725-101.470 -45.099  0.00  0.00     0.083 A 
ATOM     12  C   UNL d   1     -54.822-101.862 -43.495  0.00  0.00     0.019 A 
ATOM     13  C   UNL d   1     -54.781-102.452 -44.060  0.00  0.00     0.003 A 
ATOM     14  C   UNL d   1     -54.733-102.264 -44.856  0.00  0.00     0.019 A 
ATOM     15  O   UNL d   1     -54.711 -99.887 -45.562  0.00  0.00    -0.266 OA
ENDBRANCH   7   8
ENDBRANCH   6   7
ENDBRANCH   4   6
BRANCH   3  16
ATOM     16  C   UNL d   1     -58.071 -98.784 -44.316  0.00  0.00     0.043 A 
ATOM     17  C   UNL d   1     -58.708 -98.813 -44.840  0.00  0.00     0.004 A 
ATOM     18  C   UNL d   1     -59.480 -98.819 -44.551  0.00  0.00     0.000 A 
ATOM     19  C   UNL d   1     -59.604 -98.797 -43.731  0.00  0.00     0.000 A 
ATOM     20  C   UNL d   1     -58.968 -98.768 -43.206  0.00  0.00     0.000 A 
ATOM     21  C   UNL d   1     -58.204 -98.762 -43.511  0.00  0.00     0.004 A 
ENDBRANCH   3  16
TORSDOF 4
ENDMDL
