MODEL 1
REMARK VINA RESULT:      -2.0      0.000      0.000
REMARK  4 active torsions:
REMARK  status: ('A' for Active; 'I' for Inactive)
REMARK    1  A    between atoms: S_5  and  C_2 
REMARK    2  A    between atoms: C_14  and  S_5 
REMARK    3  A    between atoms: N_11  and  C_8 
REMARK    4  A    between atoms: C_15  and  N_11 
ROOT
ATOM      1  C   UNL d   1      32.899  21.252 -21.642  0.00  0.00     0.197 A 
ATOM      2  C   UNL d   1      32.847  20.450 -21.821  0.00  0.00     0.227 A 
ATOM      3  N   UNL d   1      32.754  21.346 -20.833  0.00  0.00    -0.192 N 
ATOM      4  N   UNL d   1      33.061  21.915 -22.112  0.00  0.00    -0.206 NA
ATOM      5  N   UNL d   1      32.668  20.040 -21.117  0.00  0.00    -0.115 NA
ATOM      6  N   UNL d   1      32.611  20.600 -20.508  0.00  0.00    -0.058 NA
ATOM      7  C   UNL d   1      33.079  22.675 -21.777  0.00  0.00     0.166 A 
ATOM      8  C   UNL d   1      32.933  22.759 -20.967  0.00  0.00     0.054 A 
ATOM      9  C   UNL d   1      32.771  22.104 -20.492  0.00  0.00     0.089 A 
ATOM     10  C   UNL d   1      32.948  23.516 -20.623  0.00  0.00     0.005 A 
ATOM     11  C   UNL d   1      32.625  22.193 -19.684  0.00  0.00     0.019 A 
ATOM     12  C   UNL d   1      32.803  23.606 -19.818  0.00  0.00     0.000 A 
ATOM     13  C   UNL d   1      32.642  22.943 -19.348  0.00  0.00     0.002 A 
ENDROOT
BRANCH   2  14
ATOM     14  S   UNL d   1      32.952  20.102 -22.561  0.00  0.00     0.231 S 
ATOM     15  O   UNL d   1      33.212  20.810 -22.890  0.00  0.00    -0.215 OA
ATOM     16  O   UNL d   1      32.690  19.392 -22.228  0.00  0.00    -0.215 OA
BRANCH  14  17
ATOM     17  C   UNL d   1      33.039  19.709 -23.276  0.00  0.00     0.090 A 
ATOM     18  C   UNL d   1      33.135  20.139 -23.971  0.00  0.00     0.011 A 
ATOM     19  C   UNL d   1      33.222  19.755 -24.690  0.00  0.00     0.001 A 
ATOM     20  C   UNL d   1      33.213  18.925 -24.713  0.00  0.00     0.000 A 
ATOM     21  C   UNL d   1      33.116  18.495 -24.013  0.00  0.00     0.001 A 
ATOM     22  C   UNL d   1      33.029  18.885 -23.299  0.00  0.00     0.011 A 
ENDBRANCH  14  17
ENDBRANCH   2  14
BRANCH   7  23
ATOM     23  N   UNL d   1      33.240  23.335 -22.245  0.00  0.00    -0.227 NA
BRANCH  23  24
ATOM     24  C   UNL d   1      32.824  23.457 -22.944  0.00  0.00     0.083 A 
ATOM     25  C   UNL d   1      33.221  23.462 -23.667  0.00  0.00     0.019 A 
ATOM     26  C   UNL d   1      32.803  23.583 -24.366  0.00  0.00     0.002 A 
ATOM     27  C   UNL d   1      33.200  23.588 -25.089  0.00  0.00     0.000 C 
ATOM     28  C   UNL d   1      31.982  23.702 -24.346  0.00  0.00     0.000 A 
ATOM     29  C   UNL d   1      31.588  23.696 -23.613  0.00  0.00     0.002 A 
ATOM     30  C   UNL d   1      32.008  23.574 -22.920  0.00  0.00     0.019 A 
ENDBRANCH  23  24
ENDBRANCH   7  23
TORSDOF 4
ENDMDL
