MODEL 1
REMARK VINA RESULT:      -6.8      0.000      0.000
REMARK  4 active torsions:
REMARK  status: ('A' for Active; 'I' for Inactive)
REMARK    1  A    between atoms: C_15  and  C_2 
REMARK    2  A    between atoms: C_6  and  S_16 
REMARK    3  A    between atoms: N_8  and  C_11 
REMARK    4  A    between atoms: S_16  and  C_15 
ROOT
ATOM      1  C   UNL d   1     -41.376-122.835 -51.966  0.00  0.00     0.141 A 
ATOM      2  N   UNL d   1     -41.701-122.227 -52.391  0.00  0.00    -0.232 NA
ATOM      3  S   UNL d   1     -41.127-123.422 -52.493  0.00  0.00    -0.060 SA
ATOM      4  C   UNL d   1     -41.662-122.423 -53.199  0.00  0.00     0.090 A 
ATOM      5  C   UNL d   1     -41.792-122.362 -54.632  0.00  0.00     0.128 A 
ATOM      6  C   UNL d   1     -41.311-123.156 -53.270  0.00  0.00     0.049 A 
ATOM      7  C   UNL d   1     -41.909-122.013 -53.875  0.00  0.00     0.043 A 
ATOM      8  C   UNL d   1     -41.441-123.091 -54.696  0.00  0.00     0.024 A 
ATOM      9  C   UNL d   1     -41.198-123.494 -54.019  0.00  0.00     0.010 A 
ENDROOT
BRANCH   1  10
ATOM     10  S   UNL d   1     -41.308-122.857 -51.139  0.00  0.00    -0.059 SA
BRANCH  10  11
ATOM     11  C   UNL d   1     -41.965-122.723 -50.670  0.00  0.00     0.059 C 
BRANCH  11  12
ATOM     12  C   UNL d   1     -41.952-122.933 -49.863  0.00  0.00     0.112 A 
ATOM     13  C   UNL d   1     -42.620-122.900 -49.354  0.00  0.00     0.119 A 
ATOM     14  N   UNL d   1     -42.341-123.157 -48.614  0.00  0.00    -0.284 N 
ATOM     15 BR   UNL d   1     -43.383-122.662 -49.561  0.00  0.00    -0.028 Br
ATOM     16  C   UNL d   1     -41.544-123.336 -48.674  0.00  0.00     0.148 A 
ATOM     17  C   UNL d   1     -42.736-123.243 -47.901  0.00  0.00     0.082 A 
ATOM     18  N   UNL d   1     -41.310-123.194 -49.452  0.00  0.00    -0.226 NA
ATOM     19  C   UNL d   1     -41.123-123.605 -48.022  0.00  0.00     0.037 A 
ATOM     20  C   UNL d   1     -41.522-123.691 -47.305  0.00  0.00     0.005 A 
ATOM     21  C   UNL d   1     -42.319-123.512 -47.245  0.00  0.00     0.019 A 
ENDBRANCH  11  12
ENDBRANCH  10  11
ENDBRANCH   1  10
BRANCH   5  22
ATOM     22  N   UNL d   1     -42.048-121.934 -55.323  0.00  0.00    -0.114 N 
ATOM     23  O   UNL d   1     -42.848-121.912 -55.528  0.00  0.00    -0.532 OA
ATOM     24  O   UNL d   1     -41.491-121.539 -55.788  0.00  0.00    -0.532 OA
ENDBRANCH   5  22
TORSDOF 4
ENDMDL
MODEL 2
REMARK VINA RESULT:      -5.4      2.696      5.682
REMARK  4 active torsions:
REMARK  status: ('A' for Active; 'I' for Inactive)
REMARK    1  A    between atoms: C_15  and  C_2 
REMARK    2  A    between atoms: C_6  and  S_16 
REMARK    3  A    between atoms: N_8  and  C_11 
REMARK    4  A    between atoms: S_16  and  C_15 
ROOT
ATOM      1  C   UNL d   1     -41.752-122.511 -51.117  0.00  0.00     0.141 A 
ATOM      2  N   UNL d   1     -42.452-122.591 -50.717  0.00  0.00    -0.232 NA
ATOM      3  S   UNL d   1     -41.131-122.709 -50.607  0.00  0.00    -0.060 SA
ATOM      4  C   UNL d   1     -42.281-122.841 -49.942  0.00  0.00     0.090 A 
ATOM      5  C   UNL d   1     -42.434-123.255 -48.572  0.00  0.00     0.128 A 
ATOM      6  C   UNL d   1     -41.473-122.916 -49.866  0.00  0.00     0.049 A 
ATOM      7  C   UNL d   1     -42.777-123.009 -49.299  0.00  0.00     0.043 A 
ATOM      8  C   UNL d   1     -41.629-123.328 -48.502  0.00  0.00     0.024 A 
ATOM      9  C   UNL d   1     -41.142-123.160 -49.146  0.00  0.00     0.010 A 
ENDROOT
BRANCH   1  10
ATOM     10  S   UNL d   1     -41.678-122.271 -51.909  0.00  0.00    -0.059 SA
BRANCH  10  11
ATOM     11  C   UNL d   1     -41.609-122.831 -52.502  0.00  0.00     0.059 C 
BRANCH  11  12
ATOM     12  C   UNL d   1     -41.733-122.614 -53.298  0.00  0.00     0.112 A 
ATOM     13  C   UNL d   1     -41.505-123.081 -53.958  0.00  0.00     0.119 A 
ATOM     14  N   UNL d   1     -41.738-122.644 -54.625  0.00  0.00    -0.284 N 
ATOM     15 BR   UNL d   1     -41.130-123.818 -53.931  0.00  0.00    -0.028 Br
ATOM     16  C   UNL d   1     -42.089-121.946 -54.380  0.00  0.00     0.148 A 
ATOM     17  C   UNL d   1     -41.664-122.815 -55.422  0.00  0.00     0.082 A 
ATOM     18  N   UNL d   1     -42.082-121.934 -53.555  0.00  0.00    -0.226 NA
ATOM     19  C   UNL d   1     -42.374-121.403 -54.926  0.00  0.00     0.037 A 
ATOM     20  C   UNL d   1     -42.298-121.577 -55.728  0.00  0.00     0.005 A 
ATOM     21  C   UNL d   1     -41.947-122.275 -55.974  0.00  0.00     0.019 A 
ENDBRANCH  11  12
ENDBRANCH  10  11
ENDBRANCH   1  10
BRANCH   5  22
ATOM     22  N   UNL d   1     -42.950-123.426 -47.915  0.00  0.00    -0.114 N 
ATOM     23  O   UNL d   1     -42.738-123.202 -47.148  0.00  0.00    -0.532 OA
ATOM     24  O   UNL d   1     -43.665-123.817 -48.049  0.00  0.00    -0.532 OA
ENDBRANCH   5  22
TORSDOF 4
ENDMDL
