MODEL 1
REMARK VINA RESULT:     -10.2      0.000      0.000
REMARK  4 active torsions:
REMARK  status: ('A' for Active; 'I' for Inactive)
REMARK    1  A    between atoms: N_5  and  C_1 
REMARK    2  A    between atoms: C_9  and  C_2 
REMARK       I    between atoms: C_6  and  N_5 
REMARK    3  A    between atoms: C_8  and  C_6 
REMARK    4  A    between atoms: N_10  and  C_9 
ROOT
ATOM      1  C   UNL d   1      53.038  33.420  53.803  0.00  0.00     0.115 A 
ATOM      2  C   UNL d   1      53.606  32.863  53.598  0.00  0.00     0.042 A 
ATOM      3  S   UNL d   1      53.334  33.864  54.443  0.00  0.00    -0.068 SA
ATOM      4  C   UNL d   1      54.250  32.959  54.104  0.00  0.00     0.009 A 
ATOM      5  C   UNL d   1      54.072  33.579  54.622  0.00  0.00     0.031 A 
ATOM      6  C   UNL d   1      54.950  32.522  54.105  0.00  0.00     0.001 C 
ATOM      7  C   UNL d   1      54.559  33.869  55.226  0.00  0.00     0.007 C 
ENDROOT
BRANCH   1   8
ATOM      8  N   UNL d   1      52.324  33.457  53.387  0.00  0.00    -0.201 NA
ATOM      9  C   UNL d   1      51.962  34.183  53.255  0.00  0.00     0.282 C 
ATOM     10  O   UNL d   1      52.311  34.872  53.537  0.00  0.00    -0.265 OA
BRANCH   9  11
ATOM     11  C   UNL d   1      51.251  34.220  52.841  0.00  0.00     0.085 A 
ATOM     12  C   UNL d   1      51.252  34.393  52.038  0.00  0.00     0.145 A 
ATOM     13  F   UNL d   1      51.978  34.530  51.649  0.00  0.00    -0.204 F 
ATOM     14  C   UNL d   1      50.542  34.430  51.624  0.00  0.00     0.030 A 
ATOM     15  C   UNL d   1      49.831  34.294  52.013  0.00  0.00     0.002 A 
ATOM     16  C   UNL d   1      49.829  34.120  52.820  0.00  0.00     0.000 A 
ATOM     17  C   UNL d   1      50.539  34.083  53.234  0.00  0.00     0.007 A 
ENDBRANCH   9  11
ENDBRANCH   1   8
BRANCH   2  18
ATOM     18  C   UNL d   1      53.543  32.302  52.987  0.00  0.00     0.082 C 
BRANCH  18  19
ATOM     19  N   UNL d   1      53.327  31.528  53.157  0.00  0.00    -0.302 N 
ATOM     20  C   UNL d   1      52.580  31.250  52.936  0.00  0.00     0.080 A 
ATOM     21  C   UNL d   1      52.362  30.470  53.107  0.00  0.00     0.019 A 
ATOM     22  C   UNL d   1      52.890  29.973  53.498  0.00  0.00     0.003 A 
ATOM     23  C   UNL d   1      53.637  30.251  53.720  0.00  0.00     0.019 A 
ATOM     24  C   UNL d   1      53.856  31.026  53.550  0.00  0.00     0.080 A 
ENDBRANCH  18  19
ENDBRANCH   2  18
TORSDOF 4
ENDMDL
MODEL 2
REMARK VINA RESULT:      -9.7      1.648      3.663
REMARK  4 active torsions:
REMARK  status: ('A' for Active; 'I' for Inactive)
REMARK    1  A    between atoms: N_5  and  C_1 
REMARK    2  A    between atoms: C_9  and  C_2 
REMARK       I    between atoms: C_6  and  N_5 
REMARK    3  A    between atoms: C_8  and  C_6 
REMARK    4  A    between atoms: N_10  and  C_9 
ROOT
ATOM      1  C   UNL d   1      53.676  32.798  54.275  0.00  0.00     0.115 A 
ATOM      2  C   UNL d   1      53.230  33.464  54.455  0.00  0.00     0.042 A 
ATOM      3  S   UNL d   1      54.473  32.970  54.439  0.00  0.00    -0.068 SA
ATOM      4  C   UNL d   1      53.746  34.047  54.730  0.00  0.00     0.009 A 
ATOM      5  C   UNL d   1      54.510  33.732  54.716  0.00  0.00     0.031 A 
ATOM      6  C   UNL d   1      53.547  34.809  54.976  0.00  0.00     0.001 C 
ATOM      7  C   UNL d   1      55.205  34.120  54.944  0.00  0.00     0.007 C 
ENDROOT
BRANCH   1   8
ATOM      8  N   UNL d   1      53.305  32.118  53.984  0.00  0.00    -0.201 NA
ATOM      9  C   UNL d   1      53.747  31.443  53.827  0.00  0.00     0.282 C 
ATOM     10  O   UNL d   1      54.558  31.445  53.960  0.00  0.00    -0.265 OA
BRANCH   9  11
ATOM     11  C   UNL d   1      53.378  30.766  53.538  0.00  0.00     0.085 A 
ATOM     12  C   UNL d   1      53.240  30.129  54.037  0.00  0.00     0.145 A 
ATOM     13  F   UNL d   1      53.476  30.174  54.836  0.00  0.00    -0.204 F 
ATOM     14  C   UNL d   1      52.871  29.452  53.748  0.00  0.00     0.030 A 
ATOM     15  C   UNL d   1      52.640  29.413  52.960  0.00  0.00     0.002 A 
ATOM     16  C   UNL d   1      52.779  30.054  52.458  0.00  0.00     0.000 A 
ATOM     17  C   UNL d   1      53.147  30.730  52.747  0.00  0.00     0.007 A 
ENDBRANCH   9  11
ENDBRANCH   1   8
BRANCH   2  18
ATOM     18  C   UNL d   1      52.405  33.538  54.375  0.00  0.00     0.082 C 
BRANCH  18  19
ATOM     19  N   UNL d   1      52.081  33.808  53.671  0.00  0.00    -0.302 N 
ATOM     20  C   UNL d   1      51.350  33.518  53.414  0.00  0.00     0.080 A 
ATOM     21  C   UNL d   1      51.023  33.789  52.705  0.00  0.00     0.019 A 
ATOM     22  C   UNL d   1      51.426  34.348  52.254  0.00  0.00     0.003 A 
ATOM     23  C   UNL d   1      52.158  34.640  52.510  0.00  0.00     0.019 A 
ATOM     24  C   UNL d   1      52.485  34.371  53.216  0.00  0.00     0.080 A 
ENDBRANCH  18  19
ENDBRANCH   2  18
TORSDOF 4
ENDMDL
MODEL 3
REMARK VINA RESULT:      -9.4      1.491      3.846
REMARK  4 active torsions:
REMARK  status: ('A' for Active; 'I' for Inactive)
REMARK    1  A    between atoms: N_5  and  C_1 
REMARK    2  A    between atoms: C_9  and  C_2 
REMARK       I    between atoms: C_6  and  N_5 
REMARK    3  A    between atoms: C_8  and  C_6 
REMARK    4  A    between atoms: N_10  and  C_9 
ROOT
ATOM      1  C   UNL d   1      52.414  32.742  53.262  0.00  0.00     0.115 A 
ATOM      2  C   UNL d   1      52.862  33.427  53.190  0.00  0.00     0.042 A 
ATOM      3  S   UNL d   1      51.616  32.943  53.135  0.00  0.00    -0.068 SA
ATOM      4  C   UNL d   1      52.348  34.049  53.018  0.00  0.00     0.009 A 
ATOM      5  C   UNL d   1      51.582  33.740  52.987  0.00  0.00     0.031 A 
ATOM      6  C   UNL d   1      52.550  34.840  52.898  0.00  0.00     0.001 C 
ATOM      7  C   UNL d   1      50.888  34.164  52.831  0.00  0.00     0.007 C 
ENDROOT
BRANCH   1   8
ATOM      8  N   UNL d   1      52.782  32.022  53.435  0.00  0.00    -0.201 NA
ATOM      9  C   UNL d   1      52.380  31.315  53.318  0.00  0.00     0.282 C 
ATOM     10  O   UNL d   1      51.611  31.326  53.029  0.00  0.00    -0.265 OA
BRANCH   9  11
ATOM     11  C   UNL d   1      52.747  30.599  53.489  0.00  0.00     0.085 A 
ATOM     12  C   UNL d   1      53.016  30.119  52.880  0.00  0.00     0.145 A 
ATOM     13  F   UNL d   1      52.915  30.365  52.089  0.00  0.00    -0.204 F 
ATOM     14  C   UNL d   1      53.383  29.402  53.051  0.00  0.00     0.030 A 
ATOM     15  C   UNL d   1      53.480  29.166  53.832  0.00  0.00     0.002 A 
ATOM     16  C   UNL d   1      53.210  29.647  54.445  0.00  0.00     0.000 A 
ATOM     17  C   UNL d   1      52.843  30.364  54.274  0.00  0.00     0.007 A 
ENDBRANCH   9  11
ENDBRANCH   1   8
BRANCH   2  18
ATOM     18  C   UNL d   1      53.688  33.483  53.274  0.00  0.00     0.082 C 
BRANCH  18  19
ATOM     19  N   UNL d   1      54.020  33.608  54.015  0.00  0.00    -0.302 N 
ATOM     20  C   UNL d   1      54.743  33.255  54.207  0.00  0.00     0.080 A 
ATOM     21  C   UNL d   1      55.079  33.379  54.954  0.00  0.00     0.019 A 
ATOM     22  C   UNL d   1      54.691  33.854  55.503  0.00  0.00     0.003 A 
ATOM     23  C   UNL d   1      53.967  34.208  55.312  0.00  0.00     0.019 A 
ATOM     24  C   UNL d   1      53.632  34.085  54.570  0.00  0.00     0.080 A 
ENDBRANCH  18  19
ENDBRANCH   2  18
TORSDOF 4
ENDMDL
MODEL 4
REMARK VINA RESULT:      -8.9      1.387      2.608
REMARK  4 active torsions:
REMARK  status: ('A' for Active; 'I' for Inactive)
REMARK    1  A    between atoms: N_5  and  C_1 
REMARK    2  A    between atoms: C_9  and  C_2 
REMARK       I    between atoms: C_6  and  N_5 
REMARK    3  A    between atoms: C_8  and  C_6 
REMARK    4  A    between atoms: N_10  and  C_9 
ROOT
ATOM      1  C   UNL d   1      52.717  31.685  53.149  0.00  0.00     0.115 A 
ATOM      2  C   UNL d   1      53.523  31.588  53.278  0.00  0.00     0.042 A 
ATOM      3  S   UNL d   1      52.359  30.935  53.186  0.00  0.00    -0.068 SA
ATOM      4  C   UNL d   1      53.665  30.784  53.394  0.00  0.00     0.009 A 
ATOM      5  C   UNL d   1      52.941  30.390  53.335  0.00  0.00     0.031 A 
ATOM      6  C   UNL d   1      54.394  30.426  53.543  0.00  0.00     0.001 C 
ATOM      7  C   UNL d   1      52.818  29.574  53.414  0.00  0.00     0.007 C 
ENDROOT
BRANCH   1   8
ATOM      8  N   UNL d   1      52.407  32.440  53.014  0.00  0.00    -0.201 NA
ATOM      9  C   UNL d   1      51.596  32.544  52.931  0.00  0.00     0.282 C 
ATOM     10  O   UNL d   1      51.094  31.896  52.983  0.00  0.00    -0.265 OA
BRANCH   9  11
ATOM     11  C   UNL d   1      51.288  33.295  52.797  0.00  0.00     0.085 A 
ATOM     12  C   UNL d   1      50.765  33.627  53.337  0.00  0.00     0.145 A 
ATOM     13  F   UNL d   1      50.551  33.197  54.019  0.00  0.00    -0.204 F 
ATOM     14  C   UNL d   1      50.457  34.378  53.203  0.00  0.00     0.030 A 
ATOM     15  C   UNL d   1      50.671  34.798  52.529  0.00  0.00     0.002 A 
ATOM     16  C   UNL d   1      51.196  34.465  51.986  0.00  0.00     0.000 A 
ATOM     17  C   UNL d   1      51.504  33.714  52.120  0.00  0.00     0.007 A 
ENDBRANCH   9  11
ENDBRANCH   1   8
BRANCH   2  18
ATOM     18  C   UNL d   1      54.093  32.193  53.289  0.00  0.00     0.082 C 
BRANCH  18  19
ATOM     19  N   UNL d   1      54.274  32.577  53.992  0.00  0.00    -0.302 N 
ATOM     20  C   UNL d   1      54.747  33.256  53.982  0.00  0.00     0.080 A 
ATOM     21  C   UNL d   1      54.931  33.644  54.690  0.00  0.00     0.019 A 
ATOM     22  C   UNL d   1      54.641  33.352  55.404  0.00  0.00     0.003 A 
ATOM     23  C   UNL d   1      54.168  32.673  55.415  0.00  0.00     0.019 A 
ATOM     24  C   UNL d   1      53.985  32.286  54.711  0.00  0.00     0.080 A 
ENDBRANCH  18  19
ENDBRANCH   2  18
TORSDOF 4
ENDMDL
MODEL 5
REMARK VINA RESULT:      -7.2      1.611      3.796
REMARK  4 active torsions:
REMARK  status: ('A' for Active; 'I' for Inactive)
REMARK    1  A    between atoms: N_5  and  C_1 
REMARK    2  A    between atoms: C_9  and  C_2 
REMARK       I    between atoms: C_6  and  N_5 
REMARK    3  A    between atoms: C_8  and  C_6 
REMARK    4  A    between atoms: N_10  and  C_9 
ROOT
ATOM      1  C   UNL d   1      53.538  31.616  53.766  0.00  0.00     0.115 A 
ATOM      2  C   UNL d   1      53.050  31.540  53.109  0.00  0.00     0.042 A 
ATOM      3  S   UNL d   1      53.591  30.870  54.134  0.00  0.00    -0.068 SA
ATOM      4  C   UNL d   1      52.802  30.755  53.067  0.00  0.00     0.009 A 
ATOM      5  C   UNL d   1      53.141  30.350  53.704  0.00  0.00     0.031 A 
ATOM      6  C   UNL d   1      52.305  30.421  52.499  0.00  0.00     0.001 C 
ATOM      7  C   UNL d   1      53.043  29.547  53.883  0.00  0.00     0.007 C 
ENDROOT
BRANCH   1   8
ATOM      8  N   UNL d   1      53.874  32.349  53.951  0.00  0.00    -0.201 NA
ATOM      9  C   UNL d   1      54.173  32.487  54.704  0.00  0.00     0.282 C 
ATOM     10  O   UNL d   1      54.138  31.895  55.272  0.00  0.00    -0.265 OA
BRANCH   9  11
ATOM     11  C   UNL d   1      54.507  33.216  54.887  0.00  0.00     0.085 A 
ATOM     12  C   UNL d   1      54.087  33.758  55.339  0.00  0.00     0.145 A 
ATOM     13  F   UNL d   1      53.321  33.563  55.609  0.00  0.00    -0.204 F 
ATOM     14  C   UNL d   1      54.421  34.488  55.523  0.00  0.00     0.030 A 
ATOM     15  C   UNL d   1      55.175  34.675  55.255  0.00  0.00     0.002 A 
ATOM     16  C   UNL d   1      55.598  34.131  54.801  0.00  0.00     0.000 A 
ATOM     17  C   UNL d   1      55.264  33.401  54.617  0.00  0.00     0.007 A 
ENDBRANCH   9  11
ENDBRANCH   1   8
BRANCH   2  18
ATOM     18  C   UNL d   1      52.844  32.148  52.580  0.00  0.00     0.082 C 
BRANCH  18  19
ATOM     19  N   UNL d   1      52.195  32.626  52.733  0.00  0.00    -0.302 N 
ATOM     20  C   UNL d   1      52.215  33.428  52.528  0.00  0.00     0.080 A 
ATOM     21  C   UNL d   1      51.561  33.911  52.682  0.00  0.00     0.019 A 
ATOM     22  C   UNL d   1      50.891  33.592  53.040  0.00  0.00     0.003 A 
ATOM     23  C   UNL d   1      50.870  32.790  53.245  0.00  0.00     0.019 A 
ATOM     24  C   UNL d   1      51.519  32.308  53.092  0.00  0.00     0.080 A 
ENDBRANCH  18  19
ENDBRANCH   2  18
TORSDOF 4
ENDMDL
