MODEL 1
REMARK VINA RESULT:      -8.3      0.000      0.000
REMARK  4 active torsions:
REMARK  status: ('A' for Active; 'I' for Inactive)
REMARK    1  A    between atoms: N_8  and  C_2 
REMARK    2  A    between atoms: C_9  and  C_3 
REMARK       I    between atoms: C_6  and  N_7 
REMARK    3  A    between atoms: C_10  and  C_6 
REMARK    4  A    between atoms: N_7  and  N_8 
ROOT
ATOM      1  C   UNL d   1      53.196  32.090  53.395  0.00  0.00     0.297 C 
ATOM      2  N   UNL d   1      52.559  32.503  53.026  0.00  0.00    -0.104 NA
ATOM      3  O   UNL d   1      53.282  31.288  53.277  0.00  0.00    -0.264 OA
ENDROOT
BRANCH   2   4
ATOM      4  N   UNL d   1      52.477  33.299  53.146  0.00  0.00    -0.119 NA
BRANCH   4   5
ATOM      5  C   UNL d   1      51.855  33.682  52.827  0.00  0.00     0.214 A 
ATOM      6  N   UNL d   1      51.075  33.796  53.098  0.00  0.00    -0.224 NA
ATOM      7  C   UNL d   1      50.672  34.254  52.509  0.00  0.00     0.067 A 
ATOM      8  C   UNL d   1      51.209  34.398  51.916  0.00  0.00     0.053 A 
ATOM      9  S   UNL d   1      51.924  34.056  52.104  0.00  0.00    -0.045 SA
BRANCH   7  10
ATOM     10  C   UNL d   1      49.877  34.512  52.523  0.00  0.00     0.036 C 
ATOM     11  C   UNL d   1      49.089  34.774  52.552  0.00  0.00     0.006 C 
ATOM     12  C   UNL d   1      49.990  34.768  53.303  0.00  0.00     0.006 C 
ATOM     13  C   UNL d   1      49.786  34.247  51.736  0.00  0.00     0.006 C 
ENDBRANCH   7  10
ENDBRANCH   4   5
ENDBRANCH   2   4
BRANCH   1  14
ATOM     14  C   UNL d   1      53.744  32.511  53.885  0.00  0.00     0.059 A 
ATOM     15  C   UNL d   1      53.583  32.594  54.698  0.00  0.00     0.005 A 
ATOM     16  C   UNL d   1      54.108  32.993  55.148  0.00  0.00     0.007 A 
ATOM     17  C   UNL d   1      54.798  33.324  54.839  0.00  0.00     0.035 A 
ATOM     18  C   UNL d   1      54.958  33.243  54.038  0.00  0.00     0.007 A 
ATOM     19 BR   UNL d   1      55.318  33.727  55.322  0.00  0.00    -0.049 Br
ATOM     20  C   UNL d   1      54.428  32.836  53.567  0.00  0.00     0.005 A 
ENDBRANCH   1  14
TORSDOF 4
ENDMDL
MODEL 2
REMARK VINA RESULT:      -7.9      2.223      4.322
REMARK  4 active torsions:
REMARK  status: ('A' for Active; 'I' for Inactive)
REMARK    1  A    between atoms: N_8  and  C_2 
REMARK    2  A    between atoms: C_9  and  C_3 
REMARK       I    between atoms: C_6  and  N_7 
REMARK    3  A    between atoms: C_10  and  C_6 
REMARK    4  A    between atoms: N_7  and  N_8 
ROOT
ATOM      1  C   UNL d   1      52.470  34.337  53.198  0.00  0.00     0.297 C 
ATOM      2  N   UNL d   1      52.883  33.606  53.292  0.00  0.00    -0.104 NA
ATOM      3  O   UNL d   1      52.806  35.030  53.464  0.00  0.00    -0.264 OA
ENDROOT
BRANCH   2   4
ATOM      4  N   UNL d   1      52.546  32.920  53.027  0.00  0.00    -0.119 NA
BRANCH   4   5
ATOM      5  C   UNL d   1      52.881  32.221  53.210  0.00  0.00     0.214 A 
ATOM      6  N   UNL d   1      52.582  31.444  53.204  0.00  0.00    -0.224 NA
ATOM      7  C   UNL d   1      53.210  30.934  53.458  0.00  0.00     0.067 A 
ATOM      8  C   UNL d   1      53.853  31.409  53.606  0.00  0.00     0.053 A 
ATOM      9  S   UNL d   1      53.659  32.186  53.458  0.00  0.00    -0.045 SA
BRANCH   7  10
ATOM     10  C   UNL d   1      53.186  30.103  53.544  0.00  0.00     0.036 C 
ATOM     11  C   UNL d   1      53.168  29.278  53.644  0.00  0.00     0.006 C 
ATOM     12  C   UNL d   1      53.502  30.186  54.306  0.00  0.00     0.006 C 
ATOM     13  C   UNL d   1      52.868  30.042  52.774  0.00  0.00     0.006 C 
ENDBRANCH   7  10
ENDBRANCH   4   5
ENDBRANCH   2   4
BRANCH   1  14
ATOM     14  C   UNL d   1      51.709  34.346  52.826  0.00  0.00     0.059 A 
ATOM     15  C   UNL d   1      51.024  34.377  53.299  0.00  0.00     0.005 A 
ATOM     16  C   UNL d   1      50.314  34.385  52.935  0.00  0.00     0.007 A 
ATOM     17  C   UNL d   1      50.235  34.364  52.114  0.00  0.00     0.035 A 
ATOM     18  C   UNL d   1      50.908  34.334  51.646  0.00  0.00     0.007 A 
ATOM     19 BR   UNL d   1      49.495  34.374  51.768  0.00  0.00    -0.049 Br
ATOM     20  C   UNL d   1      51.641  34.325  52.008  0.00  0.00     0.005 A 
ENDBRANCH   1  14
TORSDOF 4
ENDMDL
MODEL 3
REMARK VINA RESULT:      -7.6      2.406      3.280
REMARK  4 active torsions:
REMARK  status: ('A' for Active; 'I' for Inactive)
REMARK    1  A    between atoms: N_8  and  C_2 
REMARK    2  A    between atoms: C_9  and  C_3 
REMARK       I    between atoms: C_6  and  N_7 
REMARK    3  A    between atoms: C_10  and  C_6 
REMARK    4  A    between atoms: N_7  and  N_8 
ROOT
ATOM      1  C   UNL d   1      52.983  31.007  52.750  0.00  0.00     0.297 C 
ATOM      2  N   UNL d   1      53.130  31.806  52.976  0.00  0.00    -0.104 NA
ATOM      3  O   UNL d   1      52.741  30.838  51.990  0.00  0.00    -0.264 OA
ENDROOT
BRANCH   2   4
ATOM      4  N   UNL d   1      53.371  31.970  53.731  0.00  0.00    -0.119 NA
BRANCH   4   5
ATOM      5  C   UNL d   1      53.459  32.728  53.960  0.00  0.00     0.214 A 
ATOM      6  N   UNL d   1      52.957  33.389  53.895  0.00  0.00    -0.224 NA
ATOM      7  C   UNL d   1      53.364  34.046  54.245  0.00  0.00     0.067 A 
ATOM      8  C   UNL d   1      54.082  33.765  54.503  0.00  0.00     0.053 A 
ATOM      9  S   UNL d   1      54.144  32.972  54.334  0.00  0.00    -0.045 SA
BRANCH   7  10
ATOM     10  C   UNL d   1      53.091  34.833  54.316  0.00  0.00     0.036 C 
ATOM     11  C   UNL d   1      52.825  35.616  54.401  0.00  0.00     0.006 C 
ATOM     12  C   UNL d   1      53.335  34.831  55.108  0.00  0.00     0.006 C 
ATOM     13  C   UNL d   1      52.854  34.813  53.515  0.00  0.00     0.006 C 
ENDBRANCH   7  10
ENDBRANCH   4   5
ENDBRANCH   2   4
BRANCH   1  14
ATOM     14  C   UNL d   1      53.088  30.383  53.314  0.00  0.00     0.059 A 
ATOM     15  C   UNL d   1      52.428  30.095  53.732  0.00  0.00     0.005 A 
ATOM     16  C   UNL d   1      52.542  29.508  54.259  0.00  0.00     0.007 A 
ATOM     17  C   UNL d   1      53.284  29.178  54.404  0.00  0.00     0.035 A 
ATOM     18  C   UNL d   1      53.936  29.460  53.993  0.00  0.00     0.007 A 
ATOM     19 BR   UNL d   1      53.372  28.576  54.950  0.00  0.00    -0.049 Br
ATOM     20  C   UNL d   1      53.831  30.061  53.450  0.00  0.00     0.005 A 
ENDBRANCH   1  14
TORSDOF 4
ENDMDL
MODEL 4
REMARK VINA RESULT:      -7.6      1.592      1.965
REMARK  4 active torsions:
REMARK  status: ('A' for Active; 'I' for Inactive)
REMARK    1  A    between atoms: N_8  and  C_2 
REMARK    2  A    between atoms: C_9  and  C_3 
REMARK       I    between atoms: C_6  and  N_7 
REMARK    3  A    between atoms: C_10  and  C_6 
REMARK    4  A    between atoms: N_7  and  N_8 
ROOT
ATOM      1  C   UNL d   1      54.004  32.445  53.431  0.00  0.00     0.297 C 
ATOM      2  N   UNL d   1      53.427  33.056  53.348  0.00  0.00    -0.104 NA
ATOM      3  O   UNL d   1      54.797  32.627  53.382  0.00  0.00    -0.264 OA
ENDROOT
BRANCH   2   4
ATOM      4  N   UNL d   1      52.641  32.871  53.397  0.00  0.00    -0.119 NA
BRANCH   4   5
ATOM      5  C   UNL d   1      52.095  33.424  53.219  0.00  0.00     0.214 A 
ATOM      6  N   UNL d   1      51.379  33.381  52.797  0.00  0.00    -0.224 NA
ATOM      7  C   UNL d   1      51.044  34.161  52.795  0.00  0.00     0.067 A 
ATOM      8  C   UNL d   1      51.558  34.637  53.206  0.00  0.00     0.053 A 
ATOM      9  S   UNL d   1      52.193  34.198  53.464  0.00  0.00    -0.045 SA
BRANCH   7  10
ATOM     10  C   UNL d   1      50.326  34.404  52.442  0.00  0.00     0.036 C 
ATOM     11  C   UNL d   1      49.607  34.650  52.105  0.00  0.00     0.006 C 
ATOM     12  C   UNL d   1      50.049  34.623  53.191  0.00  0.00     0.006 C 
ATOM     13  C   UNL d   1      50.627  34.176  51.696  0.00  0.00     0.006 C 
ENDBRANCH   7  10
ENDBRANCH   4   5
ENDBRANCH   2   4
BRANCH   1  14
ATOM     14  C   UNL d   1      53.756  31.646  53.565  0.00  0.00     0.059 A 
ATOM     15  C   UNL d   1      53.687  31.365  54.345  0.00  0.00     0.005 A 
ATOM     16  C   UNL d   1      53.453  30.611  54.456  0.00  0.00     0.007 A 
ATOM     17  C   UNL d   1      53.278  30.103  53.829  0.00  0.00     0.035 A 
ATOM     18  C   UNL d   1      53.345  30.378  53.059  0.00  0.00     0.007 A 
ATOM     19 BR   UNL d   1      53.040  29.335  53.971  0.00  0.00    -0.049 Br
ATOM     20  C   UNL d   1      53.584  31.149  52.934  0.00  0.00     0.005 A 
ENDBRANCH   1  14
TORSDOF 4
ENDMDL
MODEL 5
REMARK VINA RESULT:      -7.1      2.445      4.087
REMARK  4 active torsions:
REMARK  status: ('A' for Active; 'I' for Inactive)
REMARK    1  A    between atoms: N_8  and  C_2 
REMARK    2  A    between atoms: C_9  and  C_3 
REMARK       I    between atoms: C_6  and  N_7 
REMARK    3  A    between atoms: C_10  and  C_6 
REMARK    4  A    between atoms: N_7  and  N_8 
ROOT
ATOM      1  C   UNL d   1      54.662  33.028  53.676  0.00  0.00     0.297 C 
ATOM      2  N   UNL d   1      54.442  32.219  53.578  0.00  0.00    -0.104 NA
ATOM      3  O   UNL d   1      55.443  33.249  53.591  0.00  0.00    -0.264 OA
ENDROOT
BRANCH   2   4
ATOM      4  N   UNL d   1      53.666  32.004  53.663  0.00  0.00    -0.119 NA
BRANCH   4   5
ATOM      5  C   UNL d   1      53.476  31.231  53.709  0.00  0.00     0.214 A 
ATOM      6  N   UNL d   1      53.645  30.651  54.282  0.00  0.00    -0.224 NA
ATOM      7  C   UNL d   1      53.288  29.929  54.018  0.00  0.00     0.067 A 
ATOM      8  C   UNL d   1      52.924  30.093  53.310  0.00  0.00     0.053 A 
ATOM      9  S   UNL d   1      53.034  30.877  53.120  0.00  0.00    -0.045 SA
BRANCH   7  10
ATOM     10  C   UNL d   1      53.301  29.186  54.401  0.00  0.00     0.036 C 
ATOM     11  C   UNL d   1      53.315  28.455  54.796  0.00  0.00     0.006 C 
ATOM     12  C   UNL d   1      53.313  29.579  55.131  0.00  0.00     0.006 C 
ATOM     13  C   UNL d   1      53.289  28.811  53.655  0.00  0.00     0.006 C 
ENDBRANCH   7  10
ENDBRANCH   4   5
ENDBRANCH   2   4
BRANCH   1  14
ATOM     14  C   UNL d   1      54.072  33.606  53.862  0.00  0.00     0.059 A 
ATOM     15  C   UNL d   1      53.961  33.836  54.655  0.00  0.00     0.005 A 
ATOM     16  C   UNL d   1      53.402  34.381  54.815  0.00  0.00     0.007 A 
ATOM     17  C   UNL d   1      52.934  34.724  54.229  0.00  0.00     0.035 A 
ATOM     18  C   UNL d   1      53.041  34.499  53.447  0.00  0.00     0.007 A 
ATOM     19 BR   UNL d   1      52.368  35.281  54.421  0.00  0.00    -0.049 Br
ATOM     20  C   UNL d   1      53.611  33.941  53.271  0.00  0.00     0.005 A 
ENDBRANCH   1  14
TORSDOF 4
ENDMDL
