MODEL 1
REMARK VINA RESULT:      -6.1      0.000      0.000
REMARK  4 active torsions:
REMARK  status: ('A' for Active; 'I' for Inactive)
REMARK    1  A    between atoms: S_9  and  C_1 
REMARK    2  A    between atoms: N_3  and  C_7 
REMARK    3  A    between atoms: C_13  and  S_9 
REMARK    4  A    between atoms: C_14  and  C_13 
ROOT
ATOM      1  S   UNL d   1     -41.644-122.200 -51.743  0.00  0.00    -0.042 SA
ENDROOT
BRANCH   1   2
ATOM      2  C   UNL d   1     -41.715-122.505 -50.986  0.00  0.00     0.215 A 
ATOM      3  N   UNL d   1     -42.403-122.486 -50.541  0.00  0.00    -0.214 NA
ATOM      4  C   UNL d   1     -42.238-122.841 -49.836  0.00  0.00     0.107 A 
ATOM      5  C   UNL d   1     -42.705-122.985 -49.170  0.00  0.00     0.021 A 
ATOM      6  C   UNL d   1     -41.455-123.081 -49.837  0.00  0.00     0.120 A 
ATOM      7  C   UNL d   1     -42.397-123.366 -48.506  0.00  0.00     0.002 A 
ATOM      8  C   UNL d   1     -41.614-123.606 -48.508  0.00  0.00     0.002 A 
ATOM      9  C   UNL d   1     -41.148-123.462 -49.173  0.00  0.00     0.026 A 
ATOM     10  O   UNL d   1     -41.123-122.878 -50.544  0.00  0.00    -0.283 OA
ENDBRANCH   1   2
BRANCH   1  11
ATOM     11  C   UNL d   1     -41.341-122.693 -52.331  0.00  0.00     0.039 C 
BRANCH  11  12
ATOM     12  C   UNL d   1     -41.511-122.533 -53.111  0.00  0.00     0.007 A 
ATOM     13  C   UNL d   1     -41.815-121.819 -53.322  0.00  0.00     0.002 A 
ATOM     14  C   UNL d   1     -41.989-121.655 -54.125  0.00  0.00     0.024 A 
ATOM     15  C   UNL d   1     -41.855-122.208 -54.700  0.00  0.00     0.127 A 
ATOM     16  C   UNL d   1     -41.533-122.968 -54.493  0.00  0.00     0.024 A 
ATOM     17  C   UNL d   1     -41.367-123.110 -53.683  0.00  0.00     0.002 A 
BRANCH  15  18
ATOM     18  N   UNL d   1     -42.040-122.002 -55.467  0.00  0.00    -0.114 N 
ATOM     19  O   UNL d   1     -41.460-121.651 -55.897  0.00  0.00    -0.532 OA
ATOM     20  O   UNL d   1     -42.802-122.154 -55.785  0.00  0.00    -0.532 OA
ENDBRANCH  15  18
ENDBRANCH  11  12
ENDBRANCH   1  11
TORSDOF 4
ENDMDL
MODEL 2
REMARK VINA RESULT:      -6.1      1.470      5.066
REMARK  4 active torsions:
REMARK  status: ('A' for Active; 'I' for Inactive)
REMARK    1  A    between atoms: S_9  and  C_1 
REMARK    2  A    between atoms: N_3  and  C_7 
REMARK    3  A    between atoms: C_13  and  S_9 
REMARK    4  A    between atoms: C_14  and  C_13 
ROOT
ATOM      1  S   UNL d   1     -41.429-122.487 -51.705  0.00  0.00    -0.042 SA
ENDROOT
BRANCH   1   2
ATOM      2  C   UNL d   1     -41.497-122.471 -52.522  0.00  0.00     0.215 A 
ATOM      3  N   UNL d   1     -41.959-121.938 -52.938  0.00  0.00    -0.214 NA
ATOM      4  C   UNL d   1     -41.871-122.111 -53.722  0.00  0.00     0.107 A 
ATOM      5  C   UNL d   1     -42.195-121.770 -54.400  0.00  0.00     0.021 A 
ATOM      6  C   UNL d   1     -41.360-122.746 -53.797  0.00  0.00     0.120 A 
ATOM      7  C   UNL d   1     -42.013-122.056 -55.152  0.00  0.00     0.002 A 
ATOM      8  C   UNL d   1     -41.501-122.691 -55.227  0.00  0.00     0.002 A 
ATOM      9  C   UNL d   1     -41.178-123.032 -54.549  0.00  0.00     0.026 A 
ATOM     10  O   UNL d   1     -41.123-122.976 -53.061  0.00  0.00    -0.283 OA
ENDBRANCH   1   2
BRANCH   1  11
ATOM     11  C   UNL d   1     -41.692-123.160 -51.309  0.00  0.00     0.039 C 
BRANCH  11  12
ATOM     12  C   UNL d   1     -41.767-123.141 -50.498  0.00  0.00     0.007 A 
ATOM     13  C   UNL d   1     -42.464-122.922 -50.161  0.00  0.00     0.002 A 
ATOM     14  C   UNL d   1     -42.541-122.903 -49.327  0.00  0.00     0.024 A 
ATOM     15  C   UNL d   1     -41.920-123.104 -48.848  0.00  0.00     0.127 A 
ATOM     16  C   UNL d   1     -41.177-123.337 -49.190  0.00  0.00     0.024 A 
ATOM     17  C   UNL d   1     -41.123-123.349 -50.027  0.00  0.00     0.002 A 
BRANCH  15  18
ATOM     18  N   UNL d   1     -42.043-123.070 -48.042  0.00  0.00    -0.114 N 
ATOM     19  O   UNL d   1     -41.565-123.526 -47.585  0.00  0.00    -0.532 OA
ATOM     20  O   UNL d   1     -42.641-122.580 -47.714  0.00  0.00    -0.532 OA
ENDBRANCH  15  18
ENDBRANCH  11  12
ENDBRANCH   1  11
TORSDOF 4
ENDMDL
