MODEL 1
REMARK VINA RESULT:      42.9      0.000      0.000
REMARK  5 active torsions:
REMARK  status: ('A' for Active; 'I' for Inactive)
REMARK    1  A    between atoms: C_3  and  C_1 
REMARK    2  A    between atoms: C_7  and  C_3 
REMARK       I    between atoms: C_6  and  N_5 
REMARK    3  A    between atoms: O_18  and  C_6 
REMARK    4  A    between atoms: N_10  and  C_7 
REMARK    5  A    between atoms: C_21  and  O_18 
ROOT
ATOM      1  C   UNL d   1      13.249  12.733  -3.630  0.00  0.00     0.110 C 
ATOM      2  C   UNL d   1      13.381  12.253  -4.295  0.00  0.00     0.105 C 
ATOM      3  N   UNL d   1      13.512  11.779  -4.950  0.00  0.00    -0.191 NA
ENDROOT
BRANCH   1   4
ATOM      4  C   UNL d   1      13.569  12.519  -2.901  0.00  0.00     0.122 A 
ATOM      5  N   UNL d   1      14.369  12.450  -2.720  0.00  0.00    -0.238 NA
ATOM      6  C   UNL d   1      14.435  12.223  -1.930  0.00  0.00     0.088 A 
ATOM      7  C   UNL d   1      15.093  12.073  -1.452  0.00  0.00     0.020 A 
ATOM      8  C   UNL d   1      13.675  12.151  -1.618  0.00  0.00     0.049 A 
ATOM      9  C   UNL d   1      14.989  11.852  -0.667  0.00  0.00     0.002 A 
ATOM     10  C   UNL d   1      14.225  11.779  -0.353  0.00  0.00     0.001 A 
ATOM     11  C   UNL d   1      13.569  11.928  -0.826  0.00  0.00     0.008 A 
ATOM     12  S   UNL d   1      13.137  12.333  -2.214  0.00  0.00    -0.066 SA
ENDBRANCH   1   4
BRANCH   1  13
ATOM     13  C   UNL d   1      12.801  13.420  -3.698  0.00  0.00     0.093 C 
BRANCH  13  14
ATOM     14  N   UNL d   1      13.136  14.102  -4.023  0.00  0.00    -0.299 N 
ATOM     15  C   UNL d   1      12.868  14.380  -4.762  0.00  0.00     0.100 A 
ATOM     16  C   UNL d   1      13.198  15.054  -5.083  0.00  0.00     0.104 A 
ATOM     17  N   UNL d   1      13.796  15.462  -4.681  0.00  0.00    -0.249 N 
ATOM     18  C   UNL d   1      14.059  15.183  -3.950  0.00  0.00     0.104 A 
ATOM     19  C   UNL d   1      14.130  16.143  -5.006  0.00  0.00     0.378 C 
ATOM     20  C   UNL d   1      13.727  14.496  -3.615  0.00  0.00     0.100 A 
ATOM     21  O   UNL d   1      14.726  16.547  -4.604  0.00  0.00    -0.237 OA
BRANCH  19  22
ATOM     22  O   UNL d   1      13.866  16.416  -5.733  0.00  0.00    -0.257 OA
BRANCH  22  23
ATOM     23  C   UNL d   1      14.045  17.181  -5.980  0.00  0.00     0.128 C 
ATOM     24  C   UNL d   1      13.465  17.643  -6.355  0.00  0.00     0.029 C 
ENDBRANCH  22  23
ENDBRANCH  19  22
ENDBRANCH  13  14
ENDBRANCH   1  13
TORSDOF 5
ENDMDL
