MODEL 1
REMARK VINA RESULT:      24.2      0.000      0.000
REMARK  7 active torsions:
REMARK  status: ('A' for Active; 'I' for Inactive)
REMARK    1  A    between atoms: P_4  and  C_1 
REMARK    2  A    between atoms: N_7  and  C_3 
REMARK    3  A    between atoms: C_9  and  P_4 
REMARK    4  A    between atoms: C_10  and  P_4 
REMARK    5  A    between atoms: C_11  and  C_5 
REMARK    6  A    between atoms: C_12  and  N_7 
REMARK    7  A    between atoms: C_13  and  C_12 
ROOT
ATOM      1  C   UNL d   1     -42.025-122.212 -52.478  0.00  0.00     0.161 A 
ATOM      2  N   UNL d   1     -42.131-122.729 -51.837  0.00  0.00    -0.215 NA
ATOM      3  C   UNL d   1     -41.623-121.496 -52.196  0.00  0.00     0.205 A 
ATOM      4  C   UNL d   1     -41.823-122.390 -51.168  0.00  0.00     0.184 A 
ATOM      5  O   UNL d   1     -41.494-121.617 -51.348  0.00  0.00    -0.270 OA
ENDROOT
BRANCH   1   6
ATOM      6  P   UNL d   1     -42.164-122.176 -53.190  0.00  0.00     0.195 P 
ATOM      7  O   UNL d   1     -41.623-122.637 -52.827  0.00  0.00    -0.305 OA
BRANCH   6   8
ATOM      8  C   UNL d   1     -41.812-122.591 -53.822  0.00  0.00     0.038 A 
ATOM      9  C   UNL d   1     -41.539-122.182 -54.473  0.00  0.00     0.004 A 
ATOM     10  C   UNL d   1     -41.191-122.593 -55.098  0.00  0.00     0.000 A 
ATOM     11  C   UNL d   1     -41.123-123.406 -55.060  0.00  0.00     0.000 A 
ATOM     12  C   UNL d   1     -41.397-123.816 -54.408  0.00  0.00     0.000 A 
ATOM     13  C   UNL d   1     -41.744-123.405 -53.783  0.00  0.00     0.004 A 
ENDBRANCH   6   8
BRANCH   6  14
ATOM     14  C   UNL d   1     -42.728-121.725 -53.800  0.00  0.00     0.038 A 
ATOM     15  C   UNL d   1     -42.826-121.224 -54.437  0.00  0.00     0.004 A 
ATOM     16  C   UNL d   1     -43.565-121.056 -54.707  0.00  0.00     0.000 A 
ATOM     17  C   UNL d   1     -44.233-121.392 -54.338  0.00  0.00     0.000 A 
ATOM     18  C   UNL d   1     -44.143-121.887 -53.710  0.00  0.00     0.000 A 
ATOM     19  C   UNL d   1     -43.396-122.062 -53.431  0.00  0.00     0.004 A 
ENDBRANCH   6  14
ENDBRANCH   1   6
BRANCH   3  20
ATOM     20  N   UNL d   1     -41.509-120.992 -52.771  0.00  0.00    -0.219 NA
BRANCH  20  21
ATOM     21  C   UNL d   1     -41.125-120.299 -53.021  0.00  0.00     0.101 C 
BRANCH  21  22
ATOM     22  C   UNL d   1     -41.194-119.609 -52.604  0.00  0.00     0.019 A 
ATOM     23  C   UNL d   1     -41.332-118.892 -52.994  0.00  0.00     0.002 A 
ATOM     24  C   UNL d   1     -41.402-118.178 -52.547  0.00  0.00     0.000 A 
ATOM     25  C   UNL d   1     -41.334-118.187 -51.726  0.00  0.00     0.000 A 
ATOM     26  C   UNL d   1     -41.192-118.923 -51.326  0.00  0.00     0.000 A 
ATOM     27  C   UNL d   1     -41.123-119.632 -51.773  0.00  0.00     0.002 A 
ENDBRANCH  21  22
ENDBRANCH  20  21
ENDBRANCH   3  20
BRANCH   4  28
ATOM     28  C   UNL d   1     -41.844-122.773 -50.433  0.00  0.00     0.041 A 
ATOM     29  C   UNL d   1     -42.577-123.016 -50.095  0.00  0.00     0.004 A 
ATOM     30  C   UNL d   1     -42.572-123.402 -49.349  0.00  0.00     0.000 A 
ATOM     31  C   UNL d   1     -41.873-123.545 -48.947  0.00  0.00     0.000 A 
ATOM     32  C   UNL d   1     -41.139-123.299 -49.290  0.00  0.00     0.000 A 
ATOM     33  C   UNL d   1     -41.137-122.909 -50.042  0.00  0.00     0.004 A 
ENDBRANCH   4  28
TORSDOF 7
ENDMDL
