MODEL 1
REMARK VINA RESULT:     100.3      0.000      0.000
REMARK  5 active torsions:
REMARK  status: ('A' for Active; 'I' for Inactive)
REMARK       I    between atoms: C_7  and  N_1 
REMARK    1  A    between atoms: C_11  and  C_3 
REMARK    2  A    between atoms: C_14  and  C_5 
REMARK    3  A    between atoms: C_18  and  C_7 
REMARK    4  A    between atoms: C_17  and  O_19 
REMARK    5  A    between atoms: O_19  and  C_18 
ROOT
ATOM      1  N   UNL d   1      58.217  49.678  52.170  0.00  0.00    -0.193 N 
ATOM      2  N   UNL d   1      58.220  49.677  52.995  0.00  0.00    -0.162 NA
ATOM      3  C   UNL d   1      57.431  49.687  53.245  0.00  0.00     0.109 A 
ATOM      4  C   UNL d   1      57.432  49.689  51.916  0.00  0.00     0.088 A 
ATOM      5  C   UNL d   1      56.951  49.694  52.585  0.00  0.00     0.041 A 
ATOM      6  C   UNL d   1      58.829  49.672  51.616  0.00  0.00     0.305 C 
ATOM      7  O   UNL d   1      58.656  49.675  50.809  0.00  0.00    -0.263 OA
ENDROOT
BRANCH   4   8
ATOM      8  C   UNL d   1      57.142  49.693  51.144  0.00  0.00     0.018 A 
ATOM      9  C   UNL d   1      56.332  49.697  51.012  0.00  0.00     0.004 A 
ATOM     10  C   UNL d   1      56.038  49.702  50.237  0.00  0.00     0.030 A 
ATOM     11  C   UNL d   1      56.558  49.703  49.611  0.00  0.00     0.140 A 
ATOM     12  C   UNL d   1      57.377  49.699  49.745  0.00  0.00     0.030 A 
ATOM     13  F   UNL d   1      56.260  49.708  48.836  0.00  0.00    -0.204 F 
ATOM     14  C   UNL d   1      57.665  49.694  50.508  0.00  0.00     0.004 A 
ENDBRANCH   4   8
BRANCH   6  15
ATOM     15  C   UNL d   1      59.614  49.661  51.870  0.00  0.00     0.185 C 
BRANCH  15  16
ATOM     16  O   UNL d   1      60.217  49.473  51.338  0.00  0.00    -0.300 OA
BRANCH  16  17
ATOM     17  C   UNL d   1      60.564  48.725  51.358  0.00  0.00     0.100 A 
ATOM     18  C   UNL d   1      61.067  48.487  50.747  0.00  0.00     0.029 A 
ATOM     19  C   UNL d   1      61.414  47.739  50.766  0.00  0.00     0.059 A 
ATOM     20  C   UNL d   1      61.218  48.997  50.121  0.00  0.00     0.021 A 
ATOM     21  C   UNL d   1      61.914  47.501  50.160  0.00  0.00     0.265 A 
ATOM     22  C   UNL d   1      61.260  47.229  51.396  0.00  0.00     0.005 A 
ATOM     23  O   UNL d   1      62.261  46.753  50.179  0.00  0.00    -0.267 OA
ATOM     24  N   UNL d   1      62.068  48.011  49.530  0.00  0.00    -0.270 N 
ATOM     25  C   UNL d   1      61.721  48.759  49.510  0.00  0.00     0.083 A 
ATOM     26  C   UNL d   1      62.576  47.767  48.915  0.00  0.00     0.102 C 
ATOM     27  C   UNL d   1      60.758  47.466  52.007  0.00  0.00     0.002 A 
ATOM     28  C   UNL d   1      60.410  48.214  51.988  0.00  0.00     0.025 A 
ENDBRANCH  16  17
ENDBRANCH  15  16
ENDBRANCH   6  15
BRANCH   3  29
ATOM     29  C   UNL d   1      57.211  49.688  54.032  0.00  0.00     0.049 A 
ATOM     30  S   UNL d   1      56.418  49.670  54.290  0.00  0.00    -0.085 SA
ATOM     31  C   UNL d   1      56.422  49.678  55.106  0.00  0.00     0.035 A 
ATOM     32  C   UNL d   1      57.204  49.700  55.363  0.00  0.00     0.007 A 
ATOM     33  C   UNL d   1      57.691  49.707  54.702  0.00  0.00     0.009 A 
ENDBRANCH   3  29
TORSDOF 5
ENDMDL
