MODEL 1
REMARK VINA RESULT:     108.4      0.000      0.000
REMARK  6 active torsions:
REMARK  status: ('A' for Active; 'I' for Inactive)
REMARK    1  A    between atoms: S_5  and  C_2 
REMARK    2  A    between atoms: C_15  and  S_5 
REMARK    3  A    between atoms: N_11  and  C_8 
REMARK    4  A    between atoms: C_16  and  N_11 
REMARK    5  A    between atoms: C_17  and  N_12 
REMARK    6  A    between atoms: C_24  and  C_17 
ROOT
ATOM      1  C   UNL d   1     -49.612  27.836  36.596  0.00  0.00     0.197 A 
ATOM      2  C   UNL d   1     -50.050  27.768  37.281  0.00  0.00     0.227 A 
ATOM      3  N   UNL d   1     -49.122  28.498  36.673  0.00  0.00    -0.192 N 
ATOM      4  N   UNL d   1     -49.586  27.383  35.902  0.00  0.00    -0.206 NA
ATOM      5  N   UNL d   1     -49.840  28.379  37.782  0.00  0.00    -0.115 NA
ATOM      6  N   UNL d   1     -49.260  28.837  37.405  0.00  0.00    -0.058 NA
ATOM      7  C   UNL d   1     -49.076  27.592  35.293  0.00  0.00     0.166 A 
ATOM      8  C   UNL d   1     -48.587  28.254  35.370  0.00  0.00     0.054 A 
ATOM      9  C   UNL d   1     -48.609  28.705  36.056  0.00  0.00     0.089 A 
ATOM     10  C   UNL d   1     -48.075  28.462  34.757  0.00  0.00     0.005 A 
ATOM     11  C   UNL d   1     -48.118  29.370  36.134  0.00  0.00     0.019 A 
ATOM     12  C   UNL d   1     -47.584  29.127  34.834  0.00  0.00     0.000 A 
ATOM     13  C   UNL d   1     -47.608  29.579  35.524  0.00  0.00     0.002 A 
ENDROOT
BRANCH   7  14
ATOM     14  N   UNL d   1     -49.060  27.130  34.602  0.00  0.00    -0.227 NA
BRANCH  14  15
ATOM     15  C   UNL d   1     -49.765  26.834  34.276  0.00  0.00     0.086 A 
ATOM     16  C   UNL d   1     -49.901  26.017  34.255  0.00  0.00     0.038 A 
ATOM     17  C   UNL d   1     -50.604  25.726  33.930  0.00  0.00     0.082 A 
ATOM     18  N   UNL d   1     -51.168  26.254  33.629  0.00  0.00    -0.302 N 
ATOM     19  C   UNL d   1     -51.029  27.063  33.652  0.00  0.00     0.082 A 
ATOM     20  C   UNL d   1     -50.326  27.354  33.977  0.00  0.00     0.038 A 
BRANCH  18  21
ATOM     21  C   UNL d   1     -51.869  25.968  33.306  0.00  0.00     0.080 C 
BRANCH  21  22
ATOM     22  C   UNL d   1     -52.070  25.172  33.400  0.00  0.00     0.018 A 
ATOM     23  C   UNL d   1     -51.496  24.591  33.306  0.00  0.00     0.002 A 
ATOM     24  C   UNL d   1     -51.688  23.797  33.399  0.00  0.00     0.000 A 
ATOM     25  C   UNL d   1     -52.473  23.580  33.590  0.00  0.00     0.000 A 
ATOM     26  C   UNL d   1     -53.042  24.167  33.682  0.00  0.00     0.000 A 
ATOM     27  C   UNL d   1     -52.847  24.964  33.589  0.00  0.00     0.002 A 
ENDBRANCH  21  22
ENDBRANCH  18  21
ENDBRANCH  14  15
ENDBRANCH   7  14
BRANCH   2  28
ATOM     28  S   UNL d   1     -50.612  27.183  37.443  0.00  0.00     0.231 S 
ATOM     29  O   UNL d   1     -50.696  27.478  38.212  0.00  0.00    -0.215 OA
ATOM     30  O   UNL d   1     -50.533  26.884  36.679  0.00  0.00    -0.215 OA
BRANCH  28  31
ATOM     31  C   UNL d   1     -51.172  26.603  37.613  0.00  0.00     0.090 A 
ATOM     32  C   UNL d   1     -51.065  26.109  38.256  0.00  0.00     0.011 A 
ATOM     33  C   UNL d   1     -51.625  25.527  38.429  0.00  0.00     0.001 A 
ATOM     34  C   UNL d   1     -52.293  25.443  37.954  0.00  0.00     0.000 A 
ATOM     35  C   UNL d   1     -52.396  25.940  37.312  0.00  0.00     0.001 A 
ATOM     36  C   UNL d   1     -51.839  26.517  37.142  0.00  0.00     0.011 A 
ENDBRANCH  28  31
ENDBRANCH   2  28
TORSDOF 6
ENDMDL
