MODEL 1
REMARK VINA RESULT:      40.4      0.000      0.000
REMARK  3 active torsions:
REMARK  status: ('A' for Active; 'I' for Inactive)
REMARK    1  A    between atoms: N_2  and  S_1 
REMARK    2  A    between atoms: C_3  and  S_1 
REMARK    3  A    between atoms: C_4  and  N_2 
ROOT
ATOM      1  S   UNL d   1      59.255  49.639  49.780  0.00  0.00     0.287 S 
ATOM      2  O   UNL d   1      58.690  49.677  49.174  0.00  0.00    -0.198 OA
ATOM      3  O   UNL d   1      59.854  49.588  49.216  0.00  0.00    -0.198 OA
ENDROOT
BRANCH   1   4
ATOM      4  N   UNL d   1      58.651  49.689  50.340  0.00  0.00    -0.139 NA
BRANCH   4   5
ATOM      5  C   UNL d   1      57.902  49.389  50.180  0.00  0.00     0.175 A 
ATOM      6  N   UNL d   1      57.450  49.049  50.776  0.00  0.00    -0.226 NA
ATOM      7  C   UNL d   1      56.747  48.773  50.599  0.00  0.00     0.083 A 
ATOM      8  C   UNL d   1      56.265  48.423  51.181  0.00  0.00     0.021 C 
ATOM      9  C   UNL d   1      56.446  48.814  49.832  0.00  0.00     0.019 A 
ATOM     10  C   UNL d   1      56.871  49.128  49.294  0.00  0.00     0.005 A 
ATOM     11  C   UNL d   1      57.602  49.430  49.412  0.00  0.00     0.040 A 
ENDBRANCH   4   5
ENDBRANCH   1   4
BRANCH   1  12
ATOM     12  C   UNL d   1      59.813  49.601  50.373  0.00  0.00     0.105 A 
ATOM     13  C   UNL d   1      59.585  49.669  51.163  0.00  0.00     0.013 A 
ATOM     14  C   UNL d   1      60.151  49.631  51.761  0.00  0.00     0.001 A 
ATOM     15  C   UNL d   1      59.924  49.698  52.546  0.00  0.00     0.000 A 
ATOM     16  C   UNL d   1      60.947  49.524  51.570  0.00  0.00     0.000 A 
ATOM     17  C   UNL d   1      60.490  49.660  53.149  0.00  0.00     0.000 A 
ATOM     18  C   UNL d   1      61.291  49.553  52.954  0.00  0.00     0.000 A 
ATOM     19  C   UNL d   1      61.518  49.485  52.169  0.00  0.00     0.000 A 
ATOM     20  C   UNL d   1      61.176  49.456  50.780  0.00  0.00     0.001 A 
ATOM     21  C   UNL d   1      60.608  49.495  50.184  0.00  0.00     0.013 A 
ENDBRANCH   1  12
TORSDOF 3
ENDMDL
MODEL 2
REMARK VINA RESULT:      43.1      1.053      3.743
REMARK  3 active torsions:
REMARK  status: ('A' for Active; 'I' for Inactive)
REMARK    1  A    between atoms: N_2  and  S_1 
REMARK    2  A    between atoms: C_3  and  S_1 
REMARK    3  A    between atoms: C_4  and  N_2 
ROOT
ATOM      1  S   UNL d   1      60.200  49.469  50.218  0.00  0.00     0.287 S 
ATOM      2  O   UNL d   1      60.996  49.408  50.442  0.00  0.00    -0.198 OA
ATOM      3  O   UNL d   1      60.425  49.446  49.424  0.00  0.00    -0.198 OA
ENDROOT
BRANCH   1   4
ATOM      4  N   UNL d   1      59.981  49.491  51.012  0.00  0.00    -0.139 NA
BRANCH   4   5
ATOM      5  C   UNL d   1      60.539  49.374  51.605  0.00  0.00     0.175 A 
ATOM      6  N   UNL d   1      60.375  49.583  52.383  0.00  0.00    -0.226 NA
ATOM      7  C   UNL d   1      60.918  49.463  52.924  0.00  0.00     0.083 A 
ATOM      8  C   UNL d   1      60.782  49.664  53.720  0.00  0.00     0.021 C 
ATOM      9  C   UNL d   1      61.650  49.132  52.737  0.00  0.00     0.019 A 
ATOM     10  C   UNL d   1      61.788  48.945  52.020  0.00  0.00     0.005 A 
ATOM     11  C   UNL d   1      61.272  49.043  51.418  0.00  0.00     0.040 A 
ENDBRANCH   4   5
ENDBRANCH   1   4
BRANCH   1  12
ATOM     12  C   UNL d   1      59.418  49.528  49.992  0.00  0.00     0.105 A 
ATOM     13  C   UNL d   1      58.821  49.522  50.562  0.00  0.00     0.013 A 
ATOM     14  C   UNL d   1      58.032  49.582  50.331  0.00  0.00     0.001 A 
ATOM     15  C   UNL d   1      57.438  49.576  50.897  0.00  0.00     0.000 A 
ATOM     16  C   UNL d   1      57.838  49.648  49.532  0.00  0.00     0.000 A 
ATOM     17  C   UNL d   1      56.644  49.636  50.670  0.00  0.00     0.000 A 
ATOM     18  C   UNL d   1      56.452  49.702  49.864  0.00  0.00     0.000 A 
ATOM     19  C   UNL d   1      57.046  49.708  49.298  0.00  0.00     0.000 A 
ATOM     20  C   UNL d   1      58.435  49.654  48.963  0.00  0.00     0.001 A 
ATOM     21  C   UNL d   1      59.224  49.594  49.195  0.00  0.00     0.013 A 
ENDBRANCH   1  12
TORSDOF 3
ENDMDL
