MODEL 1
REMARK VINA RESULT:      64.9      0.000      0.000
REMARK  6 active torsions:
REMARK  status: ('A' for Active; 'I' for Inactive)
REMARK    1  A    between atoms: S_5  and  C_3 
REMARK    2  A    between atoms: C_16  and  S_5 
REMARK    3  A    between atoms: C_20  and  N_6 
REMARK    4  A    between atoms: N_19  and  C_25 
REMARK    5  A    between atoms: C_24  and  C_20 
REMARK    6  A    between atoms: C_25  and  C_24 
ROOT
ATOM      1  C   UNL d   1      46.290 -17.603  42.976  0.00  0.00     0.155 A 
ATOM      2  C   UNL d   1      46.008 -17.001  42.488  0.00  0.00     0.092 A 
ATOM      3  C   UNL d   1      45.869 -16.148  43.627  0.00  0.00     0.124 A 
ATOM      4  N   UNL d   1      46.502 -18.335  42.648  0.00  0.00    -0.210 NA
ATOM      5  N   UNL d   1      46.362 -17.482  43.781  0.00  0.00    -0.273 N 
ATOM      6  C   UNL d   1      46.151 -16.750  44.115  0.00  0.00     0.181 A 
ATOM      7  C   UNL d   1      45.935 -17.125  41.666  0.00  0.00     0.269 A 
ATOM      8  N   UNL d   1      46.146 -17.853  41.344  0.00  0.00    -0.258 N 
ATOM      9  C   UNL d   1      45.794 -16.264  42.809  0.00  0.00     0.022 A 
ATOM     10  C   UNL d   1      46.431 -18.464  41.834  0.00  0.00     0.152 A 
ATOM     11  N   UNL d   1      46.225 -16.630  44.930  0.00  0.00    -0.128 N 
ATOM     12  C   UNL d   1      46.074 -17.977  40.528  0.00  0.00     0.084 A 
ATOM     13  O   UNL d   1      45.651 -16.515  41.182  0.00  0.00    -0.266 OA
ATOM     14  C   UNL d   1      46.639 -19.185  41.508  0.00  0.00     0.038 A 
ATOM     15  C   UNL d   1      46.286 -18.706  40.211  0.00  0.00     0.019 A 
ATOM     16  C   UNL d   1      46.571 -19.315  40.705  0.00  0.00     0.005 A 
ENDROOT
BRANCH   3  17
ATOM     17  S   UNL d   1      45.660 -15.421  43.959  0.00  0.00     0.213 S 
ATOM     18  O   UNL d   1      45.113 -15.761  44.465  0.00  0.00    -0.217 OA
ATOM     19  O   UNL d   1      46.203 -15.041  43.464  0.00  0.00    -0.217 OA
BRANCH  17  20
ATOM     20  C   UNL d   1      45.454 -14.693  44.289  0.00  0.00     0.088 A 
ATOM     21  C   UNL d   1      44.667 -14.550  44.496  0.00  0.00     0.011 A 
ATOM     22  C   UNL d   1      44.455 -13.828  44.824  0.00  0.00     0.001 A 
ATOM     23  C   UNL d   1      45.027 -13.247  44.947  0.00  0.00     0.000 A 
ATOM     24  C   UNL d   1      45.817 -13.393  44.739  0.00  0.00     0.001 A 
ATOM     25  C   UNL d   1      46.022 -14.120  44.409  0.00  0.00     0.011 A 
ENDBRANCH  17  20
ENDBRANCH   3  17
BRANCH   5  26
ATOM     26  C   UNL d   1      46.645 -18.087  44.272  0.00  0.00     0.085 C 
BRANCH  26  27
ATOM     27  C   UNL d   1      46.166 -18.382  44.875  0.00  0.00     0.038 C 
BRANCH  27  28
ATOM     28  C   UNL d   1      46.036 -19.184  44.942  0.00  0.00     0.082 C 
BRANCH  28  29
ATOM     29  N   UNL d   1      45.458 -19.556  44.487  0.00  0.00    -0.299 N 
ATOM     30  C   UNL d   1      44.678 -19.572  44.750  0.00  0.00     0.107 A 
ATOM     31  C   UNL d   1      44.098 -19.938  44.306  0.00  0.00     0.142 A 
ATOM     32  O   UNL d   1      44.289 -20.295  43.587  0.00  0.00    -0.300 OA
ATOM     33  C   UNL d   1      45.072 -20.284  43.314  0.00  0.00     0.142 A 
ATOM     34  C   UNL d   1      45.661 -19.910  43.770  0.00  0.00     0.107 A 
ENDBRANCH  28  29
ENDBRANCH  27  28
ENDBRANCH  26  27
ENDBRANCH   5  26
TORSDOF 6
ENDMDL
