MODEL 1
REMARK VINA RESULT:       8.8      0.000      0.000
REMARK  6 active torsions:
REMARK  status: ('A' for Active; 'I' for Inactive)
REMARK       I    between atoms: C_2  and  N_1 
REMARK    1  A    between atoms: C_3  and  N_1 
REMARK    2  A    between atoms: C_8  and  C_2 
REMARK    3  A    between atoms: C_4  and  C_9 
REMARK    4  A    between atoms: O_10  and  C_4 
REMARK    5  A    between atoms: O_11  and  C_5 
REMARK    6  A    between atoms: C_9  and  C_8 
ROOT
ATOM      1  N   UNL d   1      44.364 -13.876  44.594  0.00  0.00    -0.320 N 
ATOM      2  C   UNL d   1      44.443 -14.701  44.744  0.00  0.00     0.258 C 
ATOM      3  O   UNL d   1      43.776 -15.164  44.870  0.00  0.00    -0.267 OA
ATOM      4  H   UNL d   1      43.619 -13.531  44.572  0.00  0.00     0.169 HD
ENDROOT
BRANCH   1   5
ATOM      5  C   UNL d   1      45.054 -13.412  44.466  0.00  0.00     0.082 A 
ATOM      6  C   UNL d   1      45.072 -12.871  43.828  0.00  0.00     0.110 A 
ATOM      7  C   UNL d   1      45.752 -12.410  43.698  0.00  0.00     0.026 A 
ATOM      8  C   UNL d   1      46.397 -12.488  44.190  0.00  0.00     0.002 A 
ATOM      9  C   UNL d   1      46.380 -13.022  44.819  0.00  0.00     0.002 A 
ATOM     10  C   UNL d   1      45.717 -13.478  44.955  0.00  0.00     0.019 A 
BRANCH   6  11
ATOM     11  O   UNL d   1      44.410 -12.798  43.331  0.00  0.00    -0.327 OA
ATOM     12  C   UNL d   1      44.469 -12.363  42.632  0.00  0.00     0.181 C 
ENDBRANCH   6  11
ENDBRANCH   1   5
BRANCH   2  13
ATOM     13  C   UNL d   1      45.193 -15.047  44.765  0.00  0.00     0.067 C 
BRANCH  13  14
ATOM     14  C   UNL d   1      45.274 -15.845  44.955  0.00  0.00     0.072 C 
BRANCH  14  15
ATOM     15  C   UNL d   1      45.841 -16.304  44.575  0.00  0.00     0.178 C 
ATOM     16  O   UNL d   1      46.075 -17.025  44.900  0.00  0.00    -0.646 OA
BRANCH  15  17
ATOM     17  O   UNL d   1      46.178 -16.047  43.869  0.00  0.00    -0.773 OA
ATOM     18  H   UNL d   1      46.199 -16.554  43.218  0.00  0.00     0.167 HD
ENDBRANCH  15  17
ENDBRANCH  14  15
ENDBRANCH  13  14
ENDBRANCH   2  13
TORSDOF 6
ENDMDL
MODEL 2
REMARK VINA RESULT:       9.7      1.147      3.118
REMARK  6 active torsions:
REMARK  status: ('A' for Active; 'I' for Inactive)
REMARK       I    between atoms: C_2  and  N_1 
REMARK    1  A    between atoms: C_3  and  N_1 
REMARK    2  A    between atoms: C_8  and  C_2 
REMARK    3  A    between atoms: C_4  and  C_9 
REMARK    4  A    between atoms: O_10  and  C_4 
REMARK    5  A    between atoms: O_11  and  C_5 
REMARK    6  A    between atoms: C_9  and  C_8 
ROOT
ATOM      1  N   UNL d   1      44.463 -13.218  44.237  0.00  0.00    -0.320 N 
ATOM      2  C   UNL d   1      44.456 -12.684  43.587  0.00  0.00     0.258 C 
ATOM      3  O   UNL d   1      43.751 -12.340  43.342  0.00  0.00    -0.267 OA
ATOM      4  H   UNL d   1      43.765 -13.399  44.630  0.00  0.00     0.169 HD
ENDROOT
BRANCH   1   5
ATOM      5  C   UNL d   1      45.192 -13.564  44.479  0.00  0.00     0.082 A 
ATOM      6  C   UNL d   1      45.223 -14.385  44.640  0.00  0.00     0.110 A 
ATOM      7  C   UNL d   1      45.940 -14.731  44.879  0.00  0.00     0.026 A 
ATOM      8  C   UNL d   1      46.609 -14.271  44.955  0.00  0.00     0.002 A 
ATOM      9  C   UNL d   1      46.579 -13.462  44.796  0.00  0.00     0.002 A 
ATOM     10  C   UNL d   1      45.879 -13.113  44.561  0.00  0.00     0.019 A 
BRANCH   6  11
ATOM     11  O   UNL d   1      44.536 -14.846  44.559  0.00  0.00    -0.327 OA
ATOM     12  C   UNL d   1      44.510 -15.601  44.890  0.00  0.00     0.181 C 
ENDBRANCH   6  11
ENDBRANCH   1   5
BRANCH   2  13
ATOM     13  C   UNL d   1      45.160 -12.503  43.193  0.00  0.00     0.067 C 
BRANCH  13  14
ATOM     14  C   UNL d   1      45.140 -12.081  42.485  0.00  0.00     0.072 C 
BRANCH  14  15
ATOM     15  C   UNL d   1      45.479 -12.397  41.807  0.00  0.00     0.178 C 
ATOM     16  O   UNL d   1      46.281 -12.279  41.652  0.00  0.00    -0.646 OA
BRANCH  15  17
ATOM     17  O   UNL d   1      45.023 -12.833  41.278  0.00  0.00    -0.773 OA
ATOM     18  H   UNL d   1      45.288 -12.943  40.504  0.00  0.00     0.167 HD
ENDBRANCH  15  17
ENDBRANCH  14  15
ENDBRANCH  13  14
ENDBRANCH   2  13
TORSDOF 6
ENDMDL
