MODEL 1
REMARK VINA RESULT:      43.1      0.000      0.000
REMARK  6 active torsions:
REMARK  status: ('A' for Active; 'I' for Inactive)
REMARK    1  A    between atoms: C_6  and  N_1 
REMARK    2  A    between atoms: C_13  and  C_6 
REMARK    3  A    between atoms: C_8  and  C_9 
REMARK    4  A    between atoms: C_16  and  C_13 
REMARK    5  A    between atoms: O_14  and  C_16 
REMARK    6  A    between atoms: C_15  and  O_14 
ROOT
ATOM      1  C   UNL d   1      13.364  12.365  -3.050  0.00  0.00     0.237 C 
ATOM      2  O   UNL d   1      13.057  12.048  -3.757  0.00  0.00    -0.283 OA
ENDROOT
BRANCH   1   3
ATOM      3  C   UNL d   1      13.366  11.906  -2.358  0.00  0.00     0.117 C 
BRANCH   3   4
ATOM      4  N   UNL d   1      13.938  12.034  -1.774  0.00  0.00    -0.344 N 
ATOM      5  C   UNL d   1      13.709  12.286  -1.015  0.00  0.00     0.086 A 
ATOM      6  C   UNL d   1      14.277  12.413  -0.434  0.00  0.00     0.035 A 
ATOM      7  C   UNL d   1      13.477  12.536  -0.263  0.00  0.00     0.027 C 
ATOM      8  C   UNL d   1      13.136  12.159  -1.597  0.00  0.00     0.027 C 
ATOM      9  C   UNL d   1      15.081  12.291  -0.602  0.00  0.00     0.191 A 
ATOM     10  C   UNL d   1      15.311  12.038  -1.362  0.00  0.00     0.035 A 
ATOM     11  O   UNL d   1      15.650  12.418  -0.020  0.00  0.00    -0.287 OA
ATOM     12  C   UNL d   1      14.734  11.911  -1.946  0.00  0.00     0.086 A 
ATOM     13  C   UNL d   1      14.166  11.783  -2.527  0.00  0.00     0.027 C 
ATOM     14  C   UNL d   1      15.530  11.788  -2.116  0.00  0.00     0.027 C 
ENDBRANCH   3   4
ENDBRANCH   1   3
BRANCH   1  15
ATOM     15  C   UNL d   1      13.665  13.126  -3.031  0.00  0.00     0.166 C 
BRANCH  15  16
ATOM     16  O   UNL d   1      13.331  13.719  -3.505  0.00  0.00    -0.302 OA
BRANCH  16  17
ATOM     17  C   UNL d   1      13.733  14.444  -3.621  0.00  0.00     0.100 A 
ATOM     18  C   UNL d   1      14.001  14.882  -2.975  0.00  0.00     0.025 A 
ATOM     19  C   UNL d   1      14.396  15.594  -3.096  0.00  0.00     0.005 A 
ATOM     20  C   UNL d   1      14.525  15.874  -3.861  0.00  0.00     0.039 A 
ATOM     21  C   UNL d   1      14.256  15.434  -4.510  0.00  0.00     0.005 A 
ATOM     22  C   UNL d   1      13.859  14.718  -4.387  0.00  0.00     0.025 A 
BRANCH  20  23
ATOM     23  C   UNL d   1      14.921  16.588  -3.971  0.00  0.00     0.196 C 
ATOM     24  O   UNL d   1      15.305  16.959  -3.342  0.00  0.00    -0.287 OA
ATOM     25  C   UNL d   1      14.932  16.933  -4.723  0.00  0.00     0.045 C 
ENDBRANCH  20  23
ENDBRANCH  16  17
ENDBRANCH  15  16
ENDBRANCH   1  15
TORSDOF 6
ENDMDL
MODEL 2
REMARK VINA RESULT:      44.6      1.849      3.074
REMARK  6 active torsions:
REMARK  status: ('A' for Active; 'I' for Inactive)
REMARK    1  A    between atoms: C_6  and  N_1 
REMARK    2  A    between atoms: C_13  and  C_6 
REMARK    3  A    between atoms: C_8  and  C_9 
REMARK    4  A    between atoms: C_16  and  C_13 
REMARK    5  A    between atoms: O_14  and  C_16 
REMARK    6  A    between atoms: C_15  and  O_14 
ROOT
ATOM      1  C   UNL d   1      14.933  12.261  -0.588  0.00  0.00     0.237 C 
ATOM      2  O   UNL d   1      14.564  11.780  -0.016  0.00  0.00    -0.283 OA
ENDROOT
BRANCH   1   3
ATOM      3  C   UNL d   1      15.060  11.967  -1.355  0.00  0.00     0.117 C 
BRANCH   3   4
ATOM      4  N   UNL d   1      14.486  12.070  -1.941  0.00  0.00    -0.344 N 
ATOM      5  C   UNL d   1      14.710  12.321  -2.704  0.00  0.00     0.086 A 
ATOM      6  C   UNL d   1      14.140  12.423  -3.288  0.00  0.00     0.035 A 
ATOM      7  C   UNL d   1      14.937  12.569  -3.457  0.00  0.00     0.027 C 
ATOM      8  C   UNL d   1      15.285  12.218  -2.118  0.00  0.00     0.027 C 
ATOM      9  C   UNL d   1      13.340  12.278  -3.121  0.00  0.00     0.191 A 
ATOM     10  C   UNL d   1      13.116  12.028  -2.359  0.00  0.00     0.035 A 
ATOM     11  O   UNL d   1      12.769  12.381  -3.705  0.00  0.00    -0.287 OA
ATOM     12  C   UNL d   1      13.694  11.925  -1.771  0.00  0.00     0.086 A 
ATOM     13  C   UNL d   1      14.264  11.822  -1.187  0.00  0.00     0.027 C 
ATOM     14  C   UNL d   1      12.901  11.780  -1.602  0.00  0.00     0.027 C 
ENDBRANCH   3   4
ENDBRANCH   1   3
BRANCH   1  15
ATOM     15  C   UNL d   1      15.171  13.022  -0.402  0.00  0.00     0.166 C 
BRANCH  15  16
ATOM     16  O   UNL d   1      14.613  13.633  -0.345  0.00  0.00    -0.302 OA
BRANCH  16  17
ATOM     17  C   UNL d   1      14.850  14.431  -0.425  0.00  0.00     0.100 A 
ATOM     18  C   UNL d   1      14.313  15.004  -0.678  0.00  0.00     0.025 A 
ATOM     19  C   UNL d   1      14.552  15.788  -0.754  0.00  0.00     0.005 A 
ATOM     20  C   UNL d   1      15.328  16.005  -0.577  0.00  0.00     0.039 A 
ATOM     21  C   UNL d   1      15.867  15.429  -0.323  0.00  0.00     0.005 A 
ATOM     22  C   UNL d   1      15.625  14.642  -0.247  0.00  0.00     0.025 A 
BRANCH  20  23
ATOM     23  C   UNL d   1      15.559  16.792  -0.656  0.00  0.00     0.196 C 
ATOM     24  O   UNL d   1      15.126  17.396  -0.298  0.00  0.00    -0.287 OA
ATOM     25  C   UNL d   1      16.233  16.974  -1.100  0.00  0.00     0.045 C 
ENDBRANCH  20  23
ENDBRANCH  16  17
ENDBRANCH  15  16
ENDBRANCH   1  15
TORSDOF 6
ENDMDL
