MODEL 1
REMARK VINA RESULT:      31.7      0.000      0.000
REMARK  3 active torsions:
REMARK  status: ('A' for Active; 'I' for Inactive)
REMARK    1  A    between atoms: C_6  and  N_2 
REMARK    2  A    between atoms: C_7  and  C_6 
REMARK       I    between atoms: N_11  and  C_7 
REMARK    3  A    between atoms: C_14  and  N_11 
ROOT
ATOM      1  S   UNL d   1      13.602  11.956  -1.360  0.00  0.00     0.274 S 
ATOM      2  N   UNL d   1      13.720  11.866  -2.161  0.00  0.00    -0.192 N 
ATOM      3  C   UNL d   1      14.535  11.872  -2.309  0.00  0.00     0.275 A 
ATOM      4  C   UNL d   1      14.907  11.966  -1.586  0.00  0.00     0.069 A 
ATOM      5  C   UNL d   1      14.337  12.017  -1.006  0.00  0.00     0.109 A 
ATOM      6  O   UNL d   1      12.936  11.882  -1.843  0.00  0.00    -0.200 OA
ATOM      7  O   UNL d   1      13.233  12.032  -0.617  0.00  0.00    -0.200 OA
ATOM      8  O   UNL d   1      14.904  11.798  -3.034  0.00  0.00    -0.266 OA
ATOM      9  C   UNL d   1      15.707  12.011  -1.389  0.00  0.00     0.005 A 
ATOM     10  C   UNL d   1      14.556  12.115  -0.217  0.00  0.00     0.013 A 
ATOM     11  C   UNL d   1      15.927  12.109  -0.597  0.00  0.00     0.000 A 
ATOM     12  C   UNL d   1      15.356  12.160  -0.017  0.00  0.00     0.001 A 
ENDROOT
BRANCH   2  13
ATOM     13  C   UNL d   1      13.127  11.783  -2.736  0.00  0.00     0.157 C 
BRANCH  13  14
ATOM     14  C   UNL d   1      13.159  12.237  -3.415  0.00  0.00     0.298 C 
ATOM     15  N   UNL d   1      12.790  12.980  -3.427  0.00  0.00    -0.207 NA
ATOM     16  O   UNL d   1      13.549  11.971  -4.085  0.00  0.00    -0.264 OA
BRANCH  15  17
ATOM     17  C   UNL d   1      12.816  13.446  -4.108  0.00  0.00     0.085 A 
ATOM     18  C   UNL d   1      12.844  14.255  -4.033  0.00  0.00     0.019 A 
ATOM     19  C   UNL d   1      12.871  14.721  -4.715  0.00  0.00     0.002 A 
ATOM     20  C   UNL d   1      12.869  14.370  -5.452  0.00  0.00     0.000 A 
ATOM     21  C   UNL d   1      12.840  13.548  -5.520  0.00  0.00     0.002 A 
ATOM     22  C   UNL d   1      12.814  13.090  -4.856  0.00  0.00     0.019 A 
ENDBRANCH  15  17
ENDBRANCH  13  14
ENDBRANCH   2  13
TORSDOF 3
ENDMDL
