MODEL 1
REMARK VINA RESULT:       8.9      0.000      0.000
REMARK  4 active torsions:
REMARK  status: ('A' for Active; 'I' for Inactive)
REMARK    1  A    between atoms: C_6  and  C_1 
REMARK    2  A    between atoms: C_7  and  C_4 
REMARK    3  A    between atoms: O_10  and  C_6 
REMARK    4  A    between atoms: O_12  and  C_11 
ROOT
ATOM      1  C   UNL d   1      13.296  12.261  -3.284  0.00  0.00     0.173 A 
ATOM      2  N   UNL d   1      12.770  11.803  -2.838  0.00  0.00    -0.121 NA
ATOM      3  C   UNL d   1      13.896  12.523  -2.779  0.00  0.00     0.054 A 
ATOM      4  C   UNL d   1      13.741  12.226  -2.020  0.00  0.00     0.127 A 
ATOM      5  O   UNL d   1      13.045  11.782  -2.062  0.00  0.00    -0.211 OA
ENDROOT
BRANCH   4   6
ATOM      6  C   UNL d   1      14.204  12.355  -1.349  0.00  0.00     0.027 A 
ATOM      7  C   UNL d   1      14.609  13.069  -1.273  0.00  0.00     0.026 A 
ATOM      8  C   UNL d   1      15.069  13.203  -0.609  0.00  0.00     0.094 A 
ATOM      9  C   UNL d   1      15.129  12.626  -0.016  0.00  0.00     0.024 A 
ATOM     10  C   UNL d   1      14.722  11.917  -0.099  0.00  0.00     0.002 A 
ATOM     11  C   UNL d   1      14.259  11.779  -0.763  0.00  0.00     0.002 A 
BRANCH   8  12
ATOM     12  O   UNL d   1      15.480  13.921  -0.526  0.00  0.00    -0.328 OA
ATOM     13  C   UNL d   1      15.148  14.540  -0.088  0.00  0.00     0.181 C 
ENDBRANCH   8  12
ENDBRANCH   4   6
BRANCH   1  14
ATOM     14  C   UNL d   1      13.242  12.433  -4.092  0.00  0.00     0.316 C 
ATOM     15  O   UNL d   1      13.114  13.206  -4.345  0.00  0.00    -0.257 OA
BRANCH  14  16
ATOM     16  O   UNL d   1      13.317  11.819  -4.644  0.00  0.00    -0.294 OA
ATOM     17  C   UNL d   1      13.302  11.989  -5.454  0.00  0.00     0.185 C 
ENDBRANCH  14  16
ENDBRANCH   1  14
TORSDOF 4
ENDMDL
