MODEL 1
REMARK VINA RESULT:      -2.5      0.000      0.000
REMARK  5 active torsions:
REMARK  status: ('A' for Active; 'I' for Inactive)
REMARK    1  A    between atoms: C_2  and  C_1 
REMARK    2  A    between atoms: O_6  and  C_1 
REMARK    3  A    between atoms: C_11  and  O_6 
REMARK    4  A    between atoms: C_12  and  C_11 
REMARK    5  A    between atoms: C_13  and  C_12 
ROOT
ATOM      1  C   UNL d   1      32.331  17.718 -23.631  0.00  0.00     0.064 A 
ATOM      2  C   UNL d   1      31.627  17.770 -24.060  0.00  0.00     0.009 A 
ATOM      3  C   UNL d   1      32.596  16.979 -23.373  0.00  0.00     0.009 A 
ATOM      4  C   UNL d   1      31.449  16.357 -23.978  0.00  0.00     0.196 A 
ATOM      5  C   UNL d   1      31.184  17.096 -24.235  0.00  0.00     0.042 A 
ATOM      6  C   UNL d   1      32.151  16.307 -23.550  0.00  0.00     0.042 A 
ATOM      7  O   UNL d   1      31.021  15.658 -24.141  0.00  0.00    -0.287 OA
ENDROOT
BRANCH   1   8
ATOM      8  C   UNL d   1      32.767  18.403 -23.461  0.00  0.00     0.300 C 
ATOM      9  O   UNL d   1      33.241  18.751 -24.040  0.00  0.00    -0.259 OA
BRANCH   8  10
ATOM     10  O   UNL d   1      32.719  18.729 -22.706  0.00  0.00    -0.271 OA
BRANCH  10  11
ATOM     11  C   UNL d   1      33.031  19.484 -22.577  0.00  0.00     0.126 C 
BRANCH  11  12
ATOM     12  C   UNL d   1      33.092  19.764 -21.802  0.00  0.00     0.027 C 
BRANCH  12  13
ATOM     13  C   UNL d   1      32.999  20.564 -21.650  0.00  0.00     0.002 C 
ATOM     14  C   UNL d   1      33.086  20.851 -20.882  0.00  0.00     0.000 C 
ENDBRANCH  12  13
ENDBRANCH  11  12
ENDBRANCH  10  11
ENDBRANCH   8  10
ENDBRANCH   1   8
TORSDOF 5
ENDMDL
MODEL 2
REMARK VINA RESULT:      -2.4      2.294      5.257
REMARK  5 active torsions:
REMARK  status: ('A' for Active; 'I' for Inactive)
REMARK    1  A    between atoms: C_2  and  C_1 
REMARK    2  A    between atoms: O_6  and  C_1 
REMARK    3  A    between atoms: C_11  and  O_6 
REMARK    4  A    between atoms: C_12  and  C_11 
REMARK    5  A    between atoms: C_13  and  C_12 
ROOT
ATOM      1  C   UNL d   1      32.815  21.965 -21.106  0.00  0.00     0.064 A 
ATOM      2  C   UNL d   1      32.237  22.554 -21.158  0.00  0.00     0.009 A 
ATOM      3  C   UNL d   1      33.241  21.875 -20.404  0.00  0.00     0.009 A 
ATOM      4  C   UNL d   1      32.505  22.963 -19.819  0.00  0.00     0.196 A 
ATOM      5  C   UNL d   1      32.079  23.053 -20.521  0.00  0.00     0.042 A 
ATOM      6  C   UNL d   1      33.080  22.376 -19.769  0.00  0.00     0.042 A 
ATOM      7  O   UNL d   1      32.366  23.454 -19.158  0.00  0.00    -0.287 OA
ENDROOT
BRANCH   1   8
ATOM      8  C   UNL d   1      32.964  21.470 -21.754  0.00  0.00     0.300 C 
ATOM      9  O   UNL d   1      33.240  21.784 -22.466  0.00  0.00    -0.259 OA
BRANCH   8  10
ATOM     10  O   UNL d   1      32.833  20.660 -21.676  0.00  0.00    -0.271 OA
BRANCH  10  11
ATOM     11  C   UNL d   1      33.091  20.154 -22.276  0.00  0.00     0.126 C 
BRANCH  11  12
ATOM     12  C   UNL d   1      32.888  19.354 -22.241  0.00  0.00     0.027 C 
BRANCH  12  13
ATOM     13  C   UNL d   1      33.241  18.821 -22.753  0.00  0.00     0.002 C 
ATOM     14  C   UNL d   1      32.899  18.081 -22.880  0.00  0.00     0.000 C 
ENDBRANCH  12  13
ENDBRANCH  11  12
ENDBRANCH  10  11
ENDBRANCH   8  10
ENDBRANCH   1   8
TORSDOF 5
ENDMDL
MODEL 3
REMARK VINA RESULT:      -2.3      1.715      2.802
REMARK  5 active torsions:
REMARK  status: ('A' for Active; 'I' for Inactive)
REMARK    1  A    between atoms: C_2  and  C_1 
REMARK    2  A    between atoms: O_6  and  C_1 
REMARK    3  A    between atoms: C_11  and  O_6 
REMARK    4  A    between atoms: C_12  and  C_11 
REMARK    5  A    between atoms: C_13  and  C_12 
ROOT
ATOM      1  C   UNL d   1      30.299  16.192 -23.822  0.00  0.00     0.064 A 
ATOM      2  C   UNL d   1      30.059  15.662 -23.235  0.00  0.00     0.009 A 
ATOM      3  C   UNL d   1      29.735  16.518 -24.330  0.00  0.00     0.009 A 
ATOM      4  C   UNL d   1      28.701  15.779 -23.655  0.00  0.00     0.196 A 
ATOM      5  C   UNL d   1      29.266  15.453 -23.148  0.00  0.00     0.042 A 
ATOM      6  C   UNL d   1      28.942  16.307 -24.240  0.00  0.00     0.042 A 
ATOM      7  O   UNL d   1      27.891  15.586 -23.590  0.00  0.00    -0.287 OA
ENDROOT
BRANCH   1   8
ATOM      8  C   UNL d   1      31.100  16.393 -23.900  0.00  0.00     0.300 C 
ATOM      9  O   UNL d   1      31.630  15.871 -24.255  0.00  0.00    -0.259 OA
BRANCH   8  10
ATOM     10  O   UNL d   1      31.356  17.123 -23.615  0.00  0.00    -0.271 OA
BRANCH  10  11
ATOM     11  C   UNL d   1      32.168  17.269 -23.568  0.00  0.00     0.126 C 
BRANCH  11  12
ATOM     12  C   UNL d   1      32.428  18.035 -23.395  0.00  0.00     0.027 C 
BRANCH  12  13
ATOM     13  C   UNL d   1      33.089  18.144 -22.924  0.00  0.00     0.002 C 
ATOM     14  C   UNL d   1      33.241  18.882 -22.590  0.00  0.00     0.000 C 
ENDBRANCH  12  13
ENDBRANCH  11  12
ENDBRANCH  10  11
ENDBRANCH   8  10
ENDBRANCH   1   8
TORSDOF 5
ENDMDL
MODEL 4
REMARK VINA RESULT:      -2.3      1.579      3.839
REMARK  5 active torsions:
REMARK  status: ('A' for Active; 'I' for Inactive)
REMARK    1  A    between atoms: C_2  and  C_1 
REMARK    2  A    between atoms: O_6  and  C_1 
REMARK    3  A    between atoms: C_11  and  O_6 
REMARK    4  A    between atoms: C_12  and  C_11 
REMARK    5  A    between atoms: C_13  and  C_12 
ROOT
ATOM      1  C   UNL d   1      32.173  17.632 -24.015  0.00  0.00     0.064 A 
ATOM      2  C   UNL d   1      32.196  17.914 -24.792  0.00  0.00     0.009 A 
ATOM      3  C   UNL d   1      32.507  18.084 -23.410  0.00  0.00     0.009 A 
ATOM      4  C   UNL d   1      32.880  19.091 -24.366  0.00  0.00     0.196 A 
ATOM      5  C   UNL d   1      32.546  18.639 -24.972  0.00  0.00     0.042 A 
ATOM      6  C   UNL d   1      32.857  18.809 -23.593  0.00  0.00     0.042 A 
ATOM      7  O   UNL d   1      33.241  19.828 -24.520  0.00  0.00    -0.287 OA
ENDROOT
BRANCH   1   8
ATOM      8  C   UNL d   1      31.818  16.902 -23.847  0.00  0.00     0.300 C 
ATOM      9  O   UNL d   1      32.282  16.240 -23.680  0.00  0.00    -0.259 OA
BRANCH   8  10
ATOM     10  O   UNL d   1      30.996  16.848 -23.851  0.00  0.00    -0.271 OA
BRANCH  10  11
ATOM     11  C   UNL d   1      30.642  16.146 -23.597  0.00  0.00     0.126 C 
BRANCH  11  12
ATOM     12  C   UNL d   1      29.826  16.052 -23.694  0.00  0.00     0.027 C 
BRANCH  12  13
ATOM     13  C   UNL d   1      29.425  15.494 -23.247  0.00  0.00     0.002 C 
ATOM     14  C   UNL d   1      28.602  15.458 -23.274  0.00  0.00     0.000 C 
ENDBRANCH  12  13
ENDBRANCH  11  12
ENDBRANCH  10  11
ENDBRANCH   8  10
ENDBRANCH   1   8
TORSDOF 5
ENDMDL
MODEL 5
REMARK VINA RESULT:      -2.1      1.480      4.405
REMARK  5 active torsions:
REMARK  status: ('A' for Active; 'I' for Inactive)
REMARK    1  A    between atoms: C_2  and  C_1 
REMARK    2  A    between atoms: O_6  and  C_1 
REMARK    3  A    between atoms: C_11  and  O_6 
REMARK    4  A    between atoms: C_12  and  C_11 
REMARK    5  A    between atoms: C_13  and  C_12 
ROOT
ATOM      1  C   UNL d   1      32.929  20.680 -21.832  0.00  0.00     0.064 A 
ATOM      2  C   UNL d   1      32.552  21.411 -21.923  0.00  0.00     0.009 A 
ATOM      3  C   UNL d   1      33.240  20.473 -21.096  0.00  0.00     0.009 A 
ATOM      4  C   UNL d   1      32.793  21.728 -20.554  0.00  0.00     0.196 A 
ATOM      5  C   UNL d   1      32.482  21.935 -21.290  0.00  0.00     0.042 A 
ATOM      6  C   UNL d   1      33.168  21.000 -20.465  0.00  0.00     0.042 A 
ATOM      7  O   UNL d   1      32.736  22.240 -19.896  0.00  0.00    -0.287 OA
ENDROOT
BRANCH   1   8
ATOM      8  C   UNL d   1      32.993  20.162 -22.476  0.00  0.00     0.300 C 
ATOM      9  O   UNL d   1      33.241  20.439 -23.212  0.00  0.00    -0.259 OA
BRANCH   8  10
ATOM     10  O   UNL d   1      32.805  19.367 -22.368  0.00  0.00    -0.271 OA
BRANCH  10  11
ATOM     11  C   UNL d   1      32.792  18.867 -23.026  0.00  0.00     0.126 C 
BRANCH  11  12
ATOM     12  C   UNL d   1      32.620  18.066 -22.917  0.00  0.00     0.027 C 
BRANCH  12  13
ATOM     13  C   UNL d   1      32.430  17.599 -23.563  0.00  0.00     0.002 C 
ATOM     14  C   UNL d   1      32.438  16.778 -23.495  0.00  0.00     0.000 C 
ENDBRANCH  12  13
ENDBRANCH  11  12
ENDBRANCH  10  11
ENDBRANCH   8  10
ENDBRANCH   1   8
TORSDOF 5
ENDMDL
MODEL 6
REMARK VINA RESULT:      -2.1      1.516      2.352
REMARK  5 active torsions:
REMARK  status: ('A' for Active; 'I' for Inactive)
REMARK    1  A    between atoms: C_2  and  C_1 
REMARK    2  A    between atoms: O_6  and  C_1 
REMARK    3  A    between atoms: C_11  and  O_6 
REMARK    4  A    between atoms: C_12  and  C_11 
REMARK    5  A    between atoms: C_13  and  C_12 
ROOT
ATOM      1  C   UNL d   1      33.079  19.275 -22.818  0.00  0.00     0.064 A 
ATOM      2  C   UNL d   1      32.917  18.465 -22.841  0.00  0.00     0.009 A 
ATOM      3  C   UNL d   1      33.238  19.677 -23.522  0.00  0.00     0.009 A 
ATOM      4  C   UNL d   1      33.072  18.453 -24.259  0.00  0.00     0.196 A 
ATOM      5  C   UNL d   1      32.913  18.052 -23.555  0.00  0.00     0.042 A 
ATOM      6  C   UNL d   1      33.232  19.261 -24.234  0.00  0.00     0.042 A 
ATOM      7  O   UNL d   1      33.074  18.060 -24.996  0.00  0.00    -0.287 OA
ENDROOT
BRANCH   1   8
ATOM      8  C   UNL d   1      33.081  19.680 -22.094  0.00  0.00     0.300 C 
ATOM      9  O   UNL d   1      33.240  19.278 -21.392  0.00  0.00    -0.259 OA
BRANCH   8  10
ATOM     10  O   UNL d   1      32.921  20.488 -22.089  0.00  0.00    -0.271 OA
BRANCH  10  11
ATOM     11  C   UNL d   1      32.879  20.881 -21.363  0.00  0.00     0.126 C 
BRANCH  11  12
ATOM     12  C   UNL d   1      32.566  21.646 -21.339  0.00  0.00     0.027 C 
BRANCH  12  13
ATOM     13  C   UNL d   1      32.479  22.028 -20.619  0.00  0.00     0.002 C 
ATOM     14  C   UNL d   1      32.414  22.849 -20.593  0.00  0.00     0.000 C 
ENDBRANCH  12  13
ENDBRANCH  11  12
ENDBRANCH  10  11
ENDBRANCH   8  10
ENDBRANCH   1   8
TORSDOF 5
ENDMDL
MODEL 7
REMARK VINA RESULT:      -1.3      1.192      3.867
REMARK  5 active torsions:
REMARK  status: ('A' for Active; 'I' for Inactive)
REMARK    1  A    between atoms: C_2  and  C_1 
REMARK    2  A    between atoms: O_6  and  C_1 
REMARK    3  A    between atoms: C_11  and  O_6 
REMARK    4  A    between atoms: C_12  and  C_11 
REMARK    5  A    between atoms: C_13  and  C_12 
ROOT
ATOM      1  C   UNL d   1      32.773  18.769 -23.255  0.00  0.00     0.064 A 
ATOM      2  C   UNL d   1      33.003  18.592 -22.481  0.00  0.00     0.009 A 
ATOM      3  C   UNL d   1      32.698  19.559 -23.485  0.00  0.00     0.009 A 
ATOM      4  C   UNL d   1      33.084  19.980 -22.165  0.00  0.00     0.196 A 
ATOM      5  C   UNL d   1      33.159  19.190 -21.935  0.00  0.00     0.042 A 
ATOM      6  C   UNL d   1      32.854  20.155 -22.936  0.00  0.00     0.042 A 
ATOM      7  O   UNL d   1      33.235  20.606 -21.633  0.00  0.00    -0.287 OA
ENDROOT
BRANCH   1   8
ATOM      8  C   UNL d   1      32.619  18.159 -23.795  0.00  0.00     0.300 C 
ATOM      9  O   UNL d   1      33.241  17.738 -24.138  0.00  0.00    -0.259 OA
BRANCH   8  10
ATOM     10  O   UNL d   1      31.837  17.979 -23.981  0.00  0.00    -0.271 OA
BRANCH  10  11
ATOM     11  C   UNL d   1      31.683  17.338 -24.480  0.00  0.00     0.126 C 
BRANCH  11  12
ATOM     12  C   UNL d   1      30.918  17.235 -24.775  0.00  0.00     0.027 C 
BRANCH  12  13
ATOM     13  C   UNL d   1      30.632  16.479 -24.911  0.00  0.00     0.002 C 
ATOM     14  C   UNL d   1      29.910  16.247 -24.589  0.00  0.00     0.000 C 
ENDBRANCH  12  13
ENDBRANCH  11  12
ENDBRANCH  10  11
ENDBRANCH   8  10
ENDBRANCH   1   8
TORSDOF 5
ENDMDL
MODEL 8
REMARK VINA RESULT:      -1.2      4.362      7.291
REMARK  5 active torsions:
REMARK  status: ('A' for Active; 'I' for Inactive)
REMARK    1  A    between atoms: C_2  and  C_1 
REMARK    2  A    between atoms: O_6  and  C_1 
REMARK    3  A    between atoms: C_11  and  O_6 
REMARK    4  A    between atoms: C_12  and  C_11 
REMARK    5  A    between atoms: C_13  and  C_12 
ROOT
ATOM      1  C   UNL d   1      32.697  23.130 -18.270  0.00  0.00     0.064 A 
ATOM      2  C   UNL d   1      33.190  22.602 -17.869  0.00  0.00     0.009 A 
ATOM      3  C   UNL d   1      32.248  23.672 -17.839  0.00  0.00     0.009 A 
ATOM      4  C   UNL d   1      32.791  23.150 -16.614  0.00  0.00     0.196 A 
ATOM      5  C   UNL d   1      33.241  22.608 -17.046  0.00  0.00     0.042 A 
ATOM      6  C   UNL d   1      32.301  23.676 -17.016  0.00  0.00     0.042 A 
ATOM      7  O   UNL d   1      32.823  23.179 -15.780  0.00  0.00    -0.287 OA
ENDROOT
BRANCH   1   8
ATOM      8  C   UNL d   1      32.655  23.113 -19.098  0.00  0.00     0.300 C 
ATOM      9  O   UNL d   1      32.248  23.702 -19.507  0.00  0.00    -0.259 OA
BRANCH   8  10
ATOM     10  O   UNL d   1      33.027  22.500 -19.504  0.00  0.00    -0.271 OA
BRANCH  10  11
ATOM     11  C   UNL d   1      32.603  22.092 -20.085  0.00  0.00     0.126 C 
BRANCH  11  12
ATOM     12  C   UNL d   1      33.009  21.790 -20.738  0.00  0.00     0.027 C 
BRANCH  12  13
ATOM     13  C   UNL d   1      32.666  21.203 -21.195  0.00  0.00     0.002 C 
ATOM     14  C   UNL d   1      33.002  20.451 -21.221  0.00  0.00     0.000 C 
ENDBRANCH  12  13
ENDBRANCH  11  12
ENDBRANCH  10  11
ENDBRANCH   8  10
ENDBRANCH   1   8
TORSDOF 5
ENDMDL
MODEL 9
REMARK VINA RESULT:      -0.9      3.402      4.842
REMARK  5 active torsions:
REMARK  status: ('A' for Active; 'I' for Inactive)
REMARK    1  A    between atoms: C_2  and  C_1 
REMARK    2  A    between atoms: O_6  and  C_1 
REMARK    3  A    between atoms: C_11  and  O_6 
REMARK    4  A    between atoms: C_12  and  C_11 
REMARK    5  A    between atoms: C_13  and  C_12 
ROOT
ATOM      1  C   UNL d   1      32.627  21.508 -20.933  0.00  0.00     0.064 A 
ATOM      2  C   UNL d   1      32.428  21.954 -21.600  0.00  0.00     0.009 A 
ATOM      3  C   UNL d   1      33.029  20.794 -21.028  0.00  0.00     0.009 A 
ATOM      4  C   UNL d   1      33.028  20.982 -22.454  0.00  0.00     0.196 A 
ATOM      5  C   UNL d   1      32.625  21.697 -22.359  0.00  0.00     0.042 A 
ATOM      6  C   UNL d   1      33.225  20.539 -21.788  0.00  0.00     0.042 A 
ATOM      7  O   UNL d   1      33.240  20.697 -23.210  0.00  0.00    -0.287 OA
ENDROOT
BRANCH   1   8
ATOM      8  C   UNL d   1      32.423  21.778 -20.176  0.00  0.00     0.300 C 
ATOM      9  O   UNL d   1      31.685  21.600 -19.854  0.00  0.00    -0.259 OA
BRANCH   8  10
ATOM     10  O   UNL d   1      32.969  22.227 -19.752  0.00  0.00    -0.271 OA
BRANCH  10  11
ATOM     11  C   UNL d   1      32.693  22.752 -19.177  0.00  0.00     0.126 C 
BRANCH  11  12
ATOM     12  C   UNL d   1      33.241  23.158 -18.710  0.00  0.00     0.027 C 
BRANCH  12  13
ATOM     13  C   UNL d   1      32.978  23.663 -18.120  0.00  0.00     0.002 C 
ATOM     14  C   UNL d   1      32.866  23.379 -17.354  0.00  0.00     0.000 C 
ENDBRANCH  12  13
ENDBRANCH  11  12
ENDBRANCH  10  11
ENDBRANCH   8  10
ENDBRANCH   1   8
TORSDOF 5
ENDMDL
