MODEL 1
REMARK VINA RESULT:       6.3      0.000      0.000
REMARK  9 active torsions:
REMARK  status: ('A' for Active; 'I' for Inactive)
REMARK    1  A    between atoms: C_7  and  C_1 
REMARK    2  A    between atoms: N_6  and  C_2 
REMARK    3  A    between atoms: C_9  and  C_3 
REMARK       I    between atoms: C_8  and  N_6 
REMARK    4  A    between atoms: O_22  and  C_7 
REMARK    5  A    between atoms: C_11  and  C_8 
REMARK    6  A    between atoms: N_10  and  C_15 
REMARK    7  A    between atoms: C_15  and  C_11 
REMARK    8  A    between atoms: C_21  and  C_12 
REMARK    9  A    between atoms: C_29  and  O_22 
ROOT
ATOM      1  C   UNL d   1      57.198  -0.601  31.390  0.00  0.00     0.088 A 
ATOM      2  C   UNL d   1      57.563  -0.502  30.635  0.00  0.00     0.119 A 
ATOM      3  C   UNL d   1      56.982   0.136  31.647  0.00  0.00     0.014 A 
ATOM      4  S   UNL d   1      57.574   0.255  30.434  0.00  0.00    -0.067 SA
ATOM      5  C   UNL d   1      57.204   0.682  31.071  0.00  0.00     0.037 A 
ENDROOT
BRANCH   3   6
ATOM      6  C   UNL d   1      56.619   0.226  32.353  0.00  0.00     0.001 A 
ATOM      7  C   UNL d   1      55.834   0.386  32.414  0.00  0.00     0.000 A 
ATOM      8  C   UNL d   1      55.464   0.478  33.166  0.00  0.00     0.000 A 
ATOM      9  C   UNL d   1      55.880   0.409  33.813  0.00  0.00     0.000 A 
ATOM     10  C   UNL d   1      56.687   0.245  33.795  0.00  0.00     0.000 A 
ATOM     11  C   UNL d   1      57.096   0.146  33.058  0.00  0.00     0.000 A 
BRANCH   9  12
ATOM     12  C   UNL d   1      55.509   0.500  34.536  0.00  0.00     0.000 A 
ATOM     13  C   UNL d   1      54.687   0.530  34.562  0.00  0.00     0.000 A 
ATOM     14  C   UNL d   1      54.309   0.623  35.289  0.00  0.00     0.000 A 
ATOM     15  C   UNL d   1      54.744   0.682  35.961  0.00  0.00     0.000 A 
ATOM     16  C   UNL d   1      55.575   0.652  35.939  0.00  0.00     0.000 A 
ATOM     17  C   UNL d   1      55.951   0.559  35.207  0.00  0.00     0.000 A 
ENDBRANCH   9  12
ENDBRANCH   3   6
BRANCH   1  18
ATOM     18  C   UNL d   1      57.074  -1.345  31.815  0.00  0.00     0.302 C 
ATOM     19  O   UNL d   1      57.717  -1.697  32.224  0.00  0.00    -0.259 OA
BRANCH  18  20
ATOM     20  O   UNL d   1      56.326  -1.697  31.811  0.00  0.00    -0.271 OA
BRANCH  20  21
ATOM     21  C   UNL d   1      56.221  -2.478  32.154  0.00  0.00     0.126 C 
ATOM     22  C   UNL d   1      55.476  -2.783  32.205  0.00  0.00     0.029 C 
ENDBRANCH  20  21
ENDBRANCH  18  20
ENDBRANCH   1  18
BRANCH   2  23
ATOM     23  N   UNL d   1      57.895  -1.107  30.116  0.00  0.00    -0.201 NA
ATOM     24  C   UNL d   1      58.535  -0.918  29.638  0.00  0.00     0.281 C 
ATOM     25  O   UNL d   1      58.875  -0.128  29.652  0.00  0.00    -0.265 OA
BRANCH  24  26
ATOM     26  C   UNL d   1      58.875  -1.482  29.127  0.00  0.00     0.082 C 
BRANCH  26  27
ATOM     27  C   UNL d   1      59.689  -1.672  29.188  0.00  0.00     0.085 C 
BRANCH  27  28
ATOM     28  N   UNL d   1      59.962  -2.437  29.045  0.00  0.00    -0.299 N 
ATOM     29  C   UNL d   1      60.760  -2.650  29.246  0.00  0.00     0.107 A 
ATOM     30  C   UNL d   1      61.027  -3.417  29.100  0.00  0.00     0.142 A 
ATOM     31  O   UNL d   1      60.517  -3.962  28.763  0.00  0.00    -0.300 OA
ATOM     32  C   UNL d   1      59.703  -3.791  28.544  0.00  0.00     0.142 A 
ATOM     33  C   UNL d   1      59.443  -3.022  28.693  0.00  0.00     0.107 A 
ENDBRANCH  27  28
ENDBRANCH  26  27
ENDBRANCH  24  26
ENDBRANCH   2  23
TORSDOF 9
ENDMDL
MODEL 2
REMARK VINA RESULT:       7.9      1.301      1.828
REMARK  9 active torsions:
REMARK  status: ('A' for Active; 'I' for Inactive)
REMARK    1  A    between atoms: C_7  and  C_1 
REMARK    2  A    between atoms: N_6  and  C_2 
REMARK    3  A    between atoms: C_9  and  C_3 
REMARK       I    between atoms: C_8  and  N_6 
REMARK    4  A    between atoms: O_22  and  C_7 
REMARK    5  A    between atoms: C_11  and  C_8 
REMARK    6  A    between atoms: N_10  and  C_15 
REMARK    7  A    between atoms: C_15  and  C_11 
REMARK    8  A    between atoms: C_21  and  C_12 
REMARK    9  A    between atoms: C_29  and  O_22 
ROOT
ATOM      1  C   UNL d   1      58.286  -0.620  30.124  0.00  0.00     0.088 A 
ATOM      2  C   UNL d   1      58.789  -0.478  29.462  0.00  0.00     0.119 A 
ATOM      3  C   UNL d   1      58.092   0.103  30.434  0.00  0.00     0.014 A 
ATOM      4  S   UNL d   1      58.903   0.291  29.365  0.00  0.00    -0.067 SA
ATOM      5  C   UNL d   1      58.463   0.682  29.980  0.00  0.00     0.037 A 
ENDROOT
BRANCH   3   6
ATOM      6  C   UNL d   1      57.615   0.153  31.074  0.00  0.00     0.001 A 
ATOM      7  C   UNL d   1      57.901   0.298  31.811  0.00  0.00     0.000 A 
ATOM      8  C   UNL d   1      57.386   0.348  32.476  0.00  0.00     0.000 A 
ATOM      9  C   UNL d   1      56.625   0.253  32.385  0.00  0.00     0.000 A 
ATOM     10  C   UNL d   1      56.292   0.103  31.648  0.00  0.00     0.000 A 
ATOM     11  C   UNL d   1      56.776   0.045  30.953  0.00  0.00     0.000 A 
BRANCH   9  12
ATOM     12  C   UNL d   1      56.137   0.304  33.039  0.00  0.00     0.000 A 
ATOM     13  C   UNL d   1      55.326   0.212  32.941  0.00  0.00     0.000 A 
ATOM     14  C   UNL d   1      54.831   0.262  33.598  0.00  0.00     0.000 A 
ATOM     15  C   UNL d   1      55.144   0.400  34.325  0.00  0.00     0.000 A 
ATOM     16  C   UNL d   1      55.964   0.494  34.429  0.00  0.00     0.000 A 
ATOM     17  C   UNL d   1      56.457   0.443  33.766  0.00  0.00     0.000 A 
ENDBRANCH   9  12
ENDBRANCH   3   6
BRANCH   1  18
ATOM     18  C   UNL d   1      58.021  -1.389  30.422  0.00  0.00     0.302 C 
ATOM     19  O   UNL d   1      58.336  -1.680  31.143  0.00  0.00    -0.259 OA
BRANCH  18  20
ATOM     20  O   UNL d   1      57.463  -1.822  29.992  0.00  0.00    -0.271 OA
BRANCH  20  21
ATOM     21  C   UNL d   1      57.723  -2.471  29.492  0.00  0.00     0.126 C 
ATOM     22  C   UNL d   1      57.548  -3.226  29.712  0.00  0.00     0.029 C 
ENDBRANCH  20  21
ENDBRANCH  18  20
ENDBRANCH   1  18
BRANCH   2  23
ATOM     23  N   UNL d   1      59.155  -1.054  28.932  0.00  0.00    -0.201 NA
ATOM     24  C   UNL d   1      59.969  -1.161  28.957  0.00  0.00     0.281 C 
ATOM     25  O   UNL d   1      60.455  -0.706  29.502  0.00  0.00    -0.265 OA
BRANCH  24  26
ATOM     26  C   UNL d   1      60.348  -1.710  28.459  0.00  0.00     0.082 C 
BRANCH  26  27
ATOM     27  C   UNL d   1      61.070  -2.067  28.692  0.00  0.00     0.085 C 
BRANCH  27  28
ATOM     28  N   UNL d   1      61.091  -2.835  28.988  0.00  0.00    -0.299 N 
ATOM     29  C   UNL d   1      61.107  -3.498  28.455  0.00  0.00     0.107 A 
ATOM     30  C   UNL d   1      61.128  -4.265  28.758  0.00  0.00     0.142 A 
ATOM     31  O   UNL d   1      61.133  -4.376  29.569  0.00  0.00    -0.300 OA
ATOM     32  C   UNL d   1      61.118  -3.737  30.145  0.00  0.00     0.142 A 
ATOM     33  C   UNL d   1      61.097  -2.972  29.835  0.00  0.00     0.107 A 
ENDBRANCH  27  28
ENDBRANCH  26  27
ENDBRANCH  24  26
ENDBRANCH   2  23
TORSDOF 9
ENDMDL
