MODEL 1
REMARK VINA RESULT:      -3.5      0.000      0.000
REMARK  5 active torsions:
REMARK  status: ('A' for Active; 'I' for Inactive)
REMARK    1  A    between atoms: C_5  and  C_1 
REMARK    2  A    between atoms: O_8  and  C_5 
REMARK    3  A    between atoms: C_15  and  O_8 
REMARK       I    between atoms: C_9  and  N_11 
REMARK    4  A    between atoms: N_11  and  C_16 
REMARK    5  A    between atoms: O_21  and  C_13 
ROOT
ATOM      1  C   UNL d   1      32.694  18.342 -23.791  0.00  0.00     0.127 A 
ATOM      2  C   UNL d   1      32.027  18.267 -24.274  0.00  0.00     0.305 A 
ATOM      3  O   UNL d   1      31.687  17.517 -24.396  0.00  0.00    -0.271 OA
ATOM      4  C   UNL d   1      33.023  17.675 -23.433  0.00  0.00     0.013 A 
ATOM      5  C   UNL d   1      32.015  16.850 -24.038  0.00  0.00     0.125 A 
ATOM      6  C   UNL d   1      32.683  16.933 -23.557  0.00  0.00     0.025 A 
ATOM      7  O   UNL d   1      31.692  18.925 -24.635  0.00  0.00    -0.259 OA
ATOM      8  C   UNL d   1      31.679  16.117 -24.161  0.00  0.00     0.117 A 
ATOM      9  C   UNL d   1      33.015  16.267 -23.197  0.00  0.00     0.002 A 
ATOM     10  C   UNL d   1      32.672  15.529 -23.324  0.00  0.00     0.002 A 
ATOM     11  C   UNL d   1      32.004  15.454 -23.806  0.00  0.00     0.026 A 
ENDROOT
BRANCH   1  12
ATOM     12  C   UNL d   1      33.027  19.087 -23.673  0.00  0.00     0.305 C 
ATOM     13  O   UNL d   1      33.240  19.545 -24.327  0.00  0.00    -0.259 OA
BRANCH  12  14
ATOM     14  O   UNL d   1      33.147  19.373 -22.907  0.00  0.00    -0.273 OA
BRANCH  14  15
ATOM     15  C   UNL d   1      33.147  20.003 -22.372  0.00  0.00     0.103 A 
ATOM     16  C   UNL d   1      33.239  20.767 -22.652  0.00  0.00     0.026 A 
ATOM     17  C   UNL d   1      33.240  21.400 -22.121  0.00  0.00     0.021 A 
ATOM     18  C   UNL d   1      33.146  21.255 -21.310  0.00  0.00     0.085 A 
ATOM     19  C   UNL d   1      33.054  20.484 -21.041  0.00  0.00     0.021 A 
ATOM     20  C   UNL d   1      33.054  19.857 -21.567  0.00  0.00     0.026 A 
BRANCH  18  21
ATOM     21  N   UNL d   1      33.147  21.887 -20.779  0.00  0.00    -0.208 NA
ATOM     22  C   UNL d   1      32.432  22.233 -20.552  0.00  0.00     0.279 C 
ATOM     23  O   UNL d   1      31.718  21.945 -20.857  0.00  0.00    -0.265 OA
ATOM     24  C   UNL d   1      32.429  22.866 -20.021  0.00  0.00     0.068 C 
ENDBRANCH  18  21
ENDBRANCH  14  15
ENDBRANCH  12  14
ENDBRANCH   1  12
BRANCH   8  25
ATOM     25  O   UNL d   1      31.019  16.047 -24.639  0.00  0.00    -0.326 OA
ATOM     26  C   UNL d   1      30.414  15.523 -24.439  0.00  0.00     0.181 C 
ENDBRANCH   8  25
TORSDOF 5
ENDMDL
MODEL 2
REMARK VINA RESULT:      -2.3      1.348      2.127
REMARK  5 active torsions:
REMARK  status: ('A' for Active; 'I' for Inactive)
REMARK    1  A    between atoms: C_5  and  C_1 
REMARK    2  A    between atoms: O_8  and  C_5 
REMARK    3  A    between atoms: C_15  and  O_8 
REMARK       I    between atoms: C_9  and  N_11 
REMARK    4  A    between atoms: N_11  and  C_16 
REMARK    5  A    between atoms: O_21  and  C_13 
ROOT
ATOM      1  C   UNL d   1      31.719  17.339 -23.873  0.00  0.00     0.127 A 
ATOM      2  C   UNL d   1      31.507  16.578 -23.630  0.00  0.00     0.305 A 
ATOM      3  O   UNL d   1      30.745  16.288 -23.797  0.00  0.00    -0.271 OA
ATOM      4  C   UNL d   1      31.177  17.811 -24.279  0.00  0.00     0.013 A 
ATOM      5  C   UNL d   1      30.202  16.759 -24.203  0.00  0.00     0.125 A 
ATOM      6  C   UNL d   1      30.422  17.519 -24.442  0.00  0.00     0.025 A 
ATOM      7  O   UNL d   1      32.040  16.101 -23.226  0.00  0.00    -0.259 OA
ATOM      8  C   UNL d   1      29.457  16.471 -24.365  0.00  0.00     0.117 A 
ATOM      9  C   UNL d   1      29.881  17.994 -24.849  0.00  0.00     0.002 A 
ATOM     10  C   UNL d   1      29.129  17.699 -25.010  0.00  0.00     0.002 A 
ATOM     11  C   UNL d   1      28.917  16.937 -24.768  0.00  0.00     0.026 A 
ENDROOT
BRANCH   1  12
ATOM     12  C   UNL d   1      32.476  17.622 -23.705  0.00  0.00     0.305 C 
ATOM     13  O   UNL d   1      33.116  17.099 -23.715  0.00  0.00    -0.259 OA
BRANCH  12  14
ATOM     14  O   UNL d   1      32.592  18.421 -23.528  0.00  0.00    -0.273 OA
BRANCH  14  15
ATOM     15  C   UNL d   1      32.755  19.013 -22.974  0.00  0.00     0.103 A 
ATOM     16  C   UNL d   1      32.590  19.793 -23.161  0.00  0.00     0.026 A 
ATOM     17  C   UNL d   1      32.751  20.388 -22.611  0.00  0.00     0.021 A 
ATOM     18  C   UNL d   1      33.079  20.189 -21.876  0.00  0.00     0.085 A 
ATOM     19  C   UNL d   1      33.241  19.402 -21.701  0.00  0.00     0.021 A 
ATOM     20  C   UNL d   1      33.081  18.814 -22.246  0.00  0.00     0.026 A 
BRANCH  18  21
ATOM     21  N   UNL d   1      33.241  20.783 -21.326  0.00  0.00    -0.208 NA
ATOM     22  C   UNL d   1      32.621  21.222 -21.001  0.00  0.00     0.279 C 
ATOM     23  O   UNL d   1      31.840  21.064 -21.228  0.00  0.00    -0.265 OA
ATOM     24  C   UNL d   1      32.779  21.817 -20.451  0.00  0.00     0.068 C 
ENDBRANCH  18  21
ENDBRANCH  14  15
ENDBRANCH  12  14
ENDBRANCH   1  12
BRANCH   8  25
ATOM     25  O   UNL d   1      29.251  15.717 -24.123  0.00  0.00    -0.326 OA
ATOM     26  C   UNL d   1      28.473  15.453 -24.202  0.00  0.00     0.181 C 
ENDBRANCH   8  25
TORSDOF 5
ENDMDL
MODEL 3
REMARK VINA RESULT:      -1.7      1.643      5.396
REMARK  5 active torsions:
REMARK  status: ('A' for Active; 'I' for Inactive)
REMARK    1  A    between atoms: C_5  and  C_1 
REMARK    2  A    between atoms: O_8  and  C_5 
REMARK    3  A    between atoms: C_15  and  O_8 
REMARK       I    between atoms: C_9  and  N_11 
REMARK    4  A    between atoms: N_11  and  C_16 
REMARK    5  A    between atoms: O_21  and  C_13 
ROOT
ATOM      1  C   UNL d   1      33.211  20.946 -22.651  0.00  0.00     0.127 A 
ATOM      2  C   UNL d   1      33.167  21.770 -22.693  0.00  0.00     0.305 A 
ATOM      3  O   UNL d   1      33.147  22.220 -21.993  0.00  0.00    -0.271 OA
ATOM      4  C   UNL d   1      33.236  20.570 -21.916  0.00  0.00     0.013 A 
ATOM      5  C   UNL d   1      33.172  21.845 -21.258  0.00  0.00     0.125 A 
ATOM      6  C   UNL d   1      33.216  21.019 -21.225  0.00  0.00     0.025 A 
ATOM      7  O   UNL d   1      33.142  22.154 -23.419  0.00  0.00    -0.259 OA
ATOM      8  C   UNL d   1      33.152  22.289 -20.575  0.00  0.00     0.117 A 
ATOM      9  C   UNL d   1      33.241  20.640 -20.490  0.00  0.00     0.002 A 
ATOM     10  C   UNL d   1      33.221  21.093 -19.803  0.00  0.00     0.002 A 
ATOM     11  C   UNL d   1      33.177  21.918 -19.845  0.00  0.00     0.026 A 
ENDROOT
BRANCH   1  12
ATOM     12  C   UNL d   1      33.230  20.504 -23.347  0.00  0.00     0.305 C 
ATOM     13  O   UNL d   1      33.241  20.896 -24.075  0.00  0.00    -0.259 OA
BRANCH  12  14
ATOM     14  O   UNL d   1      33.239  19.678 -23.317  0.00  0.00    -0.273 OA
BRANCH  14  15
ATOM     15  C   UNL d   1      33.016  18.950 -23.638  0.00  0.00     0.103 A 
ATOM     16  C   UNL d   1      33.196  18.784 -24.420  0.00  0.00     0.026 A 
ATOM     17  C   UNL d   1      32.975  18.057 -24.744  0.00  0.00     0.021 A 
ATOM     18  C   UNL d   1      32.573  17.504 -24.276  0.00  0.00     0.085 A 
ATOM     19  C   UNL d   1      32.398  17.682 -23.493  0.00  0.00     0.021 A 
ATOM     20  C   UNL d   1      32.617  18.402 -23.171  0.00  0.00     0.026 A 
BRANCH  18  21
ATOM     21  N   UNL d   1      32.352  16.777 -24.600  0.00  0.00    -0.208 NA
ATOM     22  C   UNL d   1      31.555  16.616 -24.741  0.00  0.00     0.279 C 
ATOM     23  O   UNL d   1      30.979  17.184 -24.557  0.00  0.00    -0.265 OA
ATOM     24  C   UNL d   1      31.329  15.891 -25.065  0.00  0.00     0.068 C 
ENDBRANCH  18  21
ENDBRANCH  14  15
ENDBRANCH  12  14
ENDBRANCH   1  12
BRANCH   8  25
ATOM     25  O   UNL d   1      33.109  23.105 -20.621  0.00  0.00    -0.326 OA
ATOM     26  C   UNL d   1      32.940  23.551 -19.949  0.00  0.00     0.181 C 
ENDBRANCH   8  25
TORSDOF 5
ENDMDL
MODEL 4
REMARK VINA RESULT:      -1.7      1.663      5.741
REMARK  5 active torsions:
REMARK  status: ('A' for Active; 'I' for Inactive)
REMARK    1  A    between atoms: C_5  and  C_1 
REMARK    2  A    between atoms: O_8  and  C_5 
REMARK    3  A    between atoms: C_15  and  O_8 
REMARK       I    between atoms: C_9  and  N_11 
REMARK    4  A    between atoms: N_11  and  C_16 
REMARK    5  A    between atoms: O_21  and  C_13 
ROOT
ATOM      1  C   UNL d   1      32.962  20.743 -21.544  0.00  0.00     0.127 A 
ATOM      2  C   UNL d   1      32.883  20.945 -20.746  0.00  0.00     0.305 A 
ATOM      3  O   UNL d   1      32.807  21.745 -20.528  0.00  0.00    -0.271 OA
ATOM      4  C   UNL d   1      32.965  21.332 -22.122  0.00  0.00     0.013 A 
ATOM      5  C   UNL d   1      32.810  22.334 -21.105  0.00  0.00     0.125 A 
ATOM      6  C   UNL d   1      32.889  22.123 -21.901  0.00  0.00     0.025 A 
ATOM      7  O   UNL d   1      32.879  20.366 -20.163  0.00  0.00    -0.259 OA
ATOM      8  C   UNL d   1      32.736  23.116 -20.887  0.00  0.00     0.117 A 
ATOM      9  C   UNL d   1      32.893  22.711 -22.483  0.00  0.00     0.002 A 
ATOM     10  C   UNL d   1      32.817  23.500 -22.258  0.00  0.00     0.002 A 
ATOM     11  C   UNL d   1      32.738  23.702 -21.460  0.00  0.00     0.026 A 
ENDROOT
BRANCH   1  12
ATOM     12  C   UNL d   1      33.037  19.949 -21.755  0.00  0.00     0.305 C 
ATOM     13  O   UNL d   1      33.241  19.393 -21.178  0.00  0.00    -0.259 OA
BRANCH  12  14
ATOM     14  O   UNL d   1      32.910  19.712 -22.537  0.00  0.00    -0.273 OA
BRANCH  14  15
ATOM     15  C   UNL d   1      32.762  19.111 -23.085  0.00  0.00     0.103 A 
ATOM     16  C   UNL d   1      32.140  18.595 -22.957  0.00  0.00     0.026 A 
ATOM     17  C   UNL d   1      31.989  17.994 -23.503  0.00  0.00     0.021 A 
ATOM     18  C   UNL d   1      32.470  17.919 -24.175  0.00  0.00     0.085 A 
ATOM     19  C   UNL d   1      33.092  18.443 -24.292  0.00  0.00     0.021 A 
ATOM     20  C   UNL d   1      33.241  19.039 -23.751  0.00  0.00     0.026 A 
BRANCH  18  21
ATOM     21  N   UNL d   1      32.319  17.318 -24.721  0.00  0.00    -0.208 NA
ATOM     22  C   UNL d   1      32.367  16.528 -24.485  0.00  0.00     0.279 C 
ATOM     23  O   UNL d   1      32.566  16.341 -23.703  0.00  0.00    -0.265 OA
ATOM     24  C   UNL d   1      32.217  15.924 -25.028  0.00  0.00     0.068 C 
ENDBRANCH  18  21
ENDBRANCH  14  15
ENDBRANCH  12  14
ENDBRANCH   1  12
BRANCH   8  25
ATOM     25  O   UNL d   1      32.658  23.313 -20.097  0.00  0.00    -0.326 OA
ATOM     26  C   UNL d   1      31.974  23.685 -19.826  0.00  0.00     0.181 C 
ENDBRANCH   8  25
TORSDOF 5
ENDMDL
MODEL 5
REMARK VINA RESULT:      -1.4      1.888      5.376
REMARK  5 active torsions:
REMARK  status: ('A' for Active; 'I' for Inactive)
REMARK    1  A    between atoms: C_5  and  C_1 
REMARK    2  A    between atoms: O_8  and  C_5 
REMARK    3  A    between atoms: C_15  and  O_8 
REMARK       I    between atoms: C_9  and  N_11 
REMARK    4  A    between atoms: N_11  and  C_16 
REMARK    5  A    between atoms: O_21  and  C_13 
ROOT
ATOM      1  C   UNL d   1      32.796  19.444 -22.951  0.00  0.00     0.127 A 
ATOM      2  C   UNL d   1      33.041  19.178 -22.207  0.00  0.00     0.305 A 
ATOM      3  O   UNL d   1      33.103  19.717 -21.575  0.00  0.00    -0.271 OA
ATOM      4  C   UNL d   1      32.612  20.241 -23.065  0.00  0.00     0.013 A 
ATOM      5  C   UNL d   1      32.919  20.513 -21.689  0.00  0.00     0.125 A 
ATOM      6  C   UNL d   1      32.674  20.771 -22.436  0.00  0.00     0.025 A 
ATOM      7  O   UNL d   1      33.226  18.388 -22.083  0.00  0.00    -0.259 OA
ATOM      8  C   UNL d   1      32.981  21.036 -21.067  0.00  0.00     0.117 A 
ATOM      9  C   UNL d   1      32.489  21.569 -22.554  0.00  0.00     0.002 A 
ATOM     10  C   UNL d   1      32.554  22.094 -21.922  0.00  0.00     0.002 A 
ATOM     11  C   UNL d   1      32.799  21.828 -21.179  0.00  0.00     0.026 A 
ENDROOT
BRANCH   1  12
ATOM     12  C   UNL d   1      32.736  18.908 -23.573  0.00  0.00     0.305 C 
ATOM     13  O   UNL d   1      33.211  19.008 -24.243  0.00  0.00    -0.259 OA
BRANCH  12  14
ATOM     14  O   UNL d   1      32.206  18.275 -23.529  0.00  0.00    -0.273 OA
BRANCH  14  15
ATOM     15  C   UNL d   1      31.693  17.745 -23.904  0.00  0.00     0.103 A 
ATOM     16  C   UNL d   1      31.621  16.983 -23.613  0.00  0.00     0.026 A 
ATOM     17  C   UNL d   1      31.110  16.451 -23.985  0.00  0.00     0.021 A 
ATOM     18  C   UNL d   1      30.676  16.694 -24.648  0.00  0.00     0.085 A 
ATOM     19  C   UNL d   1      30.757  17.462 -24.930  0.00  0.00     0.021 A 
ATOM     20  C   UNL d   1      31.264  17.988 -24.562  0.00  0.00     0.026 A 
BRANCH  18  21
ATOM     21  N   UNL d   1      30.165  16.162 -25.020  0.00  0.00    -0.208 NA
ATOM     22  C   UNL d   1      29.415  16.024 -24.704  0.00  0.00     0.279 C 
ATOM     23  O   UNL d   1      29.178  16.419 -24.015  0.00  0.00    -0.265 OA
ATOM     24  C   UNL d   1      28.901  15.493 -25.073  0.00  0.00     0.068 C 
ENDBRANCH  18  21
ENDBRANCH  14  15
ENDBRANCH  12  14
ENDBRANCH   1  12
BRANCH   8  25
ATOM     25  O   UNL d   1      33.225  20.770 -20.333  0.00  0.00    -0.326 OA
ATOM     26  C   UNL d   1      33.232  21.280 -19.686  0.00  0.00     0.181 C 
ENDBRANCH   8  25
TORSDOF 5
ENDMDL
