MODEL 1
REMARK VINA RESULT:      77.0      0.000      0.000
REMARK  6 active torsions:
REMARK  status: ('A' for Active; 'I' for Inactive)
REMARK    1  A    between atoms: C_11  and  N_4 
REMARK    2  A    between atoms: C_19  and  C_7 
REMARK    3  A    between atoms: C_17  and  C_11 
REMARK    4  A    between atoms: O_21  and  C_16 
REMARK    5  A    between atoms: C_20  and  C_17 
REMARK    6  A    between atoms: C_25  and  C_19 
ROOT
ATOM      1  C   UNL d   1     -50.638  26.697  33.518  0.00  0.00     0.137 A 
ATOM      2  C   UNL d   1     -49.848  26.453  33.520  0.00  0.00     0.192 A 
ATOM      3  C   UNL d   1     -51.244  26.143  33.448  0.00  0.00     0.272 A 
ATOM      4  N   UNL d   1     -51.062  25.344  33.379  0.00  0.00    -0.258 N 
ATOM      5  N   UNL d   1     -49.664  25.658  33.452  0.00  0.00    -0.204 NA
ATOM      6  C   UNL d   1     -50.820  27.500  33.587  0.00  0.00     0.205 A 
ATOM      7  C   UNL d   1     -50.273  25.096  33.381  0.00  0.00     0.152 A 
ATOM      8  C   UNL d   1     -50.222  28.049  33.657  0.00  0.00     0.062 A 
ATOM      9  O   UNL d   1     -49.250  27.010  33.591  0.00  0.00    -0.289 OA
ATOM     10  C   UNL d   1     -49.436  27.810  33.659  0.00  0.00     0.107 A 
ATOM     11  C   UNL d   1     -48.827  28.372  33.730  0.00  0.00     0.049 A 
ATOM     12  C   UNL d   1     -50.409  28.853  33.726  0.00  0.00     0.007 A 
ATOM     13  O   UNL d   1     -52.029  26.390  33.446  0.00  0.00    -0.266 OA
ATOM     14  O   UNL d   1     -51.606  27.739  33.585  0.00  0.00    -0.286 OA
ATOM     15  C   UNL d   1     -49.015  29.168  33.798  0.00  0.00     0.096 A 
ATOM     16  C   UNL d   1     -49.802  29.408  33.796  0.00  0.00     0.024 A 
ENDROOT
BRANCH   4  17
ATOM     17  C   UNL d   1     -51.669  24.790  33.309  0.00  0.00     0.084 C 
BRANCH  17  18
ATOM     18  C   UNL d   1     -52.455  24.999  33.499  0.00  0.00     0.019 C 
BRANCH  18  19
ATOM     19  C   UNL d   1     -52.962  24.436  33.829  0.00  0.00     0.002 A 
ATOM     20  C   UNL d   1     -53.162  23.761  33.387  0.00  0.00     0.000 A 
ATOM     21  C   UNL d   1     -53.674  23.189  33.716  0.00  0.00     0.000 A 
ATOM     22  C   UNL d   1     -53.980  23.295  34.480  0.00  0.00     0.000 A 
ATOM     23  C   UNL d   1     -53.774  23.976  34.917  0.00  0.00     0.000 A 
ATOM     24  C   UNL d   1     -53.267  24.540  34.587  0.00  0.00     0.000 A 
ENDBRANCH  18  19
ENDBRANCH  17  18
ENDBRANCH   4  17
BRANCH   7  25
ATOM     25  C   UNL d   1     -50.086  24.295  33.312  0.00  0.00     0.038 C 
BRANCH  25  26
ATOM     26  C   UNL d   1     -49.656  23.916  33.901  0.00  0.00     0.003 C 
ATOM     27  C   UNL d   1     -49.003  23.466  33.701  0.00  0.00     0.000 C 
ENDBRANCH  25  26
ENDBRANCH   7  25
BRANCH  15  28
ATOM     28  O   UNL d   1     -48.424  29.727  33.869  0.00  0.00    -0.328 OA
ATOM     29  C   UNL d   1     -47.859  29.649  34.462  0.00  0.00     0.181 C 
ENDBRANCH  15  28
TORSDOF 6
ENDMDL
