MODEL 1
REMARK VINA RESULT:      -9.1      0.000      0.000
REMARK  3 active torsions:
REMARK  status: ('A' for Active; 'I' for Inactive)
REMARK    1  A    between atoms: C_4  and  N_1 
REMARK    2  A    between atoms: C_6  and  C_4 
REMARK       I    between atoms: N_8  and  C_6 
REMARK    3  A    between atoms: C_10  and  N_8 
ROOT
ATOM      1  C   UNL d   1      52.790  32.556  53.333  0.00  0.00     0.165 C 
ENDROOT
BRANCH   1   2
ATOM      2  N   UNL d   1      51.982  32.726  53.255  0.00  0.00    -0.204 N 
ATOM      3  N   UNL d   1      51.360  32.184  53.360  0.00  0.00    -0.059 NA
ATOM      4  N   UNL d   1      50.649  32.584  53.231  0.00  0.00    -0.129 NA
ATOM      5  C   UNL d   1      50.824  33.371  53.047  0.00  0.00     0.122 A 
ATOM      6  C   UNL d   1      51.652  33.459  53.062  0.00  0.00     0.104 A 
ATOM      7  C   UNL d   1      50.344  34.015  52.869  0.00  0.00     0.022 A 
ATOM      8  C   UNL d   1      51.992  34.191  52.899  0.00  0.00     0.021 A 
ATOM      9  C   UNL d   1      51.512  34.836  52.721  0.00  0.00     0.002 A 
ATOM     10  C   UNL d   1      50.693  34.748  52.705  0.00  0.00     0.002 A 
ENDBRANCH   1   2
BRANCH   1  11
ATOM     11  C   UNL d   1      53.236  31.908  53.085  0.00  0.00     0.299 C 
ATOM     12  N   UNL d   1      53.908  31.921  53.558  0.00  0.00    -0.207 NA
ATOM     13  O   UNL d   1      52.958  31.423  52.479  0.00  0.00    -0.263 OA
BRANCH  12  14
ATOM     14  C   UNL d   1      54.183  32.408  54.164  0.00  0.00     0.085 A 
ATOM     15  C   UNL d   1      54.740  32.996  53.999  0.00  0.00     0.019 A 
ATOM     16  C   UNL d   1      55.015  33.483  54.605  0.00  0.00     0.002 A 
ATOM     17  C   UNL d   1      55.569  34.069  54.444  0.00  0.00     0.000 C 
ATOM     18  C   UNL d   1      54.732  33.382  55.376  0.00  0.00     0.000 A 
ATOM     19  C   UNL d   1      54.171  32.790  55.540  0.00  0.00     0.002 A 
ATOM     20  C   UNL d   1      53.898  32.305  54.936  0.00  0.00     0.019 A 
ENDBRANCH  12  14
ENDBRANCH   1  11
TORSDOF 3
ENDMDL
MODEL 2
REMARK VINA RESULT:      -8.6      1.658      2.682
REMARK  3 active torsions:
REMARK  status: ('A' for Active; 'I' for Inactive)
REMARK    1  A    between atoms: C_4  and  N_1 
REMARK    2  A    between atoms: C_6  and  C_4 
REMARK       I    between atoms: N_8  and  C_6 
REMARK    3  A    between atoms: C_10  and  N_8 
ROOT
ATOM      1  C   UNL d   1      53.515  32.369  53.548  0.00  0.00     0.165 C 
ENDROOT
BRANCH   1   2
ATOM      2  N   UNL d   1      53.155  33.063  53.826  0.00  0.00    -0.204 N 
ATOM      3  N   UNL d   1      53.335  33.452  54.538  0.00  0.00    -0.059 NA
ATOM      4  N   UNL d   1      52.848  34.116  54.596  0.00  0.00    -0.129 NA
ATOM      5  C   UNL d   1      52.366  34.144  53.925  0.00  0.00     0.122 A 
ATOM      6  C   UNL d   1      52.557  33.489  53.446  0.00  0.00     0.104 A 
ATOM      7  C   UNL d   1      51.783  34.673  53.686  0.00  0.00     0.022 A 
ATOM      8  C   UNL d   1      52.163  33.371  52.734  0.00  0.00     0.021 A 
ATOM      9  C   UNL d   1      51.579  33.900  52.495  0.00  0.00     0.002 A 
ATOM     10  C   UNL d   1      51.390  34.547  52.968  0.00  0.00     0.002 A 
ENDBRANCH   1   2
BRANCH   1  11
ATOM     11  C   UNL d   1      54.307  32.186  53.406  0.00  0.00     0.299 C 
ATOM     12  N   UNL d   1      54.326  31.367  53.341  0.00  0.00    -0.207 NA
ATOM     13  O   UNL d   1      54.868  32.789  53.359  0.00  0.00    -0.263 OA
BRANCH  12  14
ATOM     14  C   UNL d   1      53.763  30.767  53.388  0.00  0.00     0.085 A 
ATOM     15  C   UNL d   1      53.715  30.299  54.069  0.00  0.00     0.019 A 
ATOM     16  C   UNL d   1      53.151  29.699  54.116  0.00  0.00     0.002 A 
ATOM     17  C   UNL d   1      53.102  29.232  54.791  0.00  0.00     0.000 C 
ATOM     18  C   UNL d   1      52.636  29.567  53.483  0.00  0.00     0.000 A 
ATOM     19  C   UNL d   1      52.685  30.039  52.800  0.00  0.00     0.002 A 
ATOM     20  C   UNL d   1      53.247  30.636  52.753  0.00  0.00     0.019 A 
ENDBRANCH  12  14
ENDBRANCH   1  11
TORSDOF 3
ENDMDL
MODEL 3
REMARK VINA RESULT:      -8.5      1.621      3.077
REMARK  3 active torsions:
REMARK  status: ('A' for Active; 'I' for Inactive)
REMARK    1  A    between atoms: C_4  and  N_1 
REMARK    2  A    between atoms: C_6  and  C_4 
REMARK       I    between atoms: N_8  and  C_6 
REMARK    3  A    between atoms: C_10  and  N_8 
ROOT
ATOM      1  C   UNL d   1      53.061  32.079  53.466  0.00  0.00     0.165 C 
ENDROOT
BRANCH   1   2
ATOM      2  N   UNL d   1      52.984  31.308  53.169  0.00  0.00    -0.204 N 
ATOM      3  N   UNL d   1      52.811  31.107  52.381  0.00  0.00    -0.059 NA
ATOM      4  N   UNL d   1      52.786  30.284  52.327  0.00  0.00    -0.129 NA
ATOM      5  C   UNL d   1      52.942  29.970  53.076  0.00  0.00     0.122 A 
ATOM      6  C   UNL d   1      53.065  30.607  53.599  0.00  0.00     0.104 A 
ATOM      7  C   UNL d   1      52.988  29.196  53.351  0.00  0.00     0.022 A 
ATOM      8  C   UNL d   1      53.233  30.463  54.391  0.00  0.00     0.021 A 
ATOM      9  C   UNL d   1      53.280  29.688  54.667  0.00  0.00     0.002 A 
ATOM     10  C   UNL d   1      53.158  29.058  54.149  0.00  0.00     0.002 A 
ENDBRANCH   1   2
BRANCH   1  11
ATOM     11  C   UNL d   1      52.620  32.762  53.330  0.00  0.00     0.299 C 
ATOM     12  N   UNL d   1      53.088  33.376  53.609  0.00  0.00    -0.207 NA
ATOM     13  O   UNL d   1      51.875  32.708  52.979  0.00  0.00    -0.263 OA
BRANCH  12  14
ATOM     14  C   UNL d   1      53.833  33.425  53.960  0.00  0.00     0.085 A 
ATOM     15  C   UNL d   1      53.897  33.490  54.782  0.00  0.00     0.019 A 
ATOM     16  C   UNL d   1      54.642  33.540  55.132  0.00  0.00     0.002 A 
ATOM     17  C   UNL d   1      54.709  33.605  55.950  0.00  0.00     0.000 C 
ATOM     18  C   UNL d   1      55.322  33.524  54.661  0.00  0.00     0.000 A 
ATOM     19  C   UNL d   1      55.254  33.458  53.835  0.00  0.00     0.002 A 
ATOM     20  C   UNL d   1      54.513  33.409  53.486  0.00  0.00     0.019 A 
ENDBRANCH  12  14
ENDBRANCH   1  11
TORSDOF 3
ENDMDL
MODEL 4
REMARK VINA RESULT:      -8.4      1.682      3.844
REMARK  3 active torsions:
REMARK  status: ('A' for Active; 'I' for Inactive)
REMARK    1  A    between atoms: C_4  and  N_1 
REMARK    2  A    between atoms: C_6  and  C_4 
REMARK       I    between atoms: N_8  and  C_6 
REMARK    3  A    between atoms: C_10  and  N_8 
ROOT
ATOM      1  C   UNL d   1      52.922  33.041  53.733  0.00  0.00     0.165 C 
ENDROOT
BRANCH   1   2
ATOM      2  N   UNL d   1      53.400  32.367  53.649  0.00  0.00    -0.204 N 
ATOM      3  N   UNL d   1      54.229  32.350  53.704  0.00  0.00    -0.059 NA
ATOM      4  N   UNL d   1      54.477  31.571  53.585  0.00  0.00    -0.129 NA
ATOM      5  C   UNL d   1      53.807  31.103  53.458  0.00  0.00     0.122 A 
ATOM      6  C   UNL d   1      53.138  31.598  53.497  0.00  0.00     0.104 A 
ATOM      7  C   UNL d   1      53.717  30.299  53.312  0.00  0.00     0.022 A 
ATOM      8  C   UNL d   1      52.386  31.282  53.390  0.00  0.00     0.021 A 
ATOM      9  C   UNL d   1      52.295  30.477  53.244  0.00  0.00     0.002 A 
ATOM     10  C   UNL d   1      52.957  29.988  53.205  0.00  0.00     0.002 A 
ENDBRANCH   1   2
BRANCH   1  11
ATOM     11  C   UNL d   1      52.984  33.692  54.235  0.00  0.00     0.299 C 
ATOM     12  N   UNL d   1      52.495  34.262  53.902  0.00  0.00    -0.207 NA
ATOM     13  O   UNL d   1      53.469  33.655  54.901  0.00  0.00    -0.263 OA
BRANCH  12  14
ATOM     14  C   UNL d   1      52.011  34.295  53.235  0.00  0.00     0.085 A 
ATOM     15  C   UNL d   1      51.192  34.222  53.317  0.00  0.00     0.019 A 
ATOM     16  C   UNL d   1      50.708  34.255  52.649  0.00  0.00     0.002 A 
ATOM     17  C   UNL d   1      49.892  34.183  52.728  0.00  0.00     0.000 C 
ATOM     18  C   UNL d   1      51.044  34.361  51.901  0.00  0.00     0.000 A 
ATOM     19  C   UNL d   1      51.869  34.434  51.821  0.00  0.00     0.002 A 
ATOM     20  C   UNL d   1      52.350  34.401  52.486  0.00  0.00     0.019 A 
ENDBRANCH  12  14
ENDBRANCH   1  11
TORSDOF 3
ENDMDL
MODEL 5
REMARK VINA RESULT:      -8.3      0.798      3.649
REMARK  3 active torsions:
REMARK  status: ('A' for Active; 'I' for Inactive)
REMARK    1  A    between atoms: C_4  and  N_1 
REMARK    2  A    between atoms: C_6  and  C_4 
REMARK       I    between atoms: N_8  and  C_6 
REMARK    3  A    between atoms: C_10  and  N_8 
ROOT
ATOM      1  C   UNL d   1      53.114  32.529  53.450  0.00  0.00     0.165 C 
ENDROOT
BRANCH   1   2
ATOM      2  N   UNL d   1      53.898  32.750  53.603  0.00  0.00    -0.204 N 
ATOM      3  N   UNL d   1      54.543  32.642  53.090  0.00  0.00    -0.059 NA
ATOM      4  N   UNL d   1      55.218  32.940  53.460  0.00  0.00    -0.129 NA
ATOM      5  C   UNL d   1      54.998  33.234  54.201  0.00  0.00     0.122 A 
ATOM      6  C   UNL d   1      54.178  33.116  54.290  0.00  0.00     0.104 A 
ATOM      7  C   UNL d   1      55.431  33.591  54.803  0.00  0.00     0.022 A 
ATOM      8  C   UNL d   1      53.800  33.356  54.980  0.00  0.00     0.021 A 
ATOM      9  C   UNL d   1      54.232  33.713  55.583  0.00  0.00     0.002 A 
ATOM     10  C   UNL d   1      55.043  33.830  55.495  0.00  0.00     0.002 A 
ENDBRANCH   1   2
BRANCH   1  11
ATOM     11  C   UNL d   1      52.797  31.849  53.107  0.00  0.00     0.299 C 
ATOM     12  N   UNL d   1      52.056  32.076  52.834  0.00  0.00    -0.207 NA
ATOM     13  O   UNL d   1      53.233  31.149  53.102  0.00  0.00    -0.263 OA
BRANCH  12  14
ATOM     14  C   UNL d   1      51.624  32.777  52.841  0.00  0.00     0.085 A 
ATOM     15  C   UNL d   1      51.713  33.322  52.225  0.00  0.00     0.019 A 
ATOM     16  C   UNL d   1      51.280  34.025  52.232  0.00  0.00     0.002 A 
ATOM     17  C   UNL d   1      51.367  34.568  51.621  0.00  0.00     0.000 C 
ATOM     18  C   UNL d   1      50.759  34.181  52.855  0.00  0.00     0.000 A 
ATOM     19  C   UNL d   1      50.671  33.632  53.473  0.00  0.00     0.002 A 
ATOM     20  C   UNL d   1      51.102  32.933  53.466  0.00  0.00     0.019 A 
ENDBRANCH  12  14
ENDBRANCH   1  11
TORSDOF 3
ENDMDL
MODEL 6
REMARK VINA RESULT:      -8.2      1.681      3.293
REMARK  3 active torsions:
REMARK  status: ('A' for Active; 'I' for Inactive)
REMARK    1  A    between atoms: C_4  and  N_1 
REMARK    2  A    between atoms: C_6  and  C_4 
REMARK       I    between atoms: N_8  and  C_6 
REMARK    3  A    between atoms: C_10  and  N_8 
ROOT
ATOM      1  C   UNL d   1      53.019  32.357  53.395  0.00  0.00     0.165 C 
ENDROOT
BRANCH   1   2
ATOM      2  N   UNL d   1      53.059  33.018  53.894  0.00  0.00    -0.204 N 
ATOM      3  N   UNL d   1      52.426  33.524  54.082  0.00  0.00    -0.059 NA
ATOM      4  N   UNL d   1      52.709  34.107  54.594  0.00  0.00    -0.129 NA
ATOM      5  C   UNL d   1      53.513  33.968  54.727  0.00  0.00     0.122 A 
ATOM      6  C   UNL d   1      53.731  33.292  54.292  0.00  0.00     0.104 A 
ATOM      7  C   UNL d   1      54.073  34.363  55.182  0.00  0.00     0.022 A 
ATOM      8  C   UNL d   1      54.506  33.018  54.317  0.00  0.00     0.021 A 
ATOM      9  C   UNL d   1      55.067  33.413  54.772  0.00  0.00     0.002 A 
ATOM     10  C   UNL d   1      54.851  34.082  55.202  0.00  0.00     0.002 A 
ENDBRANCH   1   2
BRANCH   1  11
ATOM     11  C   UNL d   1      52.583  32.219  52.708  0.00  0.00     0.299 C 
ATOM     12  N   UNL d   1      52.607  31.404  52.604  0.00  0.00    -0.207 NA
ATOM     13  O   UNL d   1      52.243  32.851  52.301  0.00  0.00    -0.263 OA
BRANCH  12  14
ATOM     14  C   UNL d   1      52.948  30.776  53.013  0.00  0.00     0.085 A 
ATOM     15  C   UNL d   1      52.499  30.350  53.562  0.00  0.00     0.019 A 
ATOM     16  C   UNL d   1      52.841  29.721  53.972  0.00  0.00     0.002 A 
ATOM     17  C   UNL d   1      52.396  29.295  54.518  0.00  0.00     0.000 C 
ATOM     18  C   UNL d   1      53.630  29.518  53.833  0.00  0.00     0.000 A 
ATOM     19  C   UNL d   1      54.080  29.948  53.280  0.00  0.00     0.002 A 
ATOM     20  C   UNL d   1      53.740  30.574  52.872  0.00  0.00     0.019 A 
ENDBRANCH  12  14
ENDBRANCH   1  11
TORSDOF 3
ENDMDL
MODEL 7
REMARK VINA RESULT:      -7.2      1.835      2.130
REMARK  3 active torsions:
REMARK  status: ('A' for Active; 'I' for Inactive)
REMARK    1  A    between atoms: C_4  and  N_1 
REMARK    2  A    between atoms: C_6  and  C_4 
REMARK       I    between atoms: N_8  and  C_6 
REMARK    3  A    between atoms: C_10  and  N_8 
ROOT
ATOM      1  C   UNL d   1      52.614  34.714  53.928  0.00  0.00     0.165 C 
ENDROOT
BRANCH   1   2
ATOM      2  N   UNL d   1      51.818  34.770  53.701  0.00  0.00    -0.204 N 
ATOM      3  N   UNL d   1      51.205  35.098  54.157  0.00  0.00    -0.059 NA
ATOM      4  N   UNL d   1      50.505  35.041  53.723  0.00  0.00    -0.129 NA
ATOM      5  C   UNL d   1      50.678  34.679  53.000  0.00  0.00     0.122 A 
ATOM      6  C   UNL d   1      51.494  34.511  52.986  0.00  0.00     0.104 A 
ATOM      7  C   UNL d   1      50.206  34.482  52.356  0.00  0.00     0.022 A 
ATOM      8  C   UNL d   1      51.828  34.147  52.329  0.00  0.00     0.021 A 
ATOM      9  C   UNL d   1      51.356  33.949  51.684  0.00  0.00     0.002 A 
ATOM     10  C   UNL d   1      50.549  34.115  51.697  0.00  0.00     0.002 A 
ENDBRANCH   1   2
BRANCH   1  11
ATOM     11  C   UNL d   1      53.100  35.236  54.342  0.00  0.00     0.299 C 
ATOM     12  N   UNL d   1      53.713  34.771  54.630  0.00  0.00    -0.207 NA
ATOM     13  O   UNL d   1      52.904  36.036  54.385  0.00  0.00    -0.263 OA
BRANCH  12  14
ATOM     14  C   UNL d   1      53.906  33.971  54.585  0.00  0.00     0.085 A 
ATOM     15  C   UNL d   1      54.358  33.692  53.952  0.00  0.00     0.019 A 
ATOM     16  C   UNL d   1      54.551  32.891  53.906  0.00  0.00     0.002 A 
ATOM     17  C   UNL d   1      55.001  32.611  53.277  0.00  0.00     0.000 C 
ATOM     18  C   UNL d   1      54.291  32.371  54.494  0.00  0.00     0.000 A 
ATOM     19  C   UNL d   1      53.837  32.654  55.130  0.00  0.00     0.002 A 
ATOM     20  C   UNL d   1      53.645  33.450  55.176  0.00  0.00     0.019 A 
ENDBRANCH  12  14
ENDBRANCH   1  11
TORSDOF 3
ENDMDL
