MODEL 1
REMARK VINA RESULT:      -2.4      0.000      0.000
REMARK  2 active torsions:
REMARK  status: ('A' for Active; 'I' for Inactive)
REMARK       I    between atoms: C_6  and  N_7 
REMARK    1  A    between atoms: C_9  and  C_6 
REMARK    2  A    between atoms: N_7  and  C_13 
ROOT
ATOM      1  N   UNL d   1      57.705   0.671  31.806  0.00  0.00    -0.169 NA
ATOM      2  C   UNL d   1      58.520   0.673  31.711  0.00  0.00     0.282 A 
ATOM      3  C   UNL d   1      57.360   0.671  31.063  0.00  0.00     0.282 A 
ATOM      4  C   UNL d   1      58.681   0.675  30.896  0.00  0.00     0.064 A 
ATOM      5  C   UNL d   1      57.962   0.674  30.505  0.00  0.00     0.063 A 
ATOM      6  C   UNL d   1      57.949   0.675  29.678  0.00  0.00     0.006 A 
ATOM      7  C   UNL d   1      59.394   0.678  30.478  0.00  0.00     0.024 A 
ATOM      8  O   UNL d   1      59.067   0.673  32.327  0.00  0.00    -0.265 OA
ATOM      9  O   UNL d   1      56.553   0.669  30.897  0.00  0.00    -0.265 OA
ATOM     10  C   UNL d   1      59.379   0.679  29.658  0.00  0.00     0.085 A 
ATOM     11  C   UNL d   1      58.656   0.678  29.253  0.00  0.00     0.019 A 
ENDROOT
BRANCH  10  12
ATOM     12  N   UNL d   1      60.091   0.682  29.240  0.00  0.00    -0.208 NA
ATOM     13  C   UNL d   1      60.360  -0.009  28.886  0.00  0.00     0.279 C 
ATOM     14  O   UNL d   1      61.069  -0.002  28.471  0.00  0.00    -0.265 OA
BRANCH  13  15
ATOM     15  C   UNL d   1      59.929  -0.700  28.944  0.00  0.00     0.058 A 
ATOM     16  C   UNL d   1      60.146  -1.265  29.506  0.00  0.00     0.005 A 
ATOM     17  C   UNL d   1      59.720  -1.964  29.573  0.00  0.00     0.000 A 
ATOM     18  C   UNL d   1      59.068  -2.104  29.074  0.00  0.00     0.000 A 
ATOM     19  C   UNL d   1      58.855  -1.535  28.514  0.00  0.00     0.000 A 
ATOM     20  C   UNL d   1      58.632  -2.809  29.137  0.00  0.00     0.000 C 
ATOM     21  C   UNL d   1      59.289  -0.838  28.455  0.00  0.00     0.005 A 
ENDBRANCH  13  15
ENDBRANCH  10  12
TORSDOF 2
ENDMDL
MODEL 2
REMARK VINA RESULT:      -1.9      9.094     10.459
REMARK  2 active torsions:
REMARK  status: ('A' for Active; 'I' for Inactive)
REMARK       I    between atoms: C_6  and  N_7 
REMARK    1  A    between atoms: C_9  and  C_6 
REMARK    2  A    between atoms: N_7  and  C_13 
ROOT
ATOM      1  N   UNL d   1      58.808  -9.565  32.131  0.00  0.00    -0.169 NA
ATOM      2  C   UNL d   1      59.572  -9.574  32.432  0.00  0.00     0.282 A 
ATOM      3  C   UNL d   1      58.285  -9.639  32.758  0.00  0.00     0.282 A 
ATOM      4  C   UNL d   1      59.519  -9.654  33.257  0.00  0.00     0.064 A 
ATOM      5  C   UNL d   1      58.725  -9.694  33.449  0.00  0.00     0.063 A 
ATOM      6  C   UNL d   1      58.501  -9.775  34.240  0.00  0.00     0.006 A 
ATOM      7  C   UNL d   1      60.101  -9.695  33.842  0.00  0.00     0.024 A 
ATOM      8  O   UNL d   1      60.257  -9.512  31.979  0.00  0.00    -0.265 OA
ATOM      9  O   UNL d   1      57.462  -9.656  32.710  0.00  0.00    -0.265 OA
ATOM     10  C   UNL d   1      59.878  -9.776  34.627  0.00  0.00     0.085 A 
ATOM     11  C   UNL d   1      59.076  -9.817  34.831  0.00  0.00     0.019 A 
ENDROOT
BRANCH  10  12
ATOM     12  N   UNL d   1      60.459  -9.817  35.212  0.00  0.00    -0.208 NA
ATOM     13  C   UNL d   1      60.553  -9.195  35.739  0.00  0.00     0.279 C 
ATOM     14  O   UNL d   1      61.133  -9.239  36.320  0.00  0.00    -0.265 OA
BRANCH  13  15
ATOM     15  C   UNL d   1      60.076  -8.534  35.691  0.00  0.00     0.058 A 
ATOM     16  C   UNL d   1      60.311  -7.900  35.216  0.00  0.00     0.005 A 
ATOM     17  C   UNL d   1      59.839  -7.231  35.159  0.00  0.00     0.000 A 
ATOM     18  C   UNL d   1      59.121  -7.190  35.581  0.00  0.00     0.000 A 
ATOM     19  C   UNL d   1      58.891  -7.826  36.054  0.00  0.00     0.000 A 
ATOM     20  C   UNL d   1      58.639  -6.515  35.528  0.00  0.00     0.000 C 
ATOM     21  C   UNL d   1      59.372  -8.493  36.104  0.00  0.00     0.005 A 
ENDBRANCH  13  15
ENDBRANCH  10  12
TORSDOF 2
ENDMDL
MODEL 3
REMARK VINA RESULT:      -1.1      1.837      3.311
REMARK  2 active torsions:
REMARK  status: ('A' for Active; 'I' for Inactive)
REMARK       I    between atoms: C_6  and  N_7 
REMARK    1  A    between atoms: C_9  and  C_6 
REMARK    2  A    between atoms: N_7  and  C_13 
ROOT
ATOM      1  N   UNL d   1      59.408  -3.841  29.343  0.00  0.00    -0.169 NA
ATOM      2  C   UNL d   1      60.094  -3.417  29.494  0.00  0.00     0.282 A 
ATOM      3  C   UNL d   1      58.890  -3.353  28.937  0.00  0.00     0.282 A 
ATOM      4  C   UNL d   1      59.998  -2.655  29.177  0.00  0.00     0.064 A 
ATOM      5  C   UNL d   1      59.254  -2.625  28.836  0.00  0.00     0.063 A 
ATOM      6  C   UNL d   1      59.002  -1.926  28.473  0.00  0.00     0.006 A 
ATOM      7  C   UNL d   1      60.500  -2.000  29.163  0.00  0.00     0.024 A 
ATOM      8  O   UNL d   1      60.752  -3.712  29.892  0.00  0.00    -0.265 OA
ATOM      9  O   UNL d   1      58.134  -3.551  28.674  0.00  0.00    -0.265 OA
ATOM     10  C   UNL d   1      60.249  -1.308  28.802  0.00  0.00     0.085 A 
ATOM     11  C   UNL d   1      59.498  -1.267  28.455  0.00  0.00     0.019 A 
ENDROOT
BRANCH  10  12
ATOM     12  N   UNL d   1      60.751  -0.652  28.789  0.00  0.00    -0.208 NA
ATOM     13  C   UNL d   1      60.542   0.032  29.193  0.00  0.00     0.279 C 
ATOM     14  O   UNL d   1      61.044   0.682  29.176  0.00  0.00    -0.265 OA
BRANCH  13  15
ATOM     15  C   UNL d   1      59.841   0.070  29.609  0.00  0.00     0.058 A 
ATOM     16  C   UNL d   1      59.835  -0.131  30.411  0.00  0.00     0.005 A 
ATOM     17  C   UNL d   1      59.136  -0.097  30.840  0.00  0.00     0.000 A 
ATOM     18  C   UNL d   1      58.430   0.141  30.467  0.00  0.00     0.000 A 
ATOM     19  C   UNL d   1      58.440   0.340  29.665  0.00  0.00     0.000 A 
ATOM     20  C   UNL d   1      57.718   0.177  30.895  0.00  0.00     0.000 C 
ATOM     21  C   UNL d   1      59.147   0.302  29.245  0.00  0.00     0.005 A 
ENDBRANCH  13  15
ENDBRANCH  10  12
TORSDOF 2
ENDMDL
MODEL 4
REMARK VINA RESULT:       0.2      1.608      2.464
REMARK  2 active torsions:
REMARK  status: ('A' for Active; 'I' for Inactive)
REMARK       I    between atoms: C_6  and  N_7 
REMARK    1  A    between atoms: C_9  and  C_6 
REMARK    2  A    between atoms: N_7  and  C_13 
ROOT
ATOM      1  N   UNL d   1      56.688  -0.648  32.964  0.00  0.00    -0.169 NA
ATOM      2  C   UNL d   1      56.633  -1.058  32.254  0.00  0.00     0.282 A 
ATOM      3  C   UNL d   1      57.062   0.067  32.818  0.00  0.00     0.282 A 
ATOM      4  C   UNL d   1      56.977  -0.588  31.662  0.00  0.00     0.064 A 
ATOM      5  C   UNL d   1      57.238   0.101  32.017  0.00  0.00     0.063 A 
ATOM      6  C   UNL d   1      57.609   0.680  31.558  0.00  0.00     0.006 A 
ATOM      7  C   UNL d   1      57.078  -0.715  30.852  0.00  0.00     0.024 A 
ATOM      8  O   UNL d   1      56.292  -1.802  32.166  0.00  0.00    -0.265 OA
ATOM      9  O   UNL d   1      57.233   0.652  33.372  0.00  0.00    -0.265 OA
ATOM     10  C   UNL d   1      57.446  -0.140  30.397  0.00  0.00     0.085 A 
ATOM     11  C   UNL d   1      57.713   0.562  30.748  0.00  0.00     0.019 A 
ENDROOT
BRANCH  10  12
ATOM     12  N   UNL d   1      57.547  -0.266  29.587  0.00  0.00    -0.208 NA
ATOM     13  C   UNL d   1      58.303  -0.284  29.267  0.00  0.00     0.279 C 
ATOM     14  O   UNL d   1      58.399  -0.410  28.461  0.00  0.00    -0.265 OA
BRANCH  13  15
ATOM     15  C   UNL d   1      58.957  -0.178  29.744  0.00  0.00     0.058 A 
ATOM     16  C   UNL d   1      59.308  -0.836  30.101  0.00  0.00     0.005 A 
ATOM     17  C   UNL d   1      59.967  -0.742  30.582  0.00  0.00     0.000 A 
ATOM     18  C   UNL d   1      60.283   0.018  30.711  0.00  0.00     0.000 A 
ATOM     19  C   UNL d   1      59.929   0.672  30.352  0.00  0.00     0.000 A 
ATOM     20  C   UNL d   1      60.950   0.121  31.197  0.00  0.00     0.000 C 
ATOM     21  C   UNL d   1      59.269   0.566  29.872  0.00  0.00     0.005 A 
ENDBRANCH  13  15
ENDBRANCH  10  12
TORSDOF 2
ENDMDL
