MODEL 1
REMARK VINA RESULT:      -7.8      0.000      0.000
REMARK  2 active torsions:
REMARK  status: ('A' for Active; 'I' for Inactive)
REMARK    1  A    between atoms: N_2  and  S_1 
REMARK    2  A    between atoms: C_3  and  S_1 
ROOT
ATOM      1  N   UNL d   1     -47.912  13.559  22.753  0.00  0.00    -0.231 N 
ATOM      2  C   UNL d   1     -47.623  12.854  23.084  0.00  0.00     0.075 A 
ATOM      3  C   UNL d   1     -47.233  14.037  22.601  0.00  0.00     0.092 A 
ATOM      4  C   UNL d   1     -46.780  12.917  23.127  0.00  0.00     0.018 A 
ATOM      5  C   UNL d   1     -46.573  13.654  22.823  0.00  0.00     0.021 A 
ATOM      6  C   UNL d   1     -47.983  12.175  23.349  0.00  0.00     0.018 A 
ATOM      7  C   UNL d   1     -46.340  12.304  23.431  0.00  0.00     0.002 A 
ATOM      8  C   UNL d   1     -47.541  11.550  23.659  0.00  0.00     0.002 A 
ATOM      9  C   UNL d   1     -46.714  11.618  23.698  0.00  0.00     0.000 A 
ENDROOT
BRANCH   1  10
ATOM     10  S   UNL d   1     -48.663  13.827  22.573  0.00  0.00     0.277 S 
ATOM     11  O   UNL d   1     -48.724  14.196  23.328  0.00  0.00    -0.199 OA
ATOM     12  O   UNL d   1     -48.624  13.464  21.808  0.00  0.00    -0.199 OA
BRANCH  10  13
ATOM     13  C   UNL d   1     -49.417  14.102  22.405  0.00  0.00     0.133 A 
ATOM     14  S   UNL d   1     -49.842  14.713  22.799  0.00  0.00    -0.074 SA
ATOM     15  C   UNL d   1     -50.571  14.797  22.442  0.00  0.00     0.036 A 
ATOM     16  C   UNL d   1     -50.649  14.261  21.823  0.00  0.00     0.008 A 
ATOM     17  C   UNL d   1     -49.937  13.831  21.798  0.00  0.00     0.020 A 
ENDBRANCH  10  13
ENDBRANCH   1  10
TORSDOF 2
ENDMDL
MODEL 2
REMARK VINA RESULT:      -7.6      1.370      1.926
REMARK  2 active torsions:
REMARK  status: ('A' for Active; 'I' for Inactive)
REMARK    1  A    between atoms: N_2  and  S_1 
REMARK    2  A    between atoms: C_3  and  S_1 
ROOT
ATOM      1  N   UNL d   1     -48.134  12.177  23.195  0.00  0.00    -0.231 N 
ATOM      2  C   UNL d   1     -47.457  12.618  23.006  0.00  0.00     0.075 A 
ATOM      3  C   UNL d   1     -47.859  11.506  23.626  0.00  0.00     0.092 A 
ATOM      4  C   UNL d   1     -46.787  12.210  23.323  0.00  0.00     0.018 A 
ATOM      5  C   UNL d   1     -47.068  11.531  23.697  0.00  0.00     0.021 A 
ATOM      6  C   UNL d   1     -47.339  13.315  22.603  0.00  0.00     0.018 A 
ATOM      7  C   UNL d   1     -46.039  12.513  23.224  0.00  0.00     0.002 A 
ATOM      8  C   UNL d   1     -46.582  13.627  22.500  0.00  0.00     0.002 A 
ATOM      9  C   UNL d   1     -45.930  13.221  22.814  0.00  0.00     0.000 A 
ENDROOT
BRANCH   1  10
ATOM     10  S   UNL d   1     -48.931  12.282  23.045  0.00  0.00     0.277 S 
ATOM     11  O   UNL d   1     -48.889  11.751  22.391  0.00  0.00    -0.199 OA
ATOM     12  O   UNL d   1     -48.996  12.820  23.697  0.00  0.00    -0.199 OA
BRANCH  10  13
ATOM     13  C   UNL d   1     -49.729  12.379  22.883  0.00  0.00     0.133 A 
ATOM     14  S   UNL d   1     -50.367  12.395  23.432  0.00  0.00    -0.074 SA
ATOM     15  C   UNL d   1     -51.063  12.504  23.021  0.00  0.00     0.036 A 
ATOM     16  C   UNL d   1     -50.913  12.561  22.215  0.00  0.00     0.008 A 
ATOM     17  C   UNL d   1     -50.089  12.484  22.127  0.00  0.00     0.020 A 
ENDBRANCH  10  13
ENDBRANCH   1  10
TORSDOF 2
ENDMDL
MODEL 3
REMARK VINA RESULT:      -7.5      1.345      3.035
REMARK  2 active torsions:
REMARK  status: ('A' for Active; 'I' for Inactive)
REMARK    1  A    between atoms: N_2  and  S_1 
REMARK    2  A    between atoms: C_3  and  S_1 
ROOT
ATOM      1  N   UNL d   1     -48.936  13.199  22.217  0.00  0.00    -0.231 N 
ATOM      2  C   UNL d   1     -49.511  12.803  22.666  0.00  0.00     0.075 A 
ATOM      3  C   UNL d   1     -49.333  13.474  21.525  0.00  0.00     0.092 A 
ATOM      4  C   UNL d   1     -50.242  12.843  22.241  0.00  0.00     0.018 A 
ATOM      5  C   UNL d   1     -50.099  13.261  21.546  0.00  0.00     0.021 A 
ATOM      6  C   UNL d   1     -49.492  12.417  23.382  0.00  0.00     0.018 A 
ATOM      7  C   UNL d   1     -50.912  12.500  22.548  0.00  0.00     0.002 A 
ATOM      8  C   UNL d   1     -50.169  12.066  23.698  0.00  0.00     0.002 A 
ATOM      9  C   UNL d   1     -50.882  12.110  23.275  0.00  0.00     0.000 A 
ENDROOT
BRANCH   1  10
ATOM     10  S   UNL d   1     -48.140  13.346  22.331  0.00  0.00     0.277 S 
ATOM     11  O   UNL d   1     -48.318  14.069  22.726  0.00  0.00    -0.199 OA
ATOM     12  O   UNL d   1     -47.937  12.624  21.937  0.00  0.00    -0.199 OA
BRANCH  10  13
ATOM     13  C   UNL d   1     -47.344  13.506  22.452  0.00  0.00     0.133 A 
ATOM     14  S   UNL d   1     -47.005  14.177  22.830  0.00  0.00    -0.074 SA
ATOM     15  C   UNL d   1     -46.193  14.099  22.823  0.00  0.00     0.036 A 
ATOM     16  C   UNL d   1     -45.977  13.397  22.453  0.00  0.00     0.008 A 
ATOM     17  C   UNL d   1     -46.687  13.029  22.222  0.00  0.00     0.020 A 
ENDBRANCH  10  13
ENDBRANCH   1  10
TORSDOF 2
ENDMDL
