MODEL 1
REMARK VINA RESULT:      40.7      0.000      0.000
REMARK  5 active torsions:
REMARK  status: ('A' for Active; 'I' for Inactive)
REMARK    1  A    between atoms: C_7  and  C_1 
REMARK    2  A    between atoms: C_13  and  C_2 
REMARK    3  A    between atoms: C_12  and  N_3 
REMARK    4  A    between atoms: C_4  and  C_7 
REMARK    5  A    between atoms: O_17  and  C_13 
ROOT
ATOM      1  N   UNL d   1      13.638  13.172  -3.562  0.00  0.00    -0.305 N 
ATOM      2  C   UNL d   1      13.830  13.349  -2.253  0.00  0.00     0.018 A 
ATOM      3  C   UNL d   1      13.700  13.977  -3.423  0.00  0.00     0.064 A 
ATOM      4  C   UNL d   1      13.717  12.776  -2.841  0.00  0.00     0.064 A 
ATOM      5  C   UNL d   1      13.821  14.088  -2.604  0.00  0.00     0.019 A 
ATOM      6  C   UNL d   1      13.654  14.573  -3.987  0.00  0.00     0.019 C 
ATOM      7  C   UNL d   1      13.689  11.958  -2.725  0.00  0.00     0.019 C 
ENDROOT
BRANCH   2   8
ATOM      8  C   UNL d   1      13.935  13.203  -1.445  0.00  0.00     0.006 C 
BRANCH   8   9
ATOM      9  C   UNL d   1      14.689  13.119  -1.135  0.00  0.00     0.065 A 
ATOM     10  C   UNL d   1      15.084  13.673  -0.669  0.00  0.00     0.086 A 
ATOM     11  C   UNL d   1      15.830  13.363  -0.478  0.00  0.00     0.090 A 
ATOM     12  C   UNL d   1      16.399  13.736  -0.023  0.00  0.00     0.021 C 
ATOM     13  N   UNL d   1      15.896  12.619  -0.826  0.00  0.00    -0.208 NA
ATOM     14  C   UNL d   1      15.189  12.464  -1.235  0.00  0.00     0.279 A 
ATOM     15  O   UNL d   1      15.011  11.788  -1.661  0.00  0.00    -0.265 OA
BRANCH  10  16
ATOM     16  C   UNL d   1      14.792  14.407  -0.433  0.00  0.00     0.297 C 
ATOM     17  O   UNL d   1      14.014  14.481  -0.154  0.00  0.00    -0.259 OA
BRANCH  16  18
ATOM     18  O   UNL d   1      15.270  15.083  -0.469  0.00  0.00    -0.296 OA
ATOM     19  C   UNL d   1      14.984  15.814  -0.218  0.00  0.00     0.185 C 
ENDBRANCH  16  18
ENDBRANCH  10  16
ENDBRANCH   8   9
ENDBRANCH   2   8
BRANCH   1  20
ATOM     20  C   UNL d   1      13.516  12.824  -4.300  0.00  0.00     0.092 A 
ATOM     21  C   UNL d   1      13.091  12.136  -4.361  0.00  0.00     0.156 A 
ATOM     22  F   UNL d   1      12.778  11.781  -3.687  0.00  0.00    -0.203 F 
ATOM     23  C   UNL d   1      12.966  11.782  -5.105  0.00  0.00     0.031 A 
ATOM     24  C   UNL d   1      13.285  12.148  -5.782  0.00  0.00     0.002 A 
ATOM     25  C   UNL d   1      13.717  12.848  -5.711  0.00  0.00     0.002 A 
ATOM     26  C   UNL d   1      13.832  13.186  -4.970  0.00  0.00     0.020 A 
ENDBRANCH   1  20
TORSDOF 5
ENDMDL
