MODEL 1
REMARK VINA RESULT:      57.5      0.000      0.000
REMARK  5 active torsions:
REMARK  status: ('A' for Active; 'I' for Inactive)
REMARK    1  A    between atoms: O_8  and  S_1 
REMARK    2  A    between atoms: C_9  and  S_1 
REMARK    3  A    between atoms: C_7  and  C_2 
REMARK    4  A    between atoms: C_20  and  C_7 
REMARK    5  A    between atoms: C_14  and  O_8 
ROOT
ATOM      1  C   UNL d   1     -56.855 -99.385 -44.382  0.00  0.00     0.139 A 
ATOM      2  C   UNL d   1     -55.737-100.099 -44.245  0.00  0.00     0.064 A 
ATOM      3  C   UNL d   1     -56.049 -99.402 -44.558  0.00  0.00     0.220 A 
ATOM      4  C   UNL d   1     -56.352-100.513 -43.876  0.00  0.00     0.105 A 
ATOM      5  O   UNL d   1     -57.041-100.070 -43.961  0.00  0.00    -0.304 OA
ATOM      6  C   UNL d   1     -56.195-101.242 -43.509  0.00  0.00     0.050 A 
ATOM      7  C   UNL d   1     -54.966-100.414 -44.249  0.00  0.00     0.007 A 
ATOM      8  C   UNL d   1     -55.434-101.552 -43.514  0.00  0.00     0.116 A 
ATOM      9  O   UNL d   1     -55.629 -98.827 -44.972  0.00  0.00    -0.284 OA
ATOM     10  C   UNL d   1     -54.819-101.138 -43.883  0.00  0.00     0.026 A 
ENDROOT
BRANCH   8  11
ATOM     11  O   UNL d   1     -55.280-102.272 -43.152  0.00  0.00    -0.227 OA
BRANCH  11  12
ATOM     12  S   UNL d   1     -55.343-102.354 -42.342  0.00  0.00     0.304 S 
ATOM     13  O   UNL d   1     -55.973-102.870 -42.440  0.00  0.00    -0.193 OA
ATOM     14  O   UNL d   1     -54.714-101.839 -42.244  0.00  0.00    -0.193 OA
BRANCH  12  15
ATOM     15  C   UNL d   1     -55.407-102.437 -41.525  0.00  0.00     0.111 A 
ATOM     16  C   UNL d   1     -54.803-102.169 -41.033  0.00  0.00     0.013 A 
ATOM     17  C   UNL d   1     -54.865-102.252 -40.211  0.00  0.00     0.001 A 
ATOM     18  C   UNL d   1     -55.536-102.604 -39.890  0.00  0.00     0.000 A 
ATOM     19  C   UNL d   1     -56.145-102.874 -40.380  0.00  0.00     0.001 A 
ATOM     20  C   UNL d   1     -55.600-102.687 -39.074  0.00  0.00     0.000 C 
ATOM     21  C   UNL d   1     -56.079-102.790 -41.194  0.00  0.00     0.013 A 
ENDBRANCH  12  15
ENDBRANCH  11  12
ENDBRANCH   8  11
BRANCH   1  22
ATOM     22  C   UNL d   1     -57.386 -98.785 -44.591  0.00  0.00     0.029 C 
BRANCH  22  23
ATOM     23  C   UNL d   1     -58.151 -98.800 -44.302  0.00  0.00     0.021 A 
ATOM     24  C   UNL d   1     -58.789 -98.834 -44.829  0.00  0.00     0.099 A 
ATOM     25  N   UNL d   1     -59.563 -98.850 -44.545  0.00  0.00    -0.242 NA
ATOM     26  C   UNL d   1     -59.696 -98.832 -43.732  0.00  0.00     0.099 A 
ATOM     27  C   UNL d   1     -59.059 -98.798 -43.204  0.00  0.00     0.021 A 
ATOM     28  C   UNL d   1     -58.292 -98.783 -43.494  0.00  0.00     0.003 A 
ENDBRANCH  22  23
ENDBRANCH   1  22
TORSDOF 5
ENDMDL
