MODEL 1
REMARK VINA RESULT:      89.3      0.000      0.000
REMARK  8 active torsions:
REMARK  status: ('A' for Active; 'I' for Inactive)
REMARK    1  A    between atoms: C_6  and  C_1 
REMARK    2  A    between atoms: C_7  and  C_2 
REMARK    3  A    between atoms: C_14  and  N_4 
REMARK    4  A    between atoms: C_8  and  C_6 
REMARK    5  A    between atoms: C_9  and  C_8 
REMARK    6  A    between atoms: C_12  and  C_9 
REMARK    7  A    between atoms: C_10  and  C_11 
REMARK    8  A    between atoms: C_11  and  C_14 
ROOT
ATOM      1  C   UNL d   1      58.833  48.098  50.459  0.00  0.00     0.039 A 
ATOM      2  C   UNL d   1      58.060  47.930  50.628  0.00  0.00     0.103 A 
ATOM      3  N   UNL d   1      57.856  47.197  50.902  0.00  0.00    -0.165 NA
ATOM      4  N   UNL d   1      59.205  46.798  50.838  0.00  0.00    -0.227 N 
ATOM      5  C   UNL d   1      59.409  47.532  50.564  0.00  0.00     0.102 A 
ENDROOT
BRANCH   1   6
ATOM      6  C   UNL d   1      59.048  48.844  50.180  0.00  0.00     0.006 C 
BRANCH   6   7
ATOM      7  C   UNL d   1      59.504  49.352  50.647  0.00  0.00     0.042 C 
BRANCH   7   8
ATOM      8  C   UNL d   1      60.271  49.573  50.406  0.00  0.00     0.196 C 
ATOM      9  O   UNL d   1      60.421  49.705  49.606  0.00  0.00    -0.287 OA
BRANCH   8  10
ATOM     10  C   UNL d   1      60.721  49.603  51.100  0.00  0.00     0.039 A 
ATOM     11  C   UNL d   1      60.354  49.613  51.840  0.00  0.00     0.004 A 
ATOM     12  C   UNL d   1      60.804  49.644  52.535  0.00  0.00     0.011 A 
ATOM     13  C   UNL d   1      61.630  49.664  52.490  0.00  0.00     0.058 A 
ATOM     14  C   UNL d   1      61.996  49.654  51.737  0.00  0.00     0.011 A 
ATOM     15 CL   UNL d   1      62.081  49.695  53.181  0.00  0.00    -0.082 Cl
ATOM     16  C   UNL d   1      61.550  49.624  51.043  0.00  0.00     0.004 A 
ENDBRANCH   8  10
ENDBRANCH   7   8
ENDBRANCH   6   7
ENDBRANCH   1   6
BRANCH   2  17
ATOM     17  C   UNL d   1      57.478  48.495  50.525  0.00  0.00     0.020 A 
ATOM     18  C   UNL d   1      57.069  48.784  51.163  0.00  0.00     0.008 A 
ATOM     19  C   UNL d   1      56.486  49.351  51.052  0.00  0.00     0.035 A 
ATOM     20 BR   UNL d   1      56.076  49.638  51.702  0.00  0.00    -0.049 Br
ATOM     21  C   UNL d   1      56.322  49.617  50.311  0.00  0.00     0.007 A 
ATOM     22  C   UNL d   1      56.737  49.323  49.671  0.00  0.00     0.001 A 
ATOM     23  C   UNL d   1      57.313  48.764  49.777  0.00  0.00     0.002 A 
ENDBRANCH   2  17
BRANCH   4  24
ATOM     24  C   UNL d   1      59.611  46.114  51.006  0.00  0.00     0.107 C 
BRANCH  24  25
ATOM     25  C   UNL d   1      60.314  46.371  51.367  0.00  0.00     0.091 C 
BRANCH  25  26
ATOM     26  C   UNL d   1      60.788  45.694  51.414  0.00  0.00     0.213 C 
ATOM     27  O   UNL d   1      61.395  45.637  51.992  0.00  0.00    -0.644 OA
ATOM     28  O   UNL d   1      60.664  45.074  50.893  0.00  0.00    -0.644 OA
ENDBRANCH  25  26
ENDBRANCH  24  25
ENDBRANCH   4  24
TORSDOF 8
ENDMDL
MODEL 2
REMARK VINA RESULT:      90.4      2.653      4.027
REMARK  8 active torsions:
REMARK  status: ('A' for Active; 'I' for Inactive)
REMARK    1  A    between atoms: C_6  and  C_1 
REMARK    2  A    between atoms: C_7  and  C_2 
REMARK    3  A    between atoms: C_14  and  N_4 
REMARK    4  A    between atoms: C_8  and  C_6 
REMARK    5  A    between atoms: C_9  and  C_8 
REMARK    6  A    between atoms: C_12  and  C_9 
REMARK    7  A    between atoms: C_10  and  C_11 
REMARK    8  A    between atoms: C_11  and  C_14 
ROOT
ATOM      1  C   UNL d   1      58.246  49.691  52.201  0.00  0.00     0.039 A 
ATOM      2  C   UNL d   1      58.498  49.675  52.969  0.00  0.00     0.103 A 
ATOM      3  N   UNL d   1      59.290  49.672  53.134  0.00  0.00    -0.165 NA
ATOM      4  N   UNL d   1      59.578  49.699  51.757  0.00  0.00    -0.227 N 
ATOM      5  C   UNL d   1      58.786  49.703  51.591  0.00  0.00     0.102 A 
ENDROOT
BRANCH   1   6
ATOM      6  C   UNL d   1      57.440  49.695  52.025  0.00  0.00     0.006 C 
BRANCH   6   7
ATOM      7  C   UNL d   1      57.181  49.615  51.243  0.00  0.00     0.042 C 
BRANCH   7   8
ATOM      8  C   UNL d   1      57.710  49.371  50.646  0.00  0.00     0.196 C 
ATOM      9  O   UNL d   1      58.467  49.698  50.619  0.00  0.00    -0.287 OA
BRANCH   8  10
ATOM     10  C   UNL d   1      57.296  48.813  50.197  0.00  0.00     0.039 A 
ATOM     11  C   UNL d   1      57.068  48.091  50.528  0.00  0.00     0.004 A 
ATOM     12  C   UNL d   1      56.654  47.532  50.079  0.00  0.00     0.011 A 
ATOM     13  C   UNL d   1      56.464  47.697  49.290  0.00  0.00     0.058 A 
ATOM     14  C   UNL d   1      56.697  48.430  48.961  0.00  0.00     0.011 A 
ATOM     15 CL   UNL d   1      56.050  47.142  48.839  0.00  0.00    -0.082 Cl
ATOM     16  C   UNL d   1      57.110  48.989  49.406  0.00  0.00     0.004 A 
ENDBRANCH   8  10
ENDBRANCH   7   8
ENDBRANCH   6   7
ENDBRANCH   1   6
BRANCH   2  17
ATOM     17  C   UNL d   1      57.960  49.663  53.585  0.00  0.00     0.020 A 
ATOM     18  C   UNL d   1      58.217  49.612  54.352  0.00  0.00     0.008 A 
ATOM     19  C   UNL d   1      57.671  49.600  54.965  0.00  0.00     0.035 A 
ATOM     20 BR   UNL d   1      57.938  49.548  55.739  0.00  0.00    -0.049 Br
ATOM     21  C   UNL d   1      56.884  49.640  54.802  0.00  0.00     0.007 A 
ATOM     22  C   UNL d   1      56.631  49.692  54.027  0.00  0.00     0.001 A 
ATOM     23  C   UNL d   1      57.166  49.704  53.420  0.00  0.00     0.002 A 
ENDBRANCH   2  17
BRANCH   4  24
ATOM     24  C   UNL d   1      60.258  49.708  51.311  0.00  0.00     0.107 C 
BRANCH  24  25
ATOM     25  C   UNL d   1      60.662  49.015  51.533  0.00  0.00     0.091 C 
BRANCH  25  26
ATOM     26  C   UNL d   1      60.895  48.669  50.818  0.00  0.00     0.213 C 
ATOM     27  O   UNL d   1      60.336  48.265  50.337  0.00  0.00    -0.644 OA
ATOM     28  O   UNL d   1      61.676  48.721  50.576  0.00  0.00    -0.644 OA
ENDBRANCH  25  26
ENDBRANCH  24  25
ENDBRANCH   4  24
TORSDOF 8
ENDMDL
