MODEL 1
REMARK VINA RESULT:      -5.7      0.000      0.000
REMARK  4 active torsions:
REMARK  status: ('A' for Active; 'I' for Inactive)
REMARK    1  A    between atoms: C_9  and  N_1 
REMARK    2  A    between atoms: S_10  and  C_6 
REMARK    3  A    between atoms: C_16  and  S_10 
REMARK    4  A    between atoms: C_15  and  C_16 
ROOT
ATOM      1  N   UNL d   1     -41.868-123.225 -50.234  0.00  0.00    -0.212 N 
ATOM      2  C   UNL d   1     -41.611-122.572 -50.662  0.00  0.00     0.169 A 
ATOM      3  N   UNL d   1     -42.064-123.817 -50.750  0.00  0.00    -0.162 NA
ATOM      4  C   UNL d   1     -41.650-122.768 -51.462  0.00  0.00     0.081 A 
ATOM      5  C   UNL d   1     -41.930-123.540 -51.520  0.00  0.00     0.126 A 
ATOM      6  C   UNL d   1     -41.425-122.220 -52.032  0.00  0.00     0.117 A 
ATOM      7  N   UNL d   1     -41.349-121.828 -50.431  0.00  0.00    -0.205 NA
ATOM      8  N   UNL d   1     -41.161-121.473 -51.803  0.00  0.00    -0.217 NA
ATOM      9  C   UNL d   1     -41.123-121.277 -51.003  0.00  0.00     0.201 A 
ENDROOT
BRANCH   6  10
ATOM     10  S   UNL d   1     -41.463-122.417 -52.832  0.00  0.00    -0.067 SA
BRANCH  10  11
ATOM     11  C   UNL d   1     -41.502-121.828 -53.395  0.00  0.00     0.038 C 
BRANCH  11  12
ATOM     12  C   UNL d   1     -41.765-122.003 -54.158  0.00  0.00     0.026 A 
ATOM     13  C   UNL d   1     -42.420-121.608 -54.470  0.00  0.00     0.099 A 
ATOM     14  N   UNL d   1     -42.682-121.783 -55.232  0.00  0.00    -0.242 NA
ATOM     15  C   UNL d   1     -42.292-122.354 -55.691  0.00  0.00     0.099 A 
ATOM     16  C   UNL d   1     -41.635-122.747 -55.371  0.00  0.00     0.021 A 
ATOM     17  C   UNL d   1     -41.372-122.572 -54.609  0.00  0.00     0.004 A 
ENDBRANCH  11  12
ENDBRANCH  10  11
ENDBRANCH   6  10
BRANCH   1  18
ATOM     18  C   UNL d   1     -41.892-123.194 -49.404  0.00  0.00     0.085 A 
ATOM     19  C   UNL d   1     -41.209-123.334 -48.969  0.00  0.00     0.021 A 
ATOM     20  C   UNL d   1     -41.230-123.305 -48.152  0.00  0.00     0.031 A 
ATOM     21  C   UNL d   1     -41.937-123.135 -47.758  0.00  0.00     0.140 A 
ATOM     22  C   UNL d   1     -42.625-122.995 -48.210  0.00  0.00     0.031 A 
ATOM     23  F   UNL d   1     -41.962-123.105 -46.928  0.00  0.00    -0.204 F 
ATOM     24  C   UNL d   1     -42.596-123.026 -49.024  0.00  0.00     0.021 A 
ENDBRANCH   1  18
TORSDOF 4
ENDMDL
MODEL 2
REMARK VINA RESULT:      -5.3      2.247      5.221
REMARK  4 active torsions:
REMARK  status: ('A' for Active; 'I' for Inactive)
REMARK    1  A    between atoms: C_9  and  N_1 
REMARK    2  A    between atoms: S_10  and  C_6 
REMARK    3  A    between atoms: C_16  and  S_10 
REMARK    4  A    between atoms: C_15  and  C_16 
ROOT
ATOM      1  N   UNL d   1     -41.755-122.887 -53.454  0.00  0.00    -0.212 N 
ATOM      2  C   UNL d   1     -41.533-122.413 -52.821  0.00  0.00     0.169 A 
ATOM      3  N   UNL d   1     -41.896-123.637 -53.184  0.00  0.00    -0.162 NA
ATOM      4  C   UNL d   1     -41.537-122.884 -52.144  0.00  0.00     0.081 A 
ATOM      5  C   UNL d   1     -41.762-123.644 -52.366  0.00  0.00     0.126 A 
ATOM      6  C   UNL d   1     -41.337-122.561 -51.415  0.00  0.00     0.117 A 
ATOM      7  N   UNL d   1     -41.329-121.618 -52.770  0.00  0.00    -0.205 NA
ATOM      8  N   UNL d   1     -41.131-121.763 -51.361  0.00  0.00    -0.217 NA
ATOM      9  C   UNL d   1     -41.127-121.292 -52.039  0.00  0.00     0.201 A 
ENDROOT
BRANCH   6  10
ATOM     10  S   UNL d   1     -41.341-123.032 -50.738  0.00  0.00    -0.067 SA
BRANCH  10  11
ATOM     11  C   UNL d   1     -41.318-122.686 -50.000  0.00  0.00     0.038 C 
BRANCH  11  12
ATOM     12  C   UNL d   1     -41.676-123.060 -49.358  0.00  0.00     0.026 A 
ATOM     13  C   UNL d   1     -42.498-123.131 -49.326  0.00  0.00     0.099 A 
ATOM     14  N   UNL d   1     -42.855-123.506 -48.684  0.00  0.00    -0.242 NA
ATOM     15  C   UNL d   1     -42.394-123.813 -48.066  0.00  0.00     0.099 A 
ATOM     16  C   UNL d   1     -41.569-123.738 -48.104  0.00  0.00     0.021 A 
ATOM     17  C   UNL d   1     -41.211-123.364 -48.746  0.00  0.00     0.004 A 
ENDBRANCH  11  12
ENDBRANCH  10  11
ENDBRANCH   6  10
BRANCH   1  18
ATOM     18  C   UNL d   1     -41.802-122.564 -54.218  0.00  0.00     0.085 A 
ATOM     19  C   UNL d   1     -42.505-122.226 -54.478  0.00  0.00     0.021 A 
ATOM     20  C   UNL d   1     -42.554-121.907 -55.229  0.00  0.00     0.031 A 
ATOM     21  C   UNL d   1     -41.898-121.923 -55.734  0.00  0.00     0.140 A 
ATOM     22  C   UNL d   1     -41.190-122.270 -55.460  0.00  0.00     0.031 A 
ATOM     23  F   UNL d   1     -41.945-121.601 -56.497  0.00  0.00    -0.204 F 
ATOM     24  C   UNL d   1     -41.149-122.585 -54.709  0.00  0.00     0.021 A 
ENDBRANCH   1  18
TORSDOF 4
ENDMDL
MODEL 3
REMARK VINA RESULT:      -3.9      2.263      5.376
REMARK  4 active torsions:
REMARK  status: ('A' for Active; 'I' for Inactive)
REMARK    1  A    between atoms: C_9  and  N_1 
REMARK    2  A    between atoms: S_10  and  C_6 
REMARK    3  A    between atoms: C_16  and  S_10 
REMARK    4  A    between atoms: C_15  and  C_16 
ROOT
ATOM      1  N   UNL d   1     -42.098-121.934 -53.233  0.00  0.00    -0.212 N 
ATOM      2  C   UNL d   1     -41.775-122.571 -52.827  0.00  0.00     0.169 A 
ATOM      3  N   UNL d   1     -42.361-121.387 -52.697  0.00  0.00    -0.162 NA
ATOM      4  C   UNL d   1     -41.841-122.411 -52.020  0.00  0.00     0.081 A 
ATOM      5  C   UNL d   1     -42.204-121.678 -51.937  0.00  0.00     0.126 A 
ATOM      6  C   UNL d   1     -41.562-122.953 -51.469  0.00  0.00     0.117 A 
ATOM      7  N   UNL d   1     -41.430-123.272 -53.082  0.00  0.00    -0.205 NA
ATOM      8  N   UNL d   1     -41.216-123.658 -51.722  0.00  0.00    -0.217 NA
ATOM      9  C   UNL d   1     -41.150-123.817 -52.529  0.00  0.00     0.201 A 
ENDROOT
BRANCH   6  10
ATOM     10  S   UNL d   1     -41.629-122.793 -50.662  0.00  0.00    -0.067 SA
BRANCH  10  11
ATOM     11  C   UNL d   1     -41.561-123.398 -50.119  0.00  0.00     0.038 C 
BRANCH  11  12
ATOM     12  C   UNL d   1     -41.739-123.263 -49.325  0.00  0.00     0.026 A 
ATOM     13  C   UNL d   1     -41.138-123.271 -48.760  0.00  0.00     0.099 A 
ATOM     14  N   UNL d   1     -41.316-123.135 -47.966  0.00  0.00    -0.242 NA
ATOM     15  C   UNL d   1     -42.098-122.990 -47.729  0.00  0.00     0.099 A 
ATOM     16  C   UNL d   1     -42.697-122.983 -48.302  0.00  0.00     0.021 A 
ATOM     17  C   UNL d   1     -42.519-123.118 -49.096  0.00  0.00     0.004 A 
ENDBRANCH  11  12
ENDBRANCH  10  11
ENDBRANCH   6  10
BRANCH   1  18
ATOM     18  C   UNL d   1     -42.111-121.935 -54.063  0.00  0.00     0.085 A 
ATOM     19  C   UNL d   1     -42.830-121.941 -54.462  0.00  0.00     0.021 A 
ATOM     20  C   UNL d   1     -42.846-121.942 -55.280  0.00  0.00     0.031 A 
ATOM     21  C   UNL d   1     -42.140-121.936 -55.711  0.00  0.00     0.140 A 
ATOM     22  C   UNL d   1     -41.416-121.929 -55.296  0.00  0.00     0.031 A 
ATOM     23  F   UNL d   1     -42.153-121.936 -56.541  0.00  0.00    -0.204 F 
ATOM     24  C   UNL d   1     -41.409-121.928 -54.481  0.00  0.00     0.021 A 
ENDBRANCH   1  18
TORSDOF 4
ENDMDL
