MODEL 1
REMARK VINA RESULT:      -3.1      0.000      0.000
REMARK  2 active torsions:
REMARK  status: ('A' for Active; 'I' for Inactive)
REMARK    1  A    between atoms: C_6  and  C_1 
REMARK       I    between atoms: N_11  and  C_6 
REMARK    2  A    between atoms: C_13  and  N_11 
ROOT
ATOM      1  C   UNL d   1      32.622  18.013 -23.868  0.00  0.00     0.108 A 
ATOM      2  C   UNL d   1      32.829  19.268 -23.516  0.00  0.00     0.044 A 
ATOM      3  C   UNL d   1      32.761  18.827 -22.823  0.00  0.00     0.112 A 
ATOM      4  S   UNL d   1      32.632  18.045 -23.046  0.00  0.00    -0.061 SA
ATOM      5  C   UNL d   1      32.745  18.778 -24.141  0.00  0.00     0.116 A 
ATOM      6  N   UNL d   1      32.825  19.192 -22.078  0.00  0.00    -0.239 NA
ATOM      7  C   UNL d   1      33.026  20.445 -22.747  0.00  0.00     0.057 A 
ATOM      8  C   UNL d   1      32.963  20.083 -23.479  0.00  0.00     0.008 A 
ATOM      9  C   UNL d   1      32.958  20.005 -22.055  0.00  0.00     0.085 A 
ATOM     10  C   UNL d   1      33.160  21.258 -22.706  0.00  0.00     0.197 A 
ATOM     11  N   UNL d   1      32.803  19.162 -25.028  0.00  0.00    -0.147 N 
ATOM     12  O   UNL d   1      33.241  21.784 -23.562  0.00  0.00    -0.286 OA
ATOM     13  C   UNL d   1      33.024  20.378 -21.322  0.00  0.00     0.019 A 
ATOM     14  C   UNL d   1      33.224  21.623 -21.979  0.00  0.00     0.042 A 
ATOM     15  C   UNL d   1      33.156  21.182 -21.286  0.00  0.00     0.005 A 
ENDROOT
BRANCH   1  16
ATOM     16  C   UNL d   1      32.491  17.235 -24.449  0.00  0.00     0.287 C 
ATOM     17  N   UNL d   1      31.825  16.609 -24.790  0.00  0.00    -0.205 NA
ATOM     18  O   UNL d   1      33.230  17.079 -24.739  0.00  0.00    -0.265 OA
BRANCH  17  19
ATOM     19  C   UNL d   1      30.991  16.671 -24.553  0.00  0.00     0.112 A 
ATOM     20  C   UNL d   1      30.714  16.253 -23.845  0.00  0.00     0.158 A 
ATOM     21  F   UNL d   1      31.130  15.590 -23.055  0.00  0.00    -0.203 F 
ATOM     22  C   UNL d   1      29.859  16.318 -23.605  0.00  0.00     0.031 A 
ATOM     23  C   UNL d   1      29.306  16.801 -24.082  0.00  0.00     0.002 A 
ATOM     24  C   UNL d   1      29.597  17.219 -24.796  0.00  0.00     0.002 A 
ATOM     25  C   UNL d   1      30.438  17.163 -25.044  0.00  0.00     0.021 A 
ENDBRANCH  17  19
ENDBRANCH   1  16
TORSDOF 2
ENDMDL
