MODEL 1
REMARK VINA RESULT:      -7.7      0.000      0.000
REMARK  10 active torsions:
REMARK  status: ('A' for Active; 'I' for Inactive)
REMARK    1  A    between atoms: N_9  and  C_1 
REMARK    2  A    between atoms: C_4  and  S_21 
REMARK    3  A    between atoms: C_23  and  C_8 
REMARK       I    between atoms: C_19  and  N_9 
REMARK    4  A    between atoms: O_26  and  C_10 
REMARK    5  A    between atoms: C_11  and  C_12 
REMARK       I    between atoms: C_12  and  N_20 
REMARK    6  A    between atoms: O_27  and  C_13 
REMARK    7  A    between atoms: O_28  and  C_14 
REMARK    8  A    between atoms: C_25  and  C_19 
REMARK    9  A    between atoms: N_20  and  C_23 
REMARK   10  A    between atoms: S_21  and  C_25 
ROOT
ATOM      1  O   UNL d   1      48.843  35.030  51.536  0.00  0.00    -0.262 OA
ATOM      2  C   UNL d   1      49.330  34.432  51.227  0.00  0.00     0.236 A 
ATOM      3  N   UNL d   1      48.884  33.996  50.697  0.00  0.00    -0.114 NA
ATOM      4  N   UNL d   1      48.126  34.319  50.675  0.00  0.00    -0.119 NA
ATOM      5  C   UNL d   1      48.101  34.955  51.192  0.00  0.00     0.224 A 
ENDROOT
BRANCH   5   6
ATOM      6  C   UNL d   1      47.446  35.434  51.338  0.00  0.00     0.149 C 
BRANCH   6   7
ATOM      7  N   UNL d   1      47.072  35.417  52.070  0.00  0.00    -0.203 NA
ATOM      8  C   UNL d   1      46.473  35.961  52.240  0.00  0.00     0.279 C 
ATOM      9  O   UNL d   1      46.247  36.520  51.682  0.00  0.00    -0.265 OA
BRANCH   8  10
ATOM     10  C   UNL d   1      46.099  35.939  52.978  0.00  0.00     0.062 A 
ATOM     11  C   UNL d   1      46.439  36.340  53.622  0.00  0.00     0.031 A 
ATOM     12  C   UNL d   1      46.062  36.312  54.345  0.00  0.00     0.118 A 
ATOM     13  C   UNL d   1      45.369  35.904  54.448  0.00  0.00     0.138 A 
ATOM     14  C   UNL d   1      45.035  35.504  53.793  0.00  0.00     0.118 A 
ATOM     15  C   UNL d   1      45.413  35.532  53.065  0.00  0.00     0.031 A 
BRANCH  12  16
ATOM     16  O   UNL d   1      46.392  36.708  54.998  0.00  0.00    -0.326 OA
ATOM     17  C   UNL d   1      47.209  36.650  55.137  0.00  0.00     0.181 C 
ENDBRANCH  12  16
BRANCH  13  18
ATOM     18  O   UNL d   1      44.989  35.874  55.172  0.00  0.00    -0.324 OA
ATOM     19  C   UNL d   1      44.564  36.535  55.449  0.00  0.00     0.182 C 
ENDBRANCH  13  18
BRANCH  14  20
ATOM     20  O   UNL d   1      44.325  35.084  53.889  0.00  0.00    -0.326 OA
ATOM     21  C   UNL d   1      44.316  34.267  53.882  0.00  0.00     0.181 C 
ENDBRANCH  14  20
ENDBRANCH   8  10
ENDBRANCH   6   7
ENDBRANCH   5   6
BRANCH   2  22
ATOM     22  S   UNL d   1      50.121  34.306  51.424  0.00  0.00    -0.036 SA
BRANCH  22  23
ATOM     23  C   UNL d   1      50.367  34.368  52.200  0.00  0.00     0.101 C 
BRANCH  23  24
ATOM     24  C   UNL d   1      51.134  34.110  52.422  0.00  0.00     0.288 C 
ATOM     25  N   UNL d   1      51.229  33.645  53.098  0.00  0.00    -0.182 NA
ATOM     26  O   UNL d   1      51.783  34.318  51.970  0.00  0.00    -0.265 OA
BRANCH  25  27
ATOM     27  C   UNL d   1      51.984  33.384  53.325  0.00  0.00     0.197 A 
ATOM     28  N   UNL d   1      52.462  33.745  53.901  0.00  0.00    -0.221 NA
ATOM     29  C   UNL d   1      53.163  33.311  53.954  0.00  0.00     0.090 A 
ATOM     30  C   UNL d   1      53.830  33.400  54.417  0.00  0.00     0.020 A 
ATOM     31  C   UNL d   1      53.116  32.679  53.407  0.00  0.00     0.050 A 
ATOM     32  C   UNL d   1      54.465  32.871  54.353  0.00  0.00     0.002 A 
ATOM     33  C   UNL d   1      54.414  32.245  53.809  0.00  0.00     0.001 A 
ATOM     34  C   UNL d   1      53.746  32.156  53.345  0.00  0.00     0.008 A 
ATOM     35  S   UNL d   1      52.386  32.726  53.019  0.00  0.00    -0.047 SA
ENDBRANCH  25  27
ENDBRANCH  23  24
ENDBRANCH  22  23
ENDBRANCH   2  22
TORSDOF 10
ENDMDL
MODEL 2
REMARK VINA RESULT:      -5.0      2.149      7.737
REMARK  10 active torsions:
REMARK  status: ('A' for Active; 'I' for Inactive)
REMARK    1  A    between atoms: N_9  and  C_1 
REMARK    2  A    between atoms: C_4  and  S_21 
REMARK    3  A    between atoms: C_23  and  C_8 
REMARK       I    between atoms: C_19  and  N_9 
REMARK    4  A    between atoms: O_26  and  C_10 
REMARK    5  A    between atoms: C_11  and  C_12 
REMARK       I    between atoms: C_12  and  N_20 
REMARK    6  A    between atoms: O_27  and  C_13 
REMARK    7  A    between atoms: O_28  and  C_14 
REMARK    8  A    between atoms: C_25  and  C_19 
REMARK    9  A    between atoms: N_20  and  C_23 
REMARK   10  A    between atoms: S_21  and  C_25 
ROOT
ATOM      1  O   UNL d   1      50.839  34.001  52.228  0.00  0.00    -0.262 OA
ATOM      2  C   UNL d   1      50.227  34.495  52.496  0.00  0.00     0.236 A 
ATOM      3  N   UNL d   1      50.514  34.921  53.134  0.00  0.00    -0.114 NA
ATOM      4  N   UNL d   1      51.296  34.695  53.262  0.00  0.00    -0.119 NA
ATOM      5  C   UNL d   1      51.495  34.129  52.704  0.00  0.00     0.224 A 
ENDROOT
BRANCH   5   6
ATOM      6  C   UNL d   1      52.227  33.754  52.635  0.00  0.00     0.149 C 
BRANCH   6   7
ATOM      7  N   UNL d   1      52.363  33.033  53.005  0.00  0.00    -0.203 NA
ATOM      8  C   UNL d   1      53.128  32.719  53.028  0.00  0.00     0.279 C 
ATOM      9  O   UNL d   1      53.755  33.123  52.683  0.00  0.00    -0.265 OA
BRANCH   8  10
ATOM     10  C   UNL d   1      53.260  31.993  53.402  0.00  0.00     0.062 A 
ATOM     11  C   UNL d   1      53.142  31.286  52.980  0.00  0.00     0.031 A 
ATOM     12  C   UNL d   1      53.275  30.576  53.359  0.00  0.00     0.118 A 
ATOM     13  C   UNL d   1      53.518  30.545  54.132  0.00  0.00     0.138 A 
ATOM     14  C   UNL d   1      53.633  31.262  54.548  0.00  0.00     0.118 A 
ATOM     15  C   UNL d   1      53.500  31.977  54.167  0.00  0.00     0.031 A 
BRANCH  12  16
ATOM     16  O   UNL d   1      53.161  29.862  52.947  0.00  0.00    -0.326 OA
ATOM     17  C   UNL d   1      52.885  29.885  52.165  0.00  0.00     0.181 C 
ENDBRANCH  12  16
BRANCH  13  18
ATOM     18  O   UNL d   1      53.651  29.834  54.514  0.00  0.00    -0.324 OA
ATOM     19  C   UNL d   1      53.030  29.453  54.917  0.00  0.00     0.182 C 
ENDBRANCH  13  18
BRANCH  14  20
ATOM     20  O   UNL d   1      53.882  31.240  55.340  0.00  0.00    -0.326 OA
ATOM     21  C   UNL d   1      54.094  31.925  55.732  0.00  0.00     0.181 C 
ENDBRANCH  14  20
ENDBRANCH   8  10
ENDBRANCH   6   7
ENDBRANCH   5   6
BRANCH   2  22
ATOM     22  S   UNL d   1      49.470  34.543  52.173  0.00  0.00    -0.036 SA
BRANCH  22  23
ATOM     23  C   UNL d   1      49.103  35.267  52.091  0.00  0.00     0.101 C 
BRANCH  23  24
ATOM     24  C   UNL d   1      48.285  35.308  51.909  0.00  0.00     0.288 C 
ATOM     25  N   UNL d   1      47.837  35.948  52.178  0.00  0.00    -0.182 NA
ATOM     26  O   UNL d   1      47.934  34.716  51.467  0.00  0.00    -0.265 OA
BRANCH  25  27
ATOM     27  C   UNL d   1      47.027  35.996  52.002  0.00  0.00     0.197 A 
ATOM     28  N   UNL d   1      46.696  35.928  51.243  0.00  0.00    -0.221 NA
ATOM     29  C   UNL d   1      45.877  36.009  51.317  0.00  0.00     0.090 A 
ATOM     30  C   UNL d   1      45.272  35.991  50.769  0.00  0.00     0.020 A 
ATOM     31  C   UNL d   1      45.703  36.127  52.127  0.00  0.00     0.050 A 
ATOM     32  C   UNL d   1      44.483  36.090  51.004  0.00  0.00     0.002 A 
ATOM     33  C   UNL d   1      44.315  36.208  51.809  0.00  0.00     0.001 A 
ATOM     34  C   UNL d   1      44.921  36.225  52.358  0.00  0.00     0.008 A 
ATOM     35  S   UNL d   1      46.416  36.119  52.549  0.00  0.00    -0.047 SA
ENDBRANCH  25  27
ENDBRANCH  23  24
ENDBRANCH  22  23
ENDBRANCH   2  22
TORSDOF 10
ENDMDL
MODEL 3
REMARK VINA RESULT:      -4.9      2.145      7.607
REMARK  10 active torsions:
REMARK  status: ('A' for Active; 'I' for Inactive)
REMARK    1  A    between atoms: N_9  and  C_1 
REMARK    2  A    between atoms: C_4  and  S_21 
REMARK    3  A    between atoms: C_23  and  C_8 
REMARK       I    between atoms: C_19  and  N_9 
REMARK    4  A    between atoms: O_26  and  C_10 
REMARK    5  A    between atoms: C_11  and  C_12 
REMARK       I    between atoms: C_12  and  N_20 
REMARK    6  A    between atoms: O_27  and  C_13 
REMARK    7  A    between atoms: O_28  and  C_14 
REMARK    8  A    between atoms: C_25  and  C_19 
REMARK    9  A    between atoms: N_20  and  C_23 
REMARK   10  A    between atoms: S_21  and  C_25 
ROOT
ATOM      1  O   UNL d   1      50.696  34.111  52.311  0.00  0.00    -0.262 OA
ATOM      2  C   UNL d   1      50.144  34.633  52.647  0.00  0.00     0.236 A 
ATOM      3  N   UNL d   1      50.513  35.019  53.268  0.00  0.00    -0.114 NA
ATOM      4  N   UNL d   1      51.287  34.741  53.318  0.00  0.00    -0.119 NA
ATOM      5  C   UNL d   1      51.399  34.182  52.729  0.00  0.00     0.224 A 
ENDROOT
BRANCH   5   6
ATOM      6  C   UNL d   1      52.096  33.766  52.583  0.00  0.00     0.149 C 
BRANCH   6   7
ATOM      7  N   UNL d   1      52.296  33.114  53.042  0.00  0.00    -0.203 NA
ATOM      8  C   UNL d   1      52.889  32.596  52.786  0.00  0.00     0.279 C 
ATOM      9  O   UNL d   1      53.279  32.728  52.075  0.00  0.00    -0.265 OA
BRANCH   8  10
ATOM     10  C   UNL d   1      53.086  31.941  53.251  0.00  0.00     0.062 A 
ATOM     11  C   UNL d   1      53.409  32.057  54.008  0.00  0.00     0.031 A 
ATOM     12  C   UNL d   1      53.600  31.404  54.458  0.00  0.00     0.118 A 
ATOM     13  C   UNL d   1      53.483  30.650  54.184  0.00  0.00     0.138 A 
ATOM     14  C   UNL d   1      53.157  30.544  53.421  0.00  0.00     0.118 A 
ATOM     15  C   UNL d   1      52.964  31.200  52.968  0.00  0.00     0.031 A 
BRANCH  12  16
ATOM     16  O   UNL d   1      53.924  31.507  55.217  0.00  0.00    -0.326 OA
ATOM     17  C   UNL d   1      54.166  32.265  55.456  0.00  0.00     0.181 C 
ENDBRANCH  12  16
BRANCH  13  18
ATOM     18  O   UNL d   1      53.674  29.994  54.634  0.00  0.00    -0.324 OA
ATOM     19  C   UNL d   1      53.084  29.602  55.074  0.00  0.00     0.182 C 
ENDBRANCH  13  18
BRANCH  14  20
ATOM     20  O   UNL d   1      53.033  29.775  53.133  0.00  0.00    -0.326 OA
ATOM     21  C   UNL d   1      52.722  29.651  52.387  0.00  0.00     0.181 C 
ENDBRANCH  14  20
ENDBRANCH   8  10
ENDBRANCH   6   7
ENDBRANCH   5   6
BRANCH   2  22
ATOM     22  S   UNL d   1      49.366  34.738  52.396  0.00  0.00    -0.036 SA
BRANCH  22  23
ATOM     23  C   UNL d   1      49.030  35.482  52.397  0.00  0.00     0.101 C 
BRANCH  23  24
ATOM     24  C   UNL d   1      48.196  35.569  52.356  0.00  0.00     0.288 C 
ATOM     25  N   UNL d   1      47.833  36.211  52.728  0.00  0.00    -0.182 NA
ATOM     26  O   UNL d   1      47.747  35.020  51.950  0.00  0.00    -0.265 OA
BRANCH  25  27
ATOM     27  C   UNL d   1      47.009  36.305  52.692  0.00  0.00     0.197 A 
ATOM     28  N   UNL d   1      46.560  36.339  51.994  0.00  0.00    -0.221 NA
ATOM     29  C   UNL d   1      45.768  36.436  52.209  0.00  0.00     0.090 A 
ATOM     30  C   UNL d   1      45.084  36.503  51.768  0.00  0.00     0.020 A 
ATOM     31  C   UNL d   1      45.729  36.462  53.044  0.00  0.00     0.050 A 
ATOM     32  C   UNL d   1      44.348  36.597  52.137  0.00  0.00     0.002 A 
ATOM     33  C   UNL d   1      44.314  36.623  52.967  0.00  0.00     0.001 A 
ATOM     34  C   UNL d   1      44.999  36.555  53.408  0.00  0.00     0.008 A 
ATOM     35  S   UNL d   1      46.498  36.381  53.342  0.00  0.00    -0.047 SA
ENDBRANCH  25  27
ENDBRANCH  23  24
ENDBRANCH  22  23
ENDBRANCH   2  22
TORSDOF 10
ENDMDL
