MODEL 1
REMARK VINA RESULT:      -9.0      0.000      0.000
REMARK  4 active torsions:
REMARK  status: ('A' for Active; 'I' for Inactive)
REMARK    1  A    between atoms: C_2  and  S_1 
REMARK    2  A    between atoms: C_5  and  S_1 
REMARK    3  A    between atoms: C_7  and  C_5 
REMARK       I    between atoms: N_9  and  C_7 
REMARK    4  A    between atoms: C_8  and  N_9 
ROOT
ATOM      1  S   UNL d   1      51.977  34.102  53.317  0.00  0.00     0.217 S 
ATOM      2  O   UNL d   1      51.581  33.671  53.906  0.00  0.00    -0.217 OA
ATOM      3  O   UNL d   1      52.376  34.535  52.727  0.00  0.00    -0.217 OA
ENDROOT
BRANCH   1   4
ATOM      4  C   UNL d   1      52.587  34.273  53.849  0.00  0.00     0.109 A 
ATOM      5  C   UNL d   1      52.693  34.983  54.254  0.00  0.00     0.110 A 
ATOM      6  N   UNL d   1      53.364  34.914  54.721  0.00  0.00    -0.243 NA
ATOM      7  C   UNL d   1      53.677  34.156  54.605  0.00  0.00     0.082 A 
ATOM      8  C   UNL d   1      53.193  33.767  54.066  0.00  0.00     0.030 A 
ATOM      9  C   UNL d   1      54.338  33.778  54.922  0.00  0.00     0.019 A 
ATOM     10  C   UNL d   1      53.368  32.992  53.839  0.00  0.00     0.002 A 
ATOM     11  C   UNL d   1      54.028  32.613  54.156  0.00  0.00     0.000 A 
ATOM     12  C   UNL d   1      54.508  33.005  54.693  0.00  0.00     0.002 A 
ENDBRANCH   1   4
BRANCH   1  13
ATOM     13  C   UNL d   1      51.362  33.932  52.773  0.00  0.00     0.161 C 
BRANCH  13  14
ATOM     14  C   UNL d   1      50.702  34.431  52.740  0.00  0.00     0.291 C 
ATOM     15  N   UNL d   1      50.039  34.191  52.311  0.00  0.00    -0.207 NA
ATOM     16  O   UNL d   1      50.701  35.152  53.127  0.00  0.00    -0.264 OA
BRANCH  15  17
ATOM     17  C   UNL d   1      49.376  34.686  52.276  0.00  0.00     0.085 A 
ATOM     18  C   UNL d   1      48.960  34.764  51.570  0.00  0.00     0.018 A 
ATOM     19  C   UNL d   1      48.298  35.256  51.525  0.00  0.00     0.002 A 
ATOM     20  C   UNL d   1      49.209  34.343  50.894  0.00  0.00     0.002 C 
ATOM     21  C   UNL d   1      48.052  35.671  52.192  0.00  0.00     0.000 A 
ATOM     22  C   UNL d   1      48.465  35.597  52.902  0.00  0.00     0.002 A 
ATOM     23  C   UNL d   1      49.127  35.103  52.942  0.00  0.00     0.019 A 
ATOM     24  C   UNL d   1      48.220  36.017  53.587  0.00  0.00     0.000 C 
ENDBRANCH  15  17
ENDBRANCH  13  14
ENDBRANCH   1  13
TORSDOF 4
ENDMDL
MODEL 2
REMARK VINA RESULT:      -8.7      1.017      4.870
REMARK  4 active torsions:
REMARK  status: ('A' for Active; 'I' for Inactive)
REMARK    1  A    between atoms: C_2  and  S_1 
REMARK    2  A    between atoms: C_5  and  S_1 
REMARK    3  A    between atoms: C_7  and  C_5 
REMARK       I    between atoms: N_9  and  C_7 
REMARK    4  A    between atoms: C_8  and  N_9 
ROOT
ATOM      1  S   UNL d   1      50.866  33.958  52.622  0.00  0.00     0.217 S 
ATOM      2  O   UNL d   1      51.276  34.573  52.245  0.00  0.00    -0.217 OA
ATOM      3  O   UNL d   1      50.453  33.340  53.001  0.00  0.00    -0.217 OA
ENDROOT
BRANCH   1   4
ATOM      4  C   UNL d   1      50.199  34.441  52.694  0.00  0.00     0.109 A 
ATOM      5  C   UNL d   1      49.997  34.894  53.352  0.00  0.00     0.110 A 
ATOM      6  N   UNL d   1      49.295  35.288  53.186  0.00  0.00    -0.243 NA
ATOM      7  C   UNL d   1      49.061  35.077  52.422  0.00  0.00     0.082 A 
ATOM      8  C   UNL d   1      49.622  34.555  52.124  0.00  0.00     0.030 A 
ATOM      9  C   UNL d   1      48.410  35.296  51.964  0.00  0.00     0.019 A 
ATOM     10  C   UNL d   1      49.537  34.247  51.362  0.00  0.00     0.002 A 
ATOM     11  C   UNL d   1      48.886  34.464  50.905  0.00  0.00     0.000 A 
ATOM     12  C   UNL d   1      48.328  34.985  51.205  0.00  0.00     0.002 A 
ENDBRANCH   1   4
BRANCH   1  13
ATOM     13  C   UNL d   1      51.538  33.461  52.553  0.00  0.00     0.161 C 
BRANCH  13  14
ATOM     14  C   UNL d   1      52.066  33.404  53.189  0.00  0.00     0.291 C 
ATOM     15  N   UNL d   1      52.800  33.046  53.070  0.00  0.00    -0.207 NA
ATOM     16  O   UNL d   1      51.866  33.696  53.927  0.00  0.00    -0.264 OA
BRANCH  15  17
ATOM     17  C   UNL d   1      53.330  32.986  53.703  0.00  0.00     0.085 A 
ATOM     18  C   UNL d   1      53.636  32.251  53.914  0.00  0.00     0.018 A 
ATOM     19  C   UNL d   1      54.165  32.181  54.544  0.00  0.00     0.002 A 
ATOM     20  C   UNL d   1      53.408  31.571  53.488  0.00  0.00     0.002 C 
ATOM     21  C   UNL d   1      54.390  32.852  54.964  0.00  0.00     0.000 A 
ATOM     22  C   UNL d   1      54.087  33.591  54.758  0.00  0.00     0.002 A 
ATOM     23  C   UNL d   1      53.557  33.656  54.126  0.00  0.00     0.019 A 
ATOM     24  C   UNL d   1      54.312  34.281  55.182  0.00  0.00     0.000 C 
ENDBRANCH  15  17
ENDBRANCH  13  14
ENDBRANCH   1  13
TORSDOF 4
ENDMDL
MODEL 3
REMARK VINA RESULT:      -7.9      2.505      4.863
REMARK  4 active torsions:
REMARK  status: ('A' for Active; 'I' for Inactive)
REMARK    1  A    between atoms: C_2  and  S_1 
REMARK    2  A    between atoms: C_5  and  S_1 
REMARK    3  A    between atoms: C_7  and  C_5 
REMARK       I    between atoms: N_9  and  C_7 
REMARK    4  A    between atoms: C_8  and  N_9 
ROOT
ATOM      1  S   UNL d   1      54.027  33.065  54.108  0.00  0.00     0.217 S 
ATOM      2  O   UNL d   1      53.809  32.777  54.856  0.00  0.00    -0.217 OA
ATOM      3  O   UNL d   1      54.246  33.355  53.357  0.00  0.00    -0.217 OA
ENDROOT
BRANCH   1   4
ATOM      4  C   UNL d   1      53.668  33.790  54.279  0.00  0.00     0.109 A 
ATOM      5  C   UNL d   1      53.891  34.313  54.876  0.00  0.00     0.110 A 
ATOM      6  N   UNL d   1      53.388  34.961  54.850  0.00  0.00    -0.243 NA
ATOM      7  C   UNL d   1      52.850  34.839  54.234  0.00  0.00     0.082 A 
ATOM      8  C   UNL d   1      53.028  34.116  53.886  0.00  0.00     0.030 A 
ATOM      9  C   UNL d   1      52.224  35.296  53.949  0.00  0.00     0.019 A 
ATOM     10  C   UNL d   1      52.579  33.842  53.249  0.00  0.00     0.002 A 
ATOM     11  C   UNL d   1      51.954  34.298  52.964  0.00  0.00     0.000 A 
ATOM     12  C   UNL d   1      51.779  35.020  53.313  0.00  0.00     0.002 A 
ENDBRANCH   1   4
BRANCH   1  13
ATOM     13  C   UNL d   1      54.393  32.333  53.928  0.00  0.00     0.161 C 
BRANCH  13  14
ATOM     14  C   UNL d   1      53.980  31.629  54.068  0.00  0.00     0.291 C 
ATOM     15  N   UNL d   1      53.926  31.069  53.464  0.00  0.00    -0.207 NA
ATOM     16  O   UNL d   1      53.628  31.486  54.793  0.00  0.00    -0.264 OA
BRANCH  15  17
ATOM     17  C   UNL d   1      53.514  30.363  53.599  0.00  0.00     0.085 A 
ATOM     18  C   UNL d   1      52.933  30.120  53.069  0.00  0.00     0.018 A 
ATOM     19  C   UNL d   1      52.517  29.418  53.196  0.00  0.00     0.002 A 
ATOM     20  C   UNL d   1      52.763  30.586  52.399  0.00  0.00     0.002 C 
ATOM     21  C   UNL d   1      52.684  28.957  53.858  0.00  0.00     0.000 A 
ATOM     22  C   UNL d   1      53.265  29.196  54.392  0.00  0.00     0.002 A 
ATOM     23  C   UNL d   1      53.680  29.900  54.261  0.00  0.00     0.019 A 
ATOM     24  C   UNL d   1      53.442  28.732  55.070  0.00  0.00     0.000 C 
ENDBRANCH  15  17
ENDBRANCH  13  14
ENDBRANCH   1  13
TORSDOF 4
ENDMDL
MODEL 4
REMARK VINA RESULT:      -7.3      2.672      4.330
REMARK  4 active torsions:
REMARK  status: ('A' for Active; 'I' for Inactive)
REMARK    1  A    between atoms: C_2  and  S_1 
REMARK    2  A    between atoms: C_5  and  S_1 
REMARK    3  A    between atoms: C_7  and  C_5 
REMARK       I    between atoms: N_9  and  C_7 
REMARK    4  A    between atoms: C_8  and  N_9 
ROOT
ATOM      1  S   UNL d   1      53.635  31.211  53.818  0.00  0.00     0.217 S 
ATOM      2  O   UNL d   1      53.069  31.322  54.416  0.00  0.00    -0.217 OA
ATOM      3  O   UNL d   1      54.203  31.099  53.218  0.00  0.00    -0.217 OA
ENDROOT
BRANCH   1   4
ATOM      4  C   UNL d   1      53.301  30.478  53.634  0.00  0.00     0.109 A 
ATOM      5  C   UNL d   1      52.867  30.299  52.957  0.00  0.00     0.110 A 
ATOM      6  N   UNL d   1      52.641  29.510  52.998  0.00  0.00    -0.243 NA
ATOM      7  C   UNL d   1      52.937  29.199  53.704  0.00  0.00     0.082 A 
ATOM      8  C   UNL d   1      53.343  29.799  54.091  0.00  0.00     0.030 A 
ATOM      9  C   UNL d   1      52.887  28.446  54.039  0.00  0.00     0.019 A 
ATOM     10  C   UNL d   1      53.703  29.652  54.820  0.00  0.00     0.002 A 
ATOM     11  C   UNL d   1      53.653  28.900  55.155  0.00  0.00     0.000 A 
ATOM     12  C   UNL d   1      53.247  28.303  54.766  0.00  0.00     0.002 A 
ENDBRANCH   1   4
BRANCH   1  13
ATOM     13  C   UNL d   1      53.979  31.954  54.000  0.00  0.00     0.161 C 
BRANCH  13  14
ATOM     14  C   UNL d   1      53.609  32.646  53.736  0.00  0.00     0.291 C 
ATOM     15  N   UNL d   1      53.345  33.197  54.292  0.00  0.00    -0.207 NA
ATOM     16  O   UNL d   1      53.505  32.788  52.937  0.00  0.00    -0.264 OA
BRANCH  15  17
ATOM     17  C   UNL d   1      52.975  33.890  54.033  0.00  0.00     0.085 A 
ATOM     18  C   UNL d   1      53.211  34.619  54.336  0.00  0.00     0.018 A 
ATOM     19  C   UNL d   1      52.847  35.316  54.083  0.00  0.00     0.002 A 
ATOM     20  C   UNL d   1      53.822  34.652  54.902  0.00  0.00     0.002 C 
ATOM     21  C   UNL d   1      52.244  35.282  53.524  0.00  0.00     0.000 A 
ATOM     22  C   UNL d   1      52.003  34.556  53.217  0.00  0.00     0.002 A 
ATOM     23  C   UNL d   1      52.370  33.860  53.473  0.00  0.00     0.019 A 
ATOM     24  C   UNL d   1      51.388  34.514  52.647  0.00  0.00     0.000 C 
ENDBRANCH  15  17
ENDBRANCH  13  14
ENDBRANCH   1  13
TORSDOF 4
ENDMDL
