MODEL 1
REMARK VINA RESULT:      46.6      0.000      0.000
REMARK  3 active torsions:
REMARK  status: ('A' for Active; 'I' for Inactive)
REMARK    1  A    between atoms: N_8  and  C_1 
REMARK    2  A    between atoms: N_7  and  C_2 
REMARK    3  A    between atoms: C_11  and  N_8 
ROOT
ATOM      1  C   UNL d   1      14.191  13.475  -2.517  0.00  0.00     0.139 A 
ATOM      2  C   UNL d   1      14.061  14.121  -3.006  0.00  0.00     0.124 A 
ATOM      3  C   UNL d   1      13.671  14.038  -3.741  0.00  0.00     0.213 A 
ATOM      4  C   UNL d   1      13.934  12.724  -2.747  0.00  0.00     0.215 A 
ATOM      5  C   UNL d   1      13.420  13.276  -3.955  0.00  0.00     0.044 A 
ATOM      6  C   UNL d   1      13.550  12.629  -3.466  0.00  0.00     0.044 A 
ATOM      7  O   UNL d   1      13.540  14.691  -4.235  0.00  0.00    -0.285 OA
ATOM      8  O   UNL d   1      14.064  12.071  -2.253  0.00  0.00    -0.285 OA
ATOM      9  C   UNL d   1      13.029  13.192  -4.690  0.00  0.00     0.003 A 
ATOM     10  C   UNL d   1      13.292  11.878  -3.696  0.00  0.00     0.003 A 
ATOM     11  C   UNL d   1      12.777  12.428  -4.906  0.00  0.00     0.000 A 
ATOM     12  C   UNL d   1      12.907  11.781  -4.417  0.00  0.00     0.000 A 
ENDROOT
BRANCH   1  13
ATOM     13  N   UNL d   1      14.587  13.585  -1.781  0.00  0.00    -0.241 NA
BRANCH  13  14
ATOM     14  C   UNL d   1      14.571  12.979  -1.215  0.00  0.00     0.082 A 
ATOM     15  C   UNL d   1      13.973  12.963  -0.647  0.00  0.00     0.019 A 
ATOM     16  C   UNL d   1      13.958  12.360  -0.084  0.00  0.00     0.002 A 
ATOM     17  C   UNL d   1      14.540  11.782  -0.098  0.00  0.00     0.000 A 
ATOM     18  C   UNL d   1      15.131  11.795  -0.657  0.00  0.00     0.002 A 
ATOM     19  C   UNL d   1      15.147  12.398  -1.220  0.00  0.00     0.019 A 
ENDBRANCH  13  14
ENDBRANCH   1  13
BRANCH   2  20
ATOM     20  N   UNL d   1      14.315  14.888  -2.788  0.00  0.00    -0.300 N 
ATOM     21  C   UNL d   1      14.037  15.253  -2.097  0.00  0.00     0.080 A 
ATOM     22  C   UNL d   1      14.297  16.005  -1.897  0.00  0.00     0.019 A 
ATOM     23  C   UNL d   1      14.842  16.414  -2.385  0.00  0.00     0.003 A 
ATOM     24  C   UNL d   1      15.121  16.049  -3.076  0.00  0.00     0.019 A 
ATOM     25  C   UNL d   1      14.858  15.270  -3.291  0.00  0.00     0.080 A 
ENDBRANCH   2  20
TORSDOF 3
ENDMDL
MODEL 2
REMARK VINA RESULT:      48.0      0.644      3.019
REMARK  3 active torsions:
REMARK  status: ('A' for Active; 'I' for Inactive)
REMARK    1  A    between atoms: N_8  and  C_1 
REMARK    2  A    between atoms: N_7  and  C_2 
REMARK    3  A    between atoms: C_11  and  N_8 
ROOT
ATOM      1  C   UNL d   1      13.911  13.939  -2.585  0.00  0.00     0.139 A 
ATOM      2  C   UNL d   1      14.130  13.229  -2.236  0.00  0.00     0.124 A 
ATOM      3  C   UNL d   1      13.967  12.496  -2.604  0.00  0.00     0.213 A 
ATOM      4  C   UNL d   1      13.522  13.940  -3.313  0.00  0.00     0.215 A 
ATOM      5  C   UNL d   1      13.575  12.518  -3.336  0.00  0.00     0.044 A 
ATOM      6  C   UNL d   1      13.356  13.228  -3.685  0.00  0.00     0.044 A 
ATOM      7  O   UNL d   1      14.189  11.779  -2.252  0.00  0.00    -0.285 OA
ATOM      8  O   UNL d   1      13.301  14.657  -3.665  0.00  0.00    -0.285 OA
ATOM      9  C   UNL d   1      13.412  11.784  -3.705  0.00  0.00     0.003 A 
ATOM     10  C   UNL d   1      12.966  13.228  -4.414  0.00  0.00     0.003 A 
ATOM     11  C   UNL d   1      13.019  11.804  -4.439  0.00  0.00     0.000 A 
ATOM     12  C   UNL d   1      12.799  12.514  -4.788  0.00  0.00     0.000 A 
ENDROOT
BRANCH   1  13
ATOM     13  N   UNL d   1      14.087  14.665  -2.192  0.00  0.00    -0.241 NA
BRANCH  13  14
ATOM     14  C   UNL d   1      14.394  15.300  -2.629  0.00  0.00     0.082 A 
ATOM     15  C   UNL d   1      14.762  15.927  -2.239  0.00  0.00     0.019 A 
ATOM     16  C   UNL d   1      15.067  16.558  -2.674  0.00  0.00     0.002 A 
ATOM     17  C   UNL d   1      15.001  16.553  -3.491  0.00  0.00     0.000 A 
ATOM     18  C   UNL d   1      14.639  15.936  -3.880  0.00  0.00     0.002 A 
ATOM     19  C   UNL d   1      14.334  15.304  -3.445  0.00  0.00     0.019 A 
ENDBRANCH  13  14
ENDBRANCH   1  13
BRANCH   2  20
ATOM     20  N   UNL d   1      14.526  13.212  -1.498  0.00  0.00    -0.300 N 
ATOM     21  C   UNL d   1      15.349  13.125  -1.453  0.00  0.00     0.080 A 
ATOM     22  C   UNL d   1      15.720  13.110  -0.722  0.00  0.00     0.019 A 
ATOM     23  C   UNL d   1      15.277  13.182  -0.014  0.00  0.00     0.003 A 
ATOM     24  C   UNL d   1      14.454  13.269  -0.059  0.00  0.00     0.019 A 
ATOM     25  C   UNL d   1      14.059  13.286  -0.812  0.00  0.00     0.080 A 
ENDBRANCH   2  20
TORSDOF 3
ENDMDL
