MODEL 1
REMARK VINA RESULT:      23.6      0.000      0.000
REMARK  4 active torsions:
REMARK  status: ('A' for Active; 'I' for Inactive)
REMARK    1  A    between atoms: C_9  and  C_3 
REMARK    2  A    between atoms: C_6  and  C_10 
REMARK    3  A    between atoms: S_8  and  C_9 
REMARK    4  A    between atoms: C_10  and  S_8 
ROOT
ATOM      1  C   UNL d   1     -55.679 -98.813 -44.376  0.00  0.00     0.074 C 
ENDROOT
BRANCH   1   2
ATOM      2  S   UNL d   1     -55.269 -99.445 -44.040  0.00  0.00    -0.083 SA
BRANCH   2   3
ATOM      3  C   UNL d   1     -54.928-100.002 -44.545  0.00  0.00     0.035 C 
BRANCH   3   4
ATOM      4  C   UNL d   1     -54.856-100.778 -44.278  0.00  0.00     0.006 A 
ATOM      5  C   UNL d   1     -54.826-101.381 -44.843  0.00  0.00     0.001 A 
ATOM      6  C   UNL d   1     -54.867-101.224 -45.652  0.00  0.00     0.000 C 
ATOM      7  C   UNL d   1     -54.753-102.179 -44.597  0.00  0.00     0.000 A 
ATOM      8  C   UNL d   1     -54.712-102.352 -43.801  0.00  0.00     0.000 A 
ATOM      9  C   UNL d   1     -54.743-101.734 -43.263  0.00  0.00     0.000 A 
ATOM     10  C   UNL d   1     -54.816-100.936 -43.512  0.00  0.00     0.001 A 
ENDBRANCH   3   4
ENDBRANCH   2   3
ENDBRANCH   1   2
BRANCH   1  11
ATOM     11  C   UNL d   1     -56.504 -98.801 -44.357  0.00  0.00     0.169 A 
ATOM     12  N   UNL d   1     -56.953 -98.784 -43.660  0.00  0.00    -0.225 NA
ATOM     13  C   UNL d   1     -57.756 -98.776 -43.892  0.00  0.00     0.101 A 
ATOM     14  C   UNL d   1     -57.776 -98.789 -44.741  0.00  0.00     0.101 A 
ATOM     15  C   UNL d   1     -58.461 -98.760 -43.488  0.00  0.00     0.021 A 
ATOM     16  N   UNL d   1     -56.984 -98.804 -45.006  0.00  0.00    -0.225 NA
ATOM     17  C   UNL d   1     -58.498 -98.784 -45.112  0.00  0.00     0.021 A 
ATOM     18  C   UNL d   1     -59.174 -98.768 -44.710  0.00  0.00     0.002 A 
ATOM     19  C   UNL d   1     -59.155 -98.756 -43.860  0.00  0.00     0.002 A 
ENDBRANCH   1  11
TORSDOF 4
ENDMDL
