MODEL 1
REMARK VINA RESULT:      -2.0      0.000      0.000
REMARK  6 active torsions:
REMARK  status: ('A' for Active; 'I' for Inactive)
REMARK    1  A    between atoms: C_4  and  C_1 
REMARK    2  A    between atoms: C_13  and  N_3 
REMARK    3  A    between atoms: C_11  and  N_5 
REMARK    4  A    between atoms: C_16  and  C_13 
REMARK    5  A    between atoms: O_14  and  C_16 
REMARK    6  A    between atoms: C_15  and  O_14 
ROOT
ATOM      1  C   UNL d   1      58.325   0.025  30.998  0.00  0.00     0.149 A 
ATOM      2  N   UNL d   1      58.964   0.510  31.200  0.00  0.00    -0.227 NA
ATOM      3  N   UNL d   1      58.549  -0.437  30.336  0.00  0.00    -0.287 N 
ATOM      4  C   UNL d   1      59.330  -0.229  30.138  0.00  0.00     0.083 A 
ATOM      5  C   UNL d   1      59.590   0.353  30.667  0.00  0.00     0.099 A 
ATOM      6  C   UNL d   1      59.840  -0.500  29.538  0.00  0.00     0.019 A 
ATOM      7  C   UNL d   1      60.347   0.667  30.605  0.00  0.00     0.021 A 
ATOM      8  C   UNL d   1      60.604  -0.180  29.479  0.00  0.00     0.002 A 
ATOM      9  C   UNL d   1      60.857   0.402  30.012  0.00  0.00     0.002 A 
ENDROOT
BRANCH   1  10
ATOM     10  C   UNL d   1      57.594  -0.003  31.376  0.00  0.00     0.057 A 
ATOM     11  C   UNL d   1      57.351  -0.564  31.924  0.00  0.00     0.081 A 
ATOM     12  N   UNL d   1      56.577  -0.375  32.156  0.00  0.00    -0.298 N 
ATOM     13  C   UNL d   1      56.347   0.303  31.749  0.00  0.00     0.261 A 
ATOM     14  C   UNL d   1      56.973   0.535  31.266  0.00  0.00     0.065 A 
ATOM     15  O   UNL d   1      55.620   0.681  31.814  0.00  0.00    -0.267 OA
BRANCH  12  16
ATOM     16  C   UNL d   1      56.122  -0.795  32.701  0.00  0.00     0.071 C 
ATOM     17  C   UNL d   1      55.804  -0.401  33.353  0.00  0.00     0.023 C 
ATOM     18  C   UNL d   1      55.692  -1.315  33.164  0.00  0.00     0.023 C 
ATOM     19  C   UNL d   1      55.987  -1.596  32.591  0.00  0.00     0.023 C 
ENDBRANCH  12  16
ENDBRANCH   1  10
BRANCH   3  20
ATOM     20  C   UNL d   1      58.082  -0.993  29.954  0.00  0.00     0.108 C 
BRANCH  20  21
ATOM     21  C   UNL d   1      58.401  -1.726  29.738  0.00  0.00     0.142 C 
BRANCH  21  22
ATOM     22  O   UNL d   1      57.957  -2.261  29.308  0.00  0.00    -0.304 OA
BRANCH  22  23
ATOM     23  C   UNL d   1      58.316  -2.951  29.024  0.00  0.00     0.100 A 
ATOM     24  C   UNL d   1      57.838  -3.563  28.745  0.00  0.00     0.025 A 
ATOM     25  C   UNL d   1      58.197  -4.253  28.461  0.00  0.00     0.002 A 
ATOM     26  C   UNL d   1      59.016  -4.327  28.458  0.00  0.00     0.000 A 
ATOM     27  C   UNL d   1      59.483  -3.703  28.742  0.00  0.00     0.002 A 
ATOM     28  C   UNL d   1      59.127  -3.017  29.024  0.00  0.00     0.025 A 
ENDBRANCH  22  23
ENDBRANCH  21  22
ENDBRANCH  20  21
ENDBRANCH   3  20
TORSDOF 6
ENDMDL
