MODEL 1
REMARK VINA RESULT:     -10.2      0.000      0.000
REMARK  6 active torsions:
REMARK  status: ('A' for Active; 'I' for Inactive)
REMARK    1  A    between atoms: C_7  and  C_1 
REMARK    2  A    between atoms: C_9  and  N_2 
REMARK    3  A    between atoms: C_15  and  C_7 
REMARK    4  A    between atoms: C_8  and  C_9 
REMARK       I    between atoms: N_14  and  C_8 
REMARK    5  A    between atoms: C_20  and  N_14 
REMARK    6  A    between atoms: C_34  and  C_33 
ROOT
ATOM      1  C   UNL d   1      53.205  32.158  53.364  0.00  0.00     0.095 A 
ATOM      2  N   UNL d   1      52.554  33.279  53.975  0.00  0.00    -0.300 N 
ATOM      3  C   UNL d   1      53.948  32.443  53.671  0.00  0.00     0.202 A 
ATOM      4  C   UNL d   1      52.515  32.572  53.515  0.00  0.00     0.087 A 
ATOM      5  C   UNL d   1      53.962  33.145  54.124  0.00  0.00     0.056 A 
ATOM      6  C   UNL d   1      53.278  33.566  54.281  0.00  0.00     0.067 A 
ATOM      7  C   UNL d   1      53.316  34.257  54.731  0.00  0.00     0.018 A 
ATOM      8  C   UNL d   1      54.688  33.435  54.431  0.00  0.00     0.016 A 
ATOM      9  O   UNL d   1      54.631  32.034  53.522  0.00  0.00    -0.286 OA
ATOM     10  C   UNL d   1      54.717  34.128  54.881  0.00  0.00     0.058 A 
ATOM     11  C   UNL d   1      54.030  34.540  55.031  0.00  0.00     0.013 A 
ATOM     12 CL   UNL d   1      55.440  34.408  55.181  0.00  0.00    -0.082 Cl
ENDROOT
BRANCH   2  13
ATOM     13  C   UNL d   1      51.868  33.690  54.125  0.00  0.00     0.144 C 
BRANCH  13  14
ATOM     14  C   UNL d   1      51.275  33.727  53.552  0.00  0.00     0.297 C 
ATOM     15  N   UNL d   1      51.181  34.406  53.103  0.00  0.00    -0.207 NA
ATOM     16  O   UNL d   1      50.781  33.082  53.434  0.00  0.00    -0.264 OA
BRANCH  15  17
ATOM     17  C   UNL d   1      50.588  34.443  52.530  0.00  0.00     0.087 A 
ATOM     18  C   UNL d   1      49.861  34.749  52.726  0.00  0.00     0.045 A 
ATOM     19  C   UNL d   1      49.268  34.788  52.157  0.00  0.00     0.121 A 
ATOM     20  O   UNL d   1      48.483  35.071  52.203  0.00  0.00    -0.299 OA
ATOM     21  C   UNL d   1      49.416  34.515  51.390  0.00  0.00     0.119 A 
ATOM     22  C   UNL d   1      48.135  34.972  51.450  0.00  0.00     0.304 A 
ATOM     23  O   UNL d   1      48.712  34.628  50.945  0.00  0.00    -0.300 OA
ATOM     24  C   UNL d   1      50.148  34.208  51.195  0.00  0.00     0.028 A 
ATOM     25  C   UNL d   1      50.740  34.171  51.768  0.00  0.00     0.021 A 
ENDBRANCH  15  17
ENDBRANCH  13  14
ENDBRANCH   2  13
BRANCH   1  26
ATOM     26  C   UNL d   1      53.179  31.468  52.917  0.00  0.00     0.200 C 
ATOM     27  O   UNL d   1      53.198  31.512  52.100  0.00  0.00    -0.286 OA
BRANCH  26  28
ATOM     28  C   UNL d   1      53.134  30.734  53.286  0.00  0.00     0.039 A 
ATOM     29  C   UNL d   1      53.804  30.395  53.648  0.00  0.00     0.003 A 
ATOM     30  C   UNL d   1      53.764  29.652  54.024  0.00  0.00     0.000 A 
ATOM     31  C   UNL d   1      53.053  29.246  54.037  0.00  0.00     0.000 A 
ATOM     32  C   UNL d   1      52.384  29.599  53.668  0.00  0.00     0.000 A 
ATOM     33  C   UNL d   1      52.420  30.339  53.293  0.00  0.00     0.003 A 
BRANCH  31  34
ATOM     34  C   UNL d   1      53.011  28.506  54.410  0.00  0.00     0.000 C 
ATOM     35  C   UNL d   1      53.364  28.416  55.138  0.00  0.00     0.000 C 
ENDBRANCH  31  34
ENDBRANCH  26  28
ENDBRANCH   1  26
TORSDOF 6
ENDMDL
MODEL 2
REMARK VINA RESULT:      -8.6      1.385      3.530
REMARK  6 active torsions:
REMARK  status: ('A' for Active; 'I' for Inactive)
REMARK    1  A    between atoms: C_7  and  C_1 
REMARK    2  A    between atoms: C_9  and  N_2 
REMARK    3  A    between atoms: C_15  and  C_7 
REMARK    4  A    between atoms: C_8  and  C_9 
REMARK       I    between atoms: N_14  and  C_8 
REMARK    5  A    between atoms: C_20  and  N_14 
REMARK    6  A    between atoms: C_34  and  C_33 
ROOT
ATOM      1  C   UNL d   1      53.834  32.663  53.652  0.00  0.00     0.095 A 
ATOM      2  N   UNL d   1      52.749  32.154  52.865  0.00  0.00    -0.300 N 
ATOM      3  C   UNL d   1      53.966  31.875  53.951  0.00  0.00     0.202 A 
ATOM      4  C   UNL d   1      53.232  32.801  53.114  0.00  0.00     0.087 A 
ATOM      5  C   UNL d   1      53.476  31.251  53.690  0.00  0.00     0.056 A 
ATOM      6  C   UNL d   1      52.870  31.378  53.153  0.00  0.00     0.067 A 
ATOM      7  C   UNL d   1      52.398  30.746  52.910  0.00  0.00     0.018 A 
ATOM      8  C   UNL d   1      53.596  30.471  53.978  0.00  0.00     0.016 A 
ATOM      9  O   UNL d   1      54.561  31.738  54.483  0.00  0.00    -0.286 OA
ATOM     10  C   UNL d   1      53.118  29.843  53.729  0.00  0.00     0.058 A 
ATOM     11  C   UNL d   1      52.519  29.981  53.194  0.00  0.00     0.013 A 
ATOM     12 CL   UNL d   1      53.244  29.074  54.019  0.00  0.00    -0.082 Cl
ENDROOT
BRANCH   2  13
ATOM     13  C   UNL d   1      52.151  32.292  52.331  0.00  0.00     0.144 C 
BRANCH  13  14
ATOM     14  C   UNL d   1      51.521  32.786  52.534  0.00  0.00     0.297 C 
ATOM     15  N   UNL d   1      51.315  33.409  52.045  0.00  0.00    -0.207 NA
ATOM     16  O   UNL d   1      51.104  32.649  53.228  0.00  0.00    -0.264 OA
BRANCH  15  17
ATOM     17  C   UNL d   1      50.686  33.903  52.248  0.00  0.00     0.087 A 
ATOM     18  C   UNL d   1      50.099  34.048  51.703  0.00  0.00     0.045 A 
ATOM     19  C   UNL d   1      49.471  34.540  51.902  0.00  0.00     0.121 A 
ATOM     20  O   UNL d   1      48.803  34.781  51.460  0.00  0.00    -0.299 OA
ATOM     21  C   UNL d   1      49.439  34.883  52.653  0.00  0.00     0.119 A 
ATOM     22  C   UNL d   1      48.348  35.285  51.946  0.00  0.00     0.304 A 
ATOM     23  O   UNL d   1      48.741  35.349  52.686  0.00  0.00    -0.300 OA
ATOM     24  C   UNL d   1      50.030  34.736  53.199  0.00  0.00     0.028 A 
ATOM     25  C   UNL d   1      50.659  34.242  52.997  0.00  0.00     0.021 A 
ENDBRANCH  15  17
ENDBRANCH  13  14
ENDBRANCH   2  13
BRANCH   1  26
ATOM     26  C   UNL d   1      54.311  33.286  53.901  0.00  0.00     0.200 C 
ATOM     27  O   UNL d   1      55.123  33.237  53.814  0.00  0.00    -0.286 OA
BRANCH  26  28
ATOM     28  C   UNL d   1      53.975  33.957  54.238  0.00  0.00     0.039 A 
ATOM     29  C   UNL d   1      53.674  33.940  55.016  0.00  0.00     0.003 A 
ATOM     30  C   UNL d   1      53.333  34.618  55.363  0.00  0.00     0.000 A 
ATOM     31  C   UNL d   1      53.293  35.313  54.932  0.00  0.00     0.000 A 
ATOM     32  C   UNL d   1      53.601  35.316  54.149  0.00  0.00     0.000 A 
ATOM     33  C   UNL d   1      53.941  34.644  53.800  0.00  0.00     0.003 A 
BRANCH  31  34
ATOM     34  C   UNL d   1      52.954  35.989  55.275  0.00  0.00     0.000 C 
ATOM     35  C   UNL d   1      52.878  36.660  54.821  0.00  0.00     0.000 C 
ENDBRANCH  31  34
ENDBRANCH  26  28
ENDBRANCH   1  26
TORSDOF 6
ENDMDL
MODEL 3
REMARK VINA RESULT:      -7.7      1.864      4.892
REMARK  6 active torsions:
REMARK  status: ('A' for Active; 'I' for Inactive)
REMARK    1  A    between atoms: C_7  and  C_1 
REMARK    2  A    between atoms: C_9  and  N_2 
REMARK    3  A    between atoms: C_15  and  C_7 
REMARK    4  A    between atoms: C_8  and  C_9 
REMARK       I    between atoms: N_14  and  C_8 
REMARK    5  A    between atoms: C_20  and  N_14 
REMARK    6  A    between atoms: C_34  and  C_33 
ROOT
ATOM      1  C   UNL d   1      52.417  34.531  53.283  0.00  0.00     0.095 A 
ATOM      2  N   UNL d   1      51.760  33.414  52.670  0.00  0.00    -0.300 N 
ATOM      3  C   UNL d   1      51.670  34.944  53.293  0.00  0.00     0.202 A 
ATOM      4  C   UNL d   1      52.461  33.774  52.974  0.00  0.00     0.087 A 
ATOM      5  C   UNL d   1      50.990  34.568  52.987  0.00  0.00     0.056 A 
ATOM      6  C   UNL d   1      51.023  33.811  52.676  0.00  0.00     0.067 A 
ATOM      7  C   UNL d   1      50.338  33.459  52.379  0.00  0.00     0.018 A 
ATOM      8  C   UNL d   1      50.250  34.964  52.992  0.00  0.00     0.016 A 
ATOM      9  O   UNL d   1      51.626  35.693  53.598  0.00  0.00    -0.286 OA
ATOM     10  C   UNL d   1      49.568  34.604  52.692  0.00  0.00     0.058 A 
ATOM     11  C   UNL d   1      49.613  33.851  52.385  0.00  0.00     0.013 A 
ATOM     12 CL   UNL d   1      48.839  35.004  52.701  0.00  0.00    -0.082 Cl
ENDROOT
BRANCH   2  13
ATOM     13  C   UNL d   1      51.804  32.661  52.364  0.00  0.00     0.144 C 
BRANCH  13  14
ATOM     14  C   UNL d   1      52.109  32.046  52.822  0.00  0.00     0.297 C 
ATOM     15  N   UNL d   1      52.662  31.533  52.503  0.00  0.00    -0.207 NA
ATOM     16  O   UNL d   1      51.857  31.951  53.597  0.00  0.00    -0.264 OA
BRANCH  15  17
ATOM     17  C   UNL d   1      52.967  30.918  52.960  0.00  0.00     0.087 A 
ATOM     18  C   UNL d   1      52.487  30.293  53.163  0.00  0.00     0.045 A 
ATOM     19  C   UNL d   1      52.788  29.678  53.619  0.00  0.00     0.121 A 
ATOM     20  O   UNL d   1      52.427  28.980  53.904  0.00  0.00    -0.299 OA
ATOM     21  C   UNL d   1      53.576  29.700  53.868  0.00  0.00     0.119 A 
ATOM     22  C   UNL d   1      53.002  28.559  54.339  0.00  0.00     0.304 A 
ATOM     23  O   UNL d   1      53.715  29.004  54.318  0.00  0.00    -0.300 OA
ATOM     24  C   UNL d   1      54.057  30.329  53.664  0.00  0.00     0.028 A 
ATOM     25  C   UNL d   1      53.752  30.943  53.206  0.00  0.00     0.021 A 
ENDBRANCH  15  17
ENDBRANCH  13  14
ENDBRANCH   2  13
BRANCH   1  26
ATOM     26  C   UNL d   1      53.093  34.892  53.582  0.00  0.00     0.200 C 
ATOM     27  O   UNL d   1      53.318  35.628  53.305  0.00  0.00    -0.286 OA
BRANCH  26  28
ATOM     28  C   UNL d   1      53.545  34.516  54.158  0.00  0.00     0.039 A 
ATOM     29  C   UNL d   1      53.259  34.430  54.937  0.00  0.00     0.003 A 
ATOM     30  C   UNL d   1      53.712  34.050  55.525  0.00  0.00     0.000 A 
ATOM     31  C   UNL d   1      54.452  33.756  55.335  0.00  0.00     0.000 A 
ATOM     32  C   UNL d   1      54.728  33.849  54.546  0.00  0.00     0.000 A 
ATOM     33  C   UNL d   1      54.280  34.227  53.957  0.00  0.00     0.003 A 
BRANCH  31  34
ATOM     34  C   UNL d   1      54.904  33.378  55.918  0.00  0.00     0.000 C 
ATOM     35  C   UNL d   1      55.580  33.745  56.187  0.00  0.00     0.000 C 
ENDBRANCH  31  34
ENDBRANCH  26  28
ENDBRANCH   1  26
TORSDOF 6
ENDMDL
