MODEL 1
REMARK VINA RESULT:       0.3      0.000      0.000
REMARK  8 active torsions:
REMARK  status: ('A' for Active; 'I' for Inactive)
REMARK    1  A    between atoms: C_11  and  C_3 
REMARK    2  A    between atoms: C_10  and  C_4 
REMARK    3  A    between atoms: O_18  and  C_10 
REMARK    4  A    between atoms: N_17  and  C_11 
REMARK    5  A    between atoms: C_12  and  C_15 
REMARK    6  A    between atoms: C_15  and  C_23 
REMARK    7  A    between atoms: C_23  and  N_17 
REMARK    8  A    between atoms: C_24  and  O_18 
ROOT
ATOM      1  C   UNL d   1      32.868  21.816 -21.784  0.00  0.00     0.035 A 
ATOM      2  C   UNL d   1      32.831  22.318 -21.125  0.00  0.00     0.100 A 
ATOM      3  C   UNL d   1      33.003  21.007 -21.680  0.00  0.00     0.060 A 
ATOM      4  C   UNL d   1      32.753  22.264 -22.454  0.00  0.00     0.088 A 
ATOM      5  O   UNL d   1      32.696  23.054 -21.396  0.00  0.00    -0.307 OA
ATOM      6  C   UNL d   1      32.647  23.036 -22.198  0.00  0.00     0.105 A 
ATOM      7  C   UNL d   1      33.100  20.706 -20.918  0.00  0.00     0.197 A 
ATOM      8  C   UNL d   1      32.928  22.005 -20.389  0.00  0.00     0.026 A 
ATOM      9  C   UNL d   1      33.064  21.196 -20.285  0.00  0.00     0.041 A 
ATOM     10  O   UNL d   1      33.239  19.879 -20.812  0.00  0.00    -0.286 OA
ATOM     11  C   UNL d   1      32.513  23.675 -22.698  0.00  0.00     0.027 C 
ATOM     12  C   UNL d   1      32.891  22.507 -19.730  0.00  0.00     0.002 A 
ATOM     13  C   UNL d   1      33.161  20.894 -19.523  0.00  0.00     0.003 A 
ATOM     14  C   UNL d   1      33.125  21.387 -18.872  0.00  0.00     0.000 A 
ATOM     15  C   UNL d   1      32.990  22.196 -18.976  0.00  0.00     0.000 A 
ENDROOT
BRANCH   3  16
ATOM     16  C   UNL d   1      33.042  20.484 -22.358  0.00  0.00     0.102 C 
BRANCH  16  17
ATOM     17  N   UNL d   1      32.586  19.779 -22.377  0.00  0.00    -0.242 NA
BRANCH  17  18
ATOM     18  C   UNL d   1      32.872  19.114 -22.727  0.00  0.00     0.105 C 
BRANCH  18  19
ATOM     19  C   UNL d   1      32.360  18.527 -23.001  0.00  0.00     0.091 C 
BRANCH  19  20
ATOM     20  C   UNL d   1      32.595  18.024 -23.617  0.00  0.00     0.213 C 
ATOM     21  O   UNL d   1      33.230  17.507 -23.511  0.00  0.00    -0.644 OA
ATOM     22  O   UNL d   1      32.191  18.044 -24.333  0.00  0.00    -0.644 OA
ENDBRANCH  19  20
ENDBRANCH  18  19
ENDBRANCH  17  18
ENDBRANCH  16  17
ENDBRANCH   3  16
BRANCH   4  23
ATOM     23  C   UNL d   1      32.738  22.031 -23.252  0.00  0.00     0.302 C 
ATOM     24  O   UNL d   1      32.203  21.438 -23.504  0.00  0.00    -0.259 OA
BRANCH  23  25
ATOM     25  O   UNL d   1      33.239  22.371 -23.797  0.00  0.00    -0.271 OA
BRANCH  25  26
ATOM     26  C   UNL d   1      33.035  22.382 -24.581  0.00  0.00     0.126 C 
ATOM     27  C   UNL d   1      32.838  23.099 -24.908  0.00  0.00     0.029 C 
ENDBRANCH  25  26
ENDBRANCH  23  25
ENDBRANCH   4  23
TORSDOF 8
ENDMDL
