MODEL 1
REMARK VINA RESULT:      91.6      0.000      0.000
REMARK  11 active torsions:
REMARK  status: ('A' for Active; 'I' for Inactive)
REMARK    1  A    between atoms: N_2  and  S_1 
REMARK    2  A    between atoms: C_4  and  S_1 
REMARK    3  A    between atoms: C_22  and  N_2 
REMARK    4  A    between atoms: C_3  and  C_8 
REMARK       I    between atoms: N_16  and  C_3 
REMARK    5  A    between atoms: O_28  and  C_7 
REMARK    6  A    between atoms: C_9  and  C_10 
REMARK    7  A    between atoms: O_29  and  C_11 
REMARK    8  A    between atoms: C_30  and  N_16 
REMARK    9  A    between atoms: C_24  and  C_22 
REMARK   10  A    between atoms: C_23  and  C_34 
REMARK   11  A    between atoms: C_34  and  C_30 
ROOT
ATOM      1  C   UNL d   1     -48.375  28.673  35.805  0.00  0.00     0.058 A 
ATOM      2  C   UNL d   1     -48.589  28.023  35.357  0.00  0.00     0.005 A 
ATOM      3  C   UNL d   1     -48.789  28.832  36.511  0.00  0.00     0.005 A 
ATOM      4  C   UNL d   1     -49.616  27.685  36.296  0.00  0.00     0.020 A 
ATOM      5  C   UNL d   1     -49.207  27.525  35.595  0.00  0.00     0.002 A 
ATOM      6  C   UNL d   1     -49.407  28.335  36.750  0.00  0.00     0.002 A 
ENDROOT
BRANCH   1   7
ATOM      7  C   UNL d   1     -47.764  29.166  35.571  0.00  0.00     0.279 C 
ATOM      8  O   UNL d   1     -47.068  28.840  35.262  0.00  0.00    -0.265 OA
ATOM      9  N   UNL d   1     -47.841  29.981  35.641  0.00  0.00    -0.206 NA
BRANCH   9  10
ATOM     10  C   UNL d   1     -47.222  30.474  35.404  0.00  0.00     0.102 C 
BRANCH  10  11
ATOM     11  C   UNL d   1     -47.256  31.270  35.583  0.00  0.00     0.021 C 
BRANCH  11  12
ATOM     12  C   UNL d   1     -47.495  31.799  35.013  0.00  0.00     0.004 A 
ATOM     13  C   UNL d   1     -46.966  32.074  34.443  0.00  0.00     0.026 A 
ATOM     14  C   UNL d   1     -47.215  32.605  33.876  0.00  0.00     0.116 A 
ATOM     15  C   UNL d   1     -48.005  32.871  33.872  0.00  0.00     0.116 A 
ATOM     16  C   UNL d   1     -48.529  32.602  34.433  0.00  0.00     0.026 A 
ATOM     17  C   UNL d   1     -48.277  32.064  35.008  0.00  0.00     0.002 A 
BRANCH  14  18
ATOM     18  O   UNL d   1     -46.682  32.878  33.306  0.00  0.00    -0.326 OA
ATOM     19  C   UNL d   1     -45.810  32.886  33.349  0.00  0.00     0.181 C 
ENDBRANCH  14  18
BRANCH  15  20
ATOM     20  O   UNL d   1     -48.269  33.399  33.315  0.00  0.00    -0.326 OA
ATOM     21  C   UNL d   1     -49.045  33.632  33.306  0.00  0.00     0.181 C 
ENDBRANCH  15  20
ENDBRANCH  11  12
ENDBRANCH  10  11
ENDBRANCH   9  10
ENDBRANCH   1   7
BRANCH   4  22
ATOM     22  C   UNL d   1     -50.234  27.188  36.535  0.00  0.00     0.112 C 
BRANCH  22  23
ATOM     23  N   UNL d   1     -50.708  27.395  37.170  0.00  0.00    -0.157 NA
BRANCH  23  24
ATOM     24  S   UNL d   1     -51.144  26.824  37.581  0.00  0.00     0.285 S 
ATOM     25  O   UNL d   1     -51.572  26.656  36.902  0.00  0.00    -0.198 OA
ATOM     26  O   UNL d   1     -50.708  27.001  38.263  0.00  0.00    -0.198 OA
BRANCH  24  27
ATOM     27  C   UNL d   1     -51.569  26.263  38.001  0.00  0.00     0.105 A 
ATOM     28  C   UNL d   1     -52.275  25.978  37.687  0.00  0.00     0.013 A 
ATOM     29  C   UNL d   1     -52.713  25.406  38.108  0.00  0.00    -0.004 A 
ATOM     30  C   UNL d   1     -52.431  25.131  38.839  0.00  0.00    -0.023 A 
ATOM     31  C   UNL d   1     -51.725  25.419  39.146  0.00  0.00    -0.004 A 
ATOM     32  C   UNL d   1     -51.295  25.987  38.724  0.00  0.00     0.013 A 
BRANCH  30  33
ATOM     33  C   UNL d   1     -52.863  24.565  39.257  0.00  0.00     0.019 C 
ATOM     34  C   UNL d   1     -52.702  24.008  38.670  0.00  0.00     0.004 C 
ATOM     35  C   UNL d   1     -53.018  25.126  39.838  0.00  0.00     0.004 C 
ATOM     36  C   UNL d   1     -53.292  24.000  39.672  0.00  0.00     0.004 C 
ENDBRANCH  30  33
ENDBRANCH  24  27
ENDBRANCH  23  24
ENDBRANCH  22  23
ENDBRANCH   4  22
TORSDOF 11
ENDMDL
MODEL 2
REMARK VINA RESULT:      93.0      2.866      8.188
REMARK  11 active torsions:
REMARK  status: ('A' for Active; 'I' for Inactive)
REMARK    1  A    between atoms: N_2  and  S_1 
REMARK    2  A    between atoms: C_4  and  S_1 
REMARK    3  A    between atoms: C_22  and  N_2 
REMARK    4  A    between atoms: C_3  and  C_8 
REMARK       I    between atoms: N_16  and  C_3 
REMARK    5  A    between atoms: O_28  and  C_7 
REMARK    6  A    between atoms: C_9  and  C_10 
REMARK    7  A    between atoms: O_29  and  C_11 
REMARK    8  A    between atoms: C_30  and  N_16 
REMARK    9  A    between atoms: C_24  and  C_22 
REMARK   10  A    between atoms: C_23  and  C_34 
REMARK   11  A    between atoms: C_34  and  C_30 
ROOT
ATOM      1  C   UNL d   1     -49.950  26.738  34.277  0.00  0.00     0.058 A 
ATOM      2  C   UNL d   1     -49.187  26.529  34.068  0.00  0.00     0.005 A 
ATOM      3  C   UNL d   1     -50.092  27.499  34.587  0.00  0.00     0.005 A 
ATOM      4  C   UNL d   1     -48.702  27.815  34.469  0.00  0.00     0.020 A 
ATOM      5  C   UNL d   1     -48.560  27.061  34.162  0.00  0.00     0.002 A 
ATOM      6  C   UNL d   1     -49.465  28.031  34.681  0.00  0.00     0.002 A 
ENDROOT
BRANCH   1   7
ATOM      7  C   UNL d   1     -50.573  26.213  34.185  0.00  0.00     0.279 C 
ATOM      8  O   UNL d   1     -50.776  25.704  34.808  0.00  0.00    -0.265 OA
ATOM      9  N   UNL d   1     -50.996  26.191  33.481  0.00  0.00    -0.206 NA
BRANCH   9  10
ATOM     10  C   UNL d   1     -51.622  25.660  33.394  0.00  0.00     0.102 C 
BRANCH  10  11
ATOM     11  C   UNL d   1     -51.716  25.061  33.942  0.00  0.00     0.021 C 
BRANCH  11  12
ATOM     12  C   UNL d   1     -52.427  24.669  33.989  0.00  0.00     0.004 A 
ATOM     13  C   UNL d   1     -52.699  24.371  34.708  0.00  0.00     0.026 A 
ATOM     14  C   UNL d   1     -53.414  23.979  34.746  0.00  0.00     0.116 A 
ATOM     15  C   UNL d   1     -53.870  23.878  34.056  0.00  0.00     0.116 A 
ATOM     16  C   UNL d   1     -53.605  24.171  33.345  0.00  0.00     0.026 A 
ATOM     17  C   UNL d   1     -52.881  24.568  33.307  0.00  0.00     0.002 A 
BRANCH  14  18
ATOM     18  O   UNL d   1     -53.682  23.682  35.469  0.00  0.00    -0.326 OA
ATOM     19  C   UNL d   1     -53.241  23.198  36.046  0.00  0.00     0.181 C 
ENDBRANCH  14  18
BRANCH  15  20
ATOM     20  O   UNL d   1     -54.583  23.491  34.076  0.00  0.00    -0.326 OA
ATOM     21  C   UNL d   1     -54.907  23.193  33.395  0.00  0.00     0.181 C 
ENDBRANCH  15  20
ENDBRANCH  11  12
ENDBRANCH  10  11
ENDBRANCH   9  10
ENDBRANCH   1   7
BRANCH   4  22
ATOM     22  C   UNL d   1     -48.075  28.347  34.563  0.00  0.00     0.112 C 
BRANCH  22  23
ATOM     23  N   UNL d   1     -48.114  28.937  35.131  0.00  0.00    -0.157 NA
BRANCH  23  24
ATOM     24  S   UNL d   1     -47.950  29.725  34.940  0.00  0.00     0.285 S 
ATOM     25  O   UNL d   1     -47.197  29.648  35.257  0.00  0.00    -0.198 OA
ATOM     26  O   UNL d   1     -48.711  29.795  34.623  0.00  0.00    -0.198 OA
BRANCH  24  27
ATOM     27  C   UNL d   1     -47.800  30.508  34.746  0.00  0.00     0.105 A 
ATOM     28  C   UNL d   1     -47.275  30.942  35.210  0.00  0.00     0.013 A 
ATOM     29  C   UNL d   1     -47.118  31.738  35.020  0.00  0.00    -0.004 A 
ATOM     30  C   UNL d   1     -47.492  32.084  34.364  0.00  0.00    -0.023 A 
ATOM     31  C   UNL d   1     -48.014  31.645  33.906  0.00  0.00    -0.004 A 
ATOM     32  C   UNL d   1     -48.167  30.855  34.100  0.00  0.00     0.013 A 
BRANCH  30  33
ATOM     33  C   UNL d   1     -47.337  32.872  34.174  0.00  0.00     0.019 C 
ATOM     34  C   UNL d   1     -47.550  32.725  33.391  0.00  0.00     0.004 C 
ATOM     35  C   UNL d   1     -47.127  33.011  34.957  0.00  0.00     0.004 C 
ATOM     36  C   UNL d   1     -47.184  33.657  33.982  0.00  0.00     0.004 C 
ENDBRANCH  30  33
ENDBRANCH  24  27
ENDBRANCH  23  24
ENDBRANCH  22  23
ENDBRANCH   4  22
TORSDOF 11
ENDMDL
