MODEL 1
REMARK VINA RESULT:      -9.1      0.000      0.000
REMARK  3 active torsions:
REMARK  status: ('A' for Active; 'I' for Inactive)
REMARK    1  A    between atoms: N_2  and  C_1 
REMARK    2  A    between atoms: N_3  and  C_1 
REMARK       I    between atoms: C_4  and  N_3 
REMARK    3  A    between atoms: C_9  and  C_4 
ROOT
ATOM      1  C   UNL d   1      53.890  32.686  53.653  0.00  0.00     0.209 C 
ATOM      2  S   UNL d   1      54.547  32.734  53.170  0.00  0.00    -0.038 SA
ENDROOT
BRANCH   1   3
ATOM      3  N   UNL d   1      53.643  33.346  54.069  0.00  0.00    -0.282 N 
ATOM      4  C   UNL d   1      53.057  33.838  53.754  0.00  0.00     0.066 A 
ATOM      5  C   UNL d   1      52.815  34.501  54.179  0.00  0.00     0.016 A 
ATOM      6  C   UNL d   1      52.719  33.665  53.019  0.00  0.00     0.018 A 
ATOM      7  C   UNL d   1      52.233  34.994  53.874  0.00  0.00     0.001 A 
ATOM      8  C   UNL d   1      53.157  34.675  54.922  0.00  0.00     0.003 A 
ATOM      9  C   UNL d   1      51.899  34.823  53.148  0.00  0.00     0.000 A 
ATOM     10  C   UNL d   1      52.142  34.157  52.720  0.00  0.00     0.002 A 
ATOM     11  C   UNL d   1      53.738  34.185  55.232  0.00  0.00     0.019 A 
ATOM     12  C   UNL d   1      53.986  33.521  54.812  0.00  0.00     0.082 A 
ENDBRANCH   1   3
BRANCH   1  13
ATOM     13  N   UNL d   1      53.484  31.971  53.717  0.00  0.00    -0.180 NA
ATOM     14  C   UNL d   1      53.858  31.262  53.492  0.00  0.00     0.281 C 
ATOM     15  O   UNL d   1      54.616  31.276  53.213  0.00  0.00    -0.265 OA
BRANCH  14  16
ATOM     16  C   UNL d   1      53.438  30.554  53.562  0.00  0.00     0.058 A 
ATOM     17  C   UNL d   1      52.834  30.350  53.034  0.00  0.00     0.005 A 
ATOM     18  C   UNL d   1      52.420  29.647  53.107  0.00  0.00     0.000 A 
ATOM     19  C   UNL d   1      52.612  29.122  53.730  0.00  0.00     0.000 A 
ATOM     20  C   UNL d   1      53.207  29.317  54.253  0.00  0.00     0.000 A 
ATOM     21  C   UNL d   1      53.637  30.037  54.186  0.00  0.00     0.005 A 
ENDBRANCH  14  16
ENDBRANCH   1  13
TORSDOF 3
ENDMDL
MODEL 2
REMARK VINA RESULT:      -8.5      1.541      3.792
REMARK  3 active torsions:
REMARK  status: ('A' for Active; 'I' for Inactive)
REMARK    1  A    between atoms: N_2  and  C_1 
REMARK    2  A    between atoms: N_3  and  C_1 
REMARK       I    between atoms: C_4  and  N_3 
REMARK    3  A    between atoms: C_9  and  C_4 
ROOT
ATOM      1  C   UNL d   1      53.097  33.394  53.250  0.00  0.00     0.209 C 
ATOM      2  S   UNL d   1      53.643  33.816  52.813  0.00  0.00    -0.038 SA
ENDROOT
BRANCH   1   3
ATOM      3  N   UNL d   1      53.355  32.868  53.823  0.00  0.00    -0.282 N 
ATOM      4  C   UNL d   1      53.330  32.054  53.678  0.00  0.00     0.066 A 
ATOM      5  C   UNL d   1      53.592  31.533  54.260  0.00  0.00     0.016 A 
ATOM      6  C   UNL d   1      53.046  31.768  52.956  0.00  0.00     0.018 A 
ATOM      7  C   UNL d   1      53.570  30.723  54.125  0.00  0.00     0.001 A 
ATOM      8  C   UNL d   1      53.880  31.823  54.990  0.00  0.00     0.003 A 
ATOM      9  C   UNL d   1      53.289  30.440  53.412  0.00  0.00     0.000 A 
ATOM     10  C   UNL d   1      53.026  30.963  52.826  0.00  0.00     0.002 A 
ATOM     11  C   UNL d   1      53.903  32.631  55.130  0.00  0.00     0.019 A 
ATOM     12  C   UNL d   1      53.643  33.158  54.553  0.00  0.00     0.082 A 
ENDBRANCH   1   3
BRANCH   1  13
ATOM     13  N   UNL d   1      52.292  33.503  53.109  0.00  0.00    -0.180 NA
ATOM     14  C   UNL d   1      52.016  34.238  52.835  0.00  0.00     0.281 C 
ATOM     15  O   UNL d   1      52.537  34.843  52.709  0.00  0.00    -0.265 OA
BRANCH  14  16
ATOM     16  C   UNL d   1      51.207  34.331  52.698  0.00  0.00     0.058 A 
ATOM     17  C   UNL d   1      50.687  34.570  53.296  0.00  0.00     0.005 A 
ATOM     18  C   UNL d   1      49.886  34.662  53.156  0.00  0.00     0.000 A 
ATOM     19  C   UNL d   1      49.584  34.510  52.389  0.00  0.00     0.000 A 
ATOM     20  C   UNL d   1      50.092  34.274  51.795  0.00  0.00     0.000 A 
ATOM     21  C   UNL d   1      50.917  34.178  51.931  0.00  0.00     0.005 A 
ENDBRANCH  14  16
ENDBRANCH   1  13
TORSDOF 3
ENDMDL
MODEL 3
REMARK VINA RESULT:      -8.2      1.955      3.376
REMARK  3 active torsions:
REMARK  status: ('A' for Active; 'I' for Inactive)
REMARK    1  A    between atoms: N_2  and  C_1 
REMARK    2  A    between atoms: N_3  and  C_1 
REMARK       I    between atoms: C_4  and  N_3 
REMARK    3  A    between atoms: C_9  and  C_4 
ROOT
ATOM      1  C   UNL d   1      53.432  32.542  53.557  0.00  0.00     0.209 C 
ATOM      2  S   UNL d   1      53.310  31.735  53.569  0.00  0.00    -0.038 SA
ENDROOT
BRANCH   1   3
ATOM      3  N   UNL d   1      54.186  32.841  53.674  0.00  0.00    -0.282 N 
ATOM      4  C   UNL d   1      54.401  33.143  54.413  0.00  0.00     0.066 A 
ATOM      5  C   UNL d   1      55.161  33.441  54.522  0.00  0.00     0.016 A 
ATOM      6  C   UNL d   1      53.857  33.145  55.037  0.00  0.00     0.018 A 
ATOM      7  C   UNL d   1      55.383  33.743  55.253  0.00  0.00     0.001 A 
ATOM      8  C   UNL d   1      55.711  33.439  53.891  0.00  0.00     0.003 A 
ATOM      9  C   UNL d   1      54.846  33.745  55.869  0.00  0.00     0.000 A 
ATOM     10  C   UNL d   1      54.082  33.445  55.761  0.00  0.00     0.002 A 
ATOM     11  C   UNL d   1      55.494  33.139  53.159  0.00  0.00     0.019 A 
ATOM     12  C   UNL d   1      54.736  32.839  53.043  0.00  0.00     0.082 A 
ENDBRANCH   1   3
BRANCH   1  13
ATOM     13  N   UNL d   1      52.794  33.048  53.427  0.00  0.00    -0.180 NA
ATOM     14  C   UNL d   1      52.190  32.824  52.900  0.00  0.00     0.281 C 
ATOM     15  O   UNL d   1      52.232  32.113  52.518  0.00  0.00    -0.265 OA
BRANCH  14  16
ATOM     16  C   UNL d   1      51.557  33.341  52.780  0.00  0.00     0.058 A 
ATOM     17  C   UNL d   1      50.895  33.342  53.276  0.00  0.00     0.005 A 
ATOM     18  C   UNL d   1      50.269  33.857  53.153  0.00  0.00     0.000 A 
ATOM     19  C   UNL d   1      50.300  34.394  52.512  0.00  0.00     0.000 A 
ATOM     20  C   UNL d   1      50.951  34.397  52.019  0.00  0.00     0.000 A 
ATOM     21  C   UNL d   1      51.598  33.872  52.138  0.00  0.00     0.005 A 
ENDBRANCH  14  16
ENDBRANCH   1  13
TORSDOF 3
ENDMDL
