MODEL 1
REMARK VINA RESULT:       1.4      0.000      0.000
REMARK  6 active torsions:
REMARK  status: ('A' for Active; 'I' for Inactive)
REMARK    1  A    between atoms: N_2  and  C_1 
REMARK       I    between atoms: C_4  and  N_2 
REMARK    2  A    between atoms: C_21  and  N_2 
REMARK    3  A    between atoms: C_6  and  C_4 
REMARK    4  A    between atoms: C_23  and  C_21 
REMARK    5  A    between atoms: C_25  and  C_23 
REMARK    6  A    between atoms: N_24  and  C_25 
ROOT
ATOM      1  N   UNL d   1      32.475  20.418 -22.360  0.00  0.00    -0.252 N 
ATOM      2  C   UNL d   1      32.548  20.401 -21.535  0.00  0.00     0.272 C 
ATOM      3  O   UNL d   1      32.615  19.689 -21.139  0.00  0.00    -0.266 OA
ENDROOT
BRANCH   1   4
ATOM      4  C   UNL d   1      32.471  19.698 -22.783  0.00  0.00     0.182 A 
ATOM      5  N   UNL d   1      31.818  19.371 -23.170  0.00  0.00    -0.222 NA
ATOM      6  C   UNL d   1      32.055  18.657 -23.518  0.00  0.00     0.092 A 
ATOM      7  C   UNL d   1      31.648  18.109 -23.961  0.00  0.00     0.046 A 
ATOM      8  C   UNL d   1      32.853  18.547 -23.344  0.00  0.00     0.052 A 
ATOM      9  C   UNL d   1      32.029  17.433 -24.243  0.00  0.00     0.121 A 
ATOM     10  O   UNL d   1      31.776  16.801 -24.690  0.00  0.00    -0.299 OA
ATOM     11  C   UNL d   1      32.823  17.325 -24.069  0.00  0.00     0.120 A 
ATOM     12  C   UNL d   1      32.415  16.295 -24.796  0.00  0.00     0.304 A 
ATOM     13  O   UNL d   1      33.062  16.614 -24.415  0.00  0.00    -0.300 OA
ATOM     14  C   UNL d   1      33.241  17.879 -23.620  0.00  0.00     0.034 A 
ATOM     15  S   UNL d   1      33.116  19.187 -22.890  0.00  0.00    -0.048 SA
ENDBRANCH   1   4
BRANCH   1  16
ATOM     16  C   UNL d   1      32.407  21.137 -22.760  0.00  0.00     0.086 C 
BRANCH  16  17
ATOM     17  C   UNL d   1      32.819  21.253 -23.472  0.00  0.00     0.038 C 
BRANCH  17  18
ATOM     18  C   UNL d   1      33.031  22.017 -23.703  0.00  0.00     0.082 C 
BRANCH  18  19
ATOM     19  N   UNL d   1      33.148  22.189 -24.501  0.00  0.00    -0.300 N 
ATOM     20  C   UNL d   1      33.172  21.579 -25.053  0.00  0.00     0.100 C 
ATOM     21  C   UNL d   1      33.240  22.972 -24.745  0.00  0.00     0.100 C 
ENDBRANCH  18  19
ENDBRANCH  17  18
ENDBRANCH  16  17
ENDBRANCH   1  16
BRANCH   2  22
ATOM     22  C   UNL d   1      32.551  21.117 -21.119  0.00  0.00     0.087 A 
ATOM     23  S   UNL d   1      33.063  21.331 -20.495  0.00  0.00    -0.071 SA
ATOM     24  C   UNL d   1      32.857  22.097 -20.254  0.00  0.00     0.087 A 
ATOM     25 CL   UNL d   1      33.222  22.544 -19.640  0.00  0.00    -0.075 Cl
ATOM     26  C   UNL d   1      32.230  22.348 -20.721  0.00  0.00     0.019 A 
ATOM     27  C   UNL d   1      32.040  21.751 -21.250  0.00  0.00     0.013 A 
ENDBRANCH   2  22
TORSDOF 6
ENDMDL
MODEL 2
REMARK VINA RESULT:       3.2      1.820      2.817
REMARK  6 active torsions:
REMARK  status: ('A' for Active; 'I' for Inactive)
REMARK    1  A    between atoms: N_2  and  C_1 
REMARK       I    between atoms: C_4  and  N_2 
REMARK    2  A    between atoms: C_21  and  N_2 
REMARK    3  A    between atoms: C_6  and  C_4 
REMARK    4  A    between atoms: C_23  and  C_21 
REMARK    5  A    between atoms: C_25  and  C_23 
REMARK    6  A    between atoms: N_24  and  C_25 
ROOT
ATOM      1  N   UNL d   1      33.116  20.480 -23.514  0.00  0.00    -0.252 N 
ATOM      2  C   UNL d   1      33.045  20.888 -24.230  0.00  0.00     0.272 C 
ATOM      3  O   UNL d   1      32.922  20.483 -24.929  0.00  0.00    -0.266 OA
ENDROOT
BRANCH   1   4
ATOM      4  C   UNL d   1      33.060  19.647 -23.513  0.00  0.00     0.182 A 
ATOM      5  N   UNL d   1      33.038  19.167 -22.840  0.00  0.00    -0.222 NA
ATOM      6  C   UNL d   1      32.980  18.377 -23.087  0.00  0.00     0.092 A 
ATOM      7  C   UNL d   1      32.940  17.681 -22.669  0.00  0.00     0.046 A 
ATOM      8  C   UNL d   1      32.967  18.375 -23.911  0.00  0.00     0.052 A 
ATOM      9  C   UNL d   1      32.885  16.959 -23.065  0.00  0.00     0.121 A 
ATOM     10  O   UNL d   1      32.836  16.188 -22.807  0.00  0.00    -0.299 OA
ATOM     11  C   UNL d   1      32.871  16.957 -23.885  0.00  0.00     0.120 A 
ATOM     12  C   UNL d   1      32.793  15.702 -23.468  0.00  0.00     0.304 A 
ATOM     13  O   UNL d   1      32.814  16.171 -24.134  0.00  0.00    -0.300 OA
ATOM     14  C   UNL d   1      32.912  17.662 -24.314  0.00  0.00     0.034 A 
ATOM     15  S   UNL d   1      33.016  19.156 -24.180  0.00  0.00    -0.048 SA
ENDBRANCH   1   4
BRANCH   1  16
ATOM     16  C   UNL d   1      33.241  20.890 -22.807  0.00  0.00     0.086 C 
BRANCH  16  17
ATOM     17  C   UNL d   1      32.784  20.707 -22.139  0.00  0.00     0.038 C 
BRANCH  17  18
ATOM     18  C   UNL d   1      32.897  21.128 -21.437  0.00  0.00     0.082 C 
BRANCH  18  19
ATOM     19  N   UNL d   1      32.397  21.003 -20.795  0.00  0.00    -0.300 N 
ATOM     20  C   UNL d   1      32.651  20.540 -20.162  0.00  0.00     0.100 C 
ATOM     21  C   UNL d   1      31.644  21.340 -20.785  0.00  0.00     0.100 C 
ENDBRANCH  18  19
ENDBRANCH  17  18
ENDBRANCH  16  17
ENDBRANCH   1  16
BRANCH   2  22
ATOM     22  C   UNL d   1      33.102  21.714 -24.227  0.00  0.00     0.087 A 
ATOM     23  S   UNL d   1      33.089  22.220 -24.892  0.00  0.00    -0.071 SA
ATOM     24  C   UNL d   1      33.162  22.999 -24.616  0.00  0.00     0.087 A 
ATOM     25 CL   UNL d   1      33.176  23.697 -25.087  0.00  0.00    -0.075 Cl
ATOM     26  C   UNL d   1      33.217  22.971 -23.797  0.00  0.00     0.019 A 
ATOM     27  C   UNL d   1      33.181  22.189 -23.557  0.00  0.00     0.013 A 
ENDBRANCH   2  22
TORSDOF 6
ENDMDL
