MODEL 1
REMARK VINA RESULT:      -4.8      0.000      0.000
REMARK  3 active torsions:
REMARK  status: ('A' for Active; 'I' for Inactive)
REMARK    1  A    between atoms: C_2  and  C_1 
REMARK       I    between atoms: N_3  and  C_2 
REMARK    2  A    between atoms: C_21  and  N_4 
REMARK    3  A    between atoms: C_20  and  C_21 
ROOT
ATOM      1  C   UNL d   1      33.033  20.555 -21.326  0.00  0.00     0.255 C 
ATOM      2  N   UNL d   1      33.079  19.969 -21.932  0.00  0.00    -0.271 N 
ATOM      3  N   UNL d   1      33.172  18.808 -23.106  0.00  0.00    -0.300 N 
ATOM      4  O   UNL d   1      33.098  20.343 -20.593  0.00  0.00    -0.270 OA
ATOM      5  C   UNL d   1      33.193  19.179 -21.740  0.00  0.00     0.102 A 
ATOM      6  C   UNL d   1      33.011  20.186 -22.724  0.00  0.00     0.102 A 
ATOM      7  C   UNL d   1      33.056  19.606 -23.324  0.00  0.00     0.100 A 
ATOM      8  C   UNL d   1      33.241  18.591 -22.307  0.00  0.00     0.100 A 
ENDROOT
BRANCH   1   9
ATOM      9  C   UNL d   1      32.922  21.328 -21.523  0.00  0.00     0.137 A 
ATOM     10  C   UNL d   1      32.541  21.605 -20.856  0.00  0.00     0.033 A 
ATOM     11  C   UNL d   1      32.281  22.376 -20.732  0.00  0.00     0.046 A 
ATOM     12  C   UNL d   1      32.243  23.097 -21.059  0.00  0.00    -0.015 A 
ATOM     13  C   UNL d   1      32.385  22.917 -21.263  0.00  0.00    -0.022 A 
ATOM     14  C   UNL d   1      32.564  23.066 -21.735  0.00  0.00     0.027 A 
ATOM     15  C   UNL d   1      32.785  22.291 -21.773  0.00  0.00    -0.117 A 
ATOM     16  C   UNL d   1      32.729  23.562 -22.373  0.00  0.00     0.006 A 
ATOM     17  C   UNL d   1      32.860  22.580 -22.099  0.00  0.00    -0.006 A 
ATOM     18  C   UNL d   1      33.083  21.819 -22.149  0.00  0.00    -0.007 A 
ENDBRANCH   1   9
BRANCH   3  19
ATOM     19  C   UNL d   1      33.224  18.244 -23.529  0.00  0.00     0.080 C 
BRANCH  19  20
ATOM     20  C   UNL d   1      32.558  17.960 -23.910  0.00  0.00     0.020 A 
ATOM     21  C   UNL d   1      32.130  17.321 -23.603  0.00  0.00     0.028 A 
ATOM     22  C   UNL d   1      31.454  17.029 -23.987  0.00  0.00     0.119 A 
ATOM     23  O   UNL d   1      30.961  16.420 -23.787  0.00  0.00    -0.300 OA
ATOM     24  C   UNL d   1      31.189  17.376 -24.695  0.00  0.00     0.119 A 
ATOM     25  C   UNL d   1      30.348  16.355 -24.375  0.00  0.00     0.304 A 
ATOM     26  O   UNL d   1      30.513  16.958 -24.924  0.00  0.00    -0.300 OA
ATOM     27  C   UNL d   1      31.618  18.024 -25.011  0.00  0.00     0.026 A 
ATOM     28  C   UNL d   1      32.291  18.310 -24.625  0.00  0.00     0.004 A 
ENDBRANCH  19  20
ENDBRANCH   3  19
TORSDOF 3
ENDMDL
MODEL 2
REMARK VINA RESULT:      -3.8      1.588      5.567
REMARK  3 active torsions:
REMARK  status: ('A' for Active; 'I' for Inactive)
REMARK    1  A    between atoms: C_2  and  C_1 
REMARK       I    between atoms: N_3  and  C_2 
REMARK    2  A    between atoms: C_21  and  N_4 
REMARK    3  A    between atoms: C_20  and  C_21 
ROOT
ATOM      1  C   UNL d   1      30.554  16.300 -24.541  0.00  0.00     0.255 C 
ATOM      2  N   UNL d   1      31.227  16.733 -24.270  0.00  0.00    -0.271 N 
ATOM      3  N   UNL d   1      32.555  17.573 -23.753  0.00  0.00    -0.300 N 
ATOM      4  O   UNL d   1      30.642  15.777 -25.093  0.00  0.00    -0.270 OA
ATOM      5  C   UNL d   1      31.969  16.597 -24.595  0.00  0.00     0.102 A 
ATOM      6  C   UNL d   1      31.144  17.298 -23.676  0.00  0.00     0.102 A 
ATOM      7  C   UNL d   1      31.809  17.727 -23.409  0.00  0.00     0.100 A 
ATOM      8  C   UNL d   1      32.636  17.003 -24.352  0.00  0.00     0.100 A 
ENDROOT
BRANCH   1   9
ATOM      9  C   UNL d   1      29.831  16.440 -24.216  0.00  0.00     0.137 A 
ATOM     10  C   UNL d   1      29.505  15.691 -24.237  0.00  0.00     0.033 A 
ATOM     11  C   UNL d   1      28.753  15.483 -23.973  0.00  0.00     0.046 A 
ATOM     12  C   UNL d   1      28.091  15.768 -23.643  0.00  0.00    -0.015 A 
ATOM     13  C   UNL d   1      28.282  16.006 -23.673  0.00  0.00    -0.022 A 
ATOM     14  C   UNL d   1      28.182  16.503 -23.530  0.00  0.00     0.027 A 
ATOM     15  C   UNL d   1      28.929  16.618 -23.811  0.00  0.00    -0.117 A 
ATOM     16  C   UNL d   1      27.763  17.146 -23.226  0.00  0.00     0.006 A 
ATOM     17  C   UNL d   1      28.681  16.943 -23.643  0.00  0.00    -0.006 A 
ATOM     18  C   UNL d   1      29.416  17.070 -23.917  0.00  0.00    -0.007 A 
ENDBRANCH   1   9
BRANCH   3  19
ATOM     19  C   UNL d   1      33.175  17.876 -23.602  0.00  0.00     0.080 C 
BRANCH  19  20
ATOM     20  C   UNL d   1      33.192  18.629 -23.283  0.00  0.00     0.020 A 
ATOM     21  C   UNL d   1      33.192  18.747 -22.463  0.00  0.00     0.028 A 
ATOM     22  C   UNL d   1      33.210  19.510 -22.137  0.00  0.00     0.119 A 
ATOM     23  O   UNL d   1      33.213  19.747 -21.363  0.00  0.00    -0.300 OA
ATOM     24  C   UNL d   1      33.227  20.179 -22.630  0.00  0.00     0.119 A 
ATOM     25  C   UNL d   1      33.233  20.598 -21.335  0.00  0.00     0.304 A 
ATOM     26  O   UNL d   1      33.241  20.839 -22.131  0.00  0.00    -0.300 OA
ATOM     27  C   UNL d   1      33.227  20.067 -23.461  0.00  0.00     0.026 A 
ATOM     28  C   UNL d   1      33.210  19.304 -23.782  0.00  0.00     0.004 A 
ENDBRANCH  19  20
ENDBRANCH   3  19
TORSDOF 3
ENDMDL
