MODEL 1
REMARK VINA RESULT:      16.7      0.000      0.000
REMARK  4 active torsions:
REMARK  status: ('A' for Active; 'I' for Inactive)
REMARK    1  A    between atoms: C_3  and  N_1 
REMARK       I    between atoms: C_4  and  N_1 
REMARK    2  A    between atoms: C_9  and  C_4 
REMARK    3  A    between atoms: C_5  and  C_10 
REMARK    4  A    between atoms: C_10  and  C_9 
ROOT
ATOM      1  N   UNL d   1     -55.993 -98.755 -45.151  0.00  0.00    -0.189 NA
ATOM      2  C   UNL d   1     -55.451 -99.371 -44.973  0.00  0.00     0.281 C 
ATOM      3  O   UNL d   1     -54.714 -99.376 -45.315  0.00  0.00    -0.265 OA
ENDROOT
BRANCH   1   4
ATOM      4  C   UNL d   1     -56.750 -98.768 -44.788  0.00  0.00     0.166 A 
ATOM      5  N   UNL d   1     -57.437 -98.792 -45.248  0.00  0.00    -0.225 NA
ATOM      6  C   UNL d   1     -58.177 -98.804 -44.915  0.00  0.00     0.107 A 
ATOM      7  C   UNL d   1     -58.259 -98.794 -44.116  0.00  0.00     0.054 A 
ATOM      8  C   UNL d   1     -57.596 -98.771 -43.607  0.00  0.00     0.011 A 
ATOM      9 BR   UNL d   1     -59.059 -98.809 -43.806  0.00  0.00    -0.048 Br
ATOM     10  C   UNL d   1     -56.854 -98.758 -43.935  0.00  0.00     0.039 A 
ENDBRANCH   1   4
BRANCH   2  11
ATOM     11  C   UNL d   1     -55.661 -99.995 -44.437  0.00  0.00     0.069 C 
BRANCH  11  12
ATOM     12  C   UNL d   1     -55.076-100.485 -44.164  0.00  0.00     0.075 C 
BRANCH  12  13
ATOM     13  C   UNL d   1     -55.218-101.296 -44.106  0.00  0.00     0.211 C 
ATOM     14  O   UNL d   1     -55.014-101.798 -44.746  0.00  0.00    -0.644 OA
ATOM     15  O   UNL d   1     -55.548-101.598 -43.443  0.00  0.00    -0.644 OA
ENDBRANCH  12  13
ENDBRANCH  11  12
ENDBRANCH   2  11
TORSDOF 4
ENDMDL
