MODEL 1
REMARK VINA RESULT:      -2.9      0.000      0.000
REMARK  5 active torsions:
REMARK  status: ('A' for Active; 'I' for Inactive)
REMARK    1  A    between atoms: C_3  and  N_1 
REMARK    2  A    between atoms: C_6  and  C_3 
REMARK    3  A    between atoms: C_9  and  C_3 
REMARK    4  A    between atoms: N_5  and  C_6 
REMARK    5  A    between atoms: O_18  and  C_14 
ROOT
ATOM      1  C   UNL d   1      57.038   0.109  32.451  0.00  0.00     0.106 C 
ENDROOT
BRANCH   1   2
ATOM      2  N   UNL d   1      56.468  -0.431  32.736  0.00  0.00    -0.228 N 
ATOM      3  N   UNL d   1      56.473  -1.252  32.797  0.00  0.00    -0.165 NA
ATOM      4  C   UNL d   1      55.742  -1.470  33.127  0.00  0.00     0.103 A 
ATOM      5  C   UNL d   1      55.482  -2.235  33.297  0.00  0.00     0.022 C 
ATOM      6  C   UNL d   1      55.309  -0.775  33.259  0.00  0.00     0.040 A 
ATOM      7  C   UNL d   1      55.749  -0.148  33.022  0.00  0.00     0.085 A 
ATOM      8  C   UNL d   1      55.503   0.654  33.066  0.00  0.00     0.021 C 
ENDBRANCH   1   2
BRANCH   1   9
ATOM      9  C   UNL d   1      57.348   0.682  32.975  0.00  0.00     0.167 C 
BRANCH   9  10
ATOM     10  N   UNL d   1      58.058   0.552  33.362  0.00  0.00    -0.111 N 
ATOM     11  O   UNL d   1      58.763   0.538  32.936  0.00  0.00    -0.532 OA
ATOM     12  O   UNL d   1      58.063   0.437  34.172  0.00  0.00    -0.532 OA
ENDBRANCH   9  10
ENDBRANCH   1   9
BRANCH   1  13
ATOM     13  C   UNL d   1      57.288   0.070  31.655  0.00  0.00     0.019 A 
ATOM     14  C   UNL d   1      57.779  -0.543  31.382  0.00  0.00     0.004 A 
ATOM     15  C   UNL d   1      57.998  -0.541  30.597  0.00  0.00     0.024 A 
ATOM     16  C   UNL d   1      57.728   0.066  30.094  0.00  0.00     0.094 A 
ATOM     17  C   UNL d   1      57.258   0.647  30.371  0.00  0.00     0.024 A 
ATOM     18  C   UNL d   1      57.026   0.661  31.160  0.00  0.00     0.004 A 
BRANCH  16  19
ATOM     19  O   UNL d   1      57.958   0.060  29.290  0.00  0.00    -0.328 OA
ATOM     20  C   UNL d   1      58.420   0.682  28.979  0.00  0.00     0.181 C 
ENDBRANCH  16  19
ENDBRANCH   1  13
TORSDOF 5
ENDMDL
MODEL 2
REMARK VINA RESULT:      -2.0      2.031      4.202
REMARK  5 active torsions:
REMARK  status: ('A' for Active; 'I' for Inactive)
REMARK    1  A    between atoms: C_3  and  N_1 
REMARK    2  A    between atoms: C_6  and  C_3 
REMARK    3  A    between atoms: C_9  and  C_3 
REMARK    4  A    between atoms: N_5  and  C_6 
REMARK    5  A    between atoms: O_18  and  C_14 
ROOT
ATOM      1  C   UNL d   1      58.401  -0.435  29.944  0.00  0.00     0.106 C 
ENDROOT
BRANCH   1   2
ATOM      2  N   UNL d   1      59.159  -0.083  29.954  0.00  0.00    -0.228 N 
ATOM      3  N   UNL d   1      59.782  -0.138  30.488  0.00  0.00    -0.165 NA
ATOM      4  C   UNL d   1      60.391   0.343  30.193  0.00  0.00     0.103 A 
ATOM      5  C   UNL d   1      61.133   0.472  30.532  0.00  0.00     0.022 C 
ATOM      6  C   UNL d   1      60.123   0.681  29.484  0.00  0.00     0.040 A 
ATOM      7  C   UNL d   1      59.378   0.422  29.341  0.00  0.00     0.085 A 
ATOM      8  C   UNL d   1      58.915   0.639  28.675  0.00  0.00     0.021 C 
ENDBRANCH   1   2
BRANCH   1   9
ATOM      9  C   UNL d   1      58.227  -1.001  29.354  0.00  0.00     0.167 C 
BRANCH   9  10
ATOM     10  N   UNL d   1      58.400  -1.793  29.471  0.00  0.00    -0.111 N 
ATOM     11  O   UNL d   1      59.131  -2.094  29.236  0.00  0.00    -0.532 OA
ATOM     12  O   UNL d   1      57.846  -2.282  29.821  0.00  0.00    -0.532 OA
ENDBRANCH   9  10
ENDBRANCH   1   9
BRANCH   1  13
ATOM     13  C   UNL d   1      57.834  -0.220  30.518  0.00  0.00     0.019 A 
ATOM     14  C   UNL d   1      57.429   0.505  30.481  0.00  0.00     0.004 A 
ATOM     15  C   UNL d   1      56.884   0.673  31.063  0.00  0.00     0.024 A 
ATOM     16  C   UNL d   1      56.747   0.123  31.673  0.00  0.00     0.094 A 
ATOM     17  C   UNL d   1      57.143  -0.569  31.695  0.00  0.00     0.024 A 
ATOM     18  C   UNL d   1      57.698  -0.756  31.116  0.00  0.00     0.004 A 
BRANCH  16  19
ATOM     19  O   UNL d   1      56.186   0.303  32.265  0.00  0.00    -0.328 OA
ATOM     20  C   UNL d   1      56.081  -0.210  32.916  0.00  0.00     0.181 C 
ENDBRANCH  16  19
ENDBRANCH   1  13
TORSDOF 5
ENDMDL
MODEL 3
REMARK VINA RESULT:      -1.8      1.307      3.141
REMARK  5 active torsions:
REMARK  status: ('A' for Active; 'I' for Inactive)
REMARK    1  A    between atoms: C_3  and  N_1 
REMARK    2  A    between atoms: C_6  and  C_3 
REMARK    3  A    between atoms: C_9  and  C_3 
REMARK    4  A    between atoms: N_5  and  C_6 
REMARK    5  A    between atoms: O_18  and  C_14 
ROOT
ATOM      1  C   UNL d   1      57.437   0.020  31.726  0.00  0.00     0.106 C 
ENDROOT
BRANCH   1   2
ATOM      2  N   UNL d   1      57.633  -0.477  31.084  0.00  0.00    -0.228 N 
ATOM      3  N   UNL d   1      57.675  -1.296  31.018  0.00  0.00    -0.165 NA
ATOM      4  C   UNL d   1      57.901  -1.460  30.236  0.00  0.00     0.103 A 
ATOM      5  C   UNL d   1      58.018  -2.204  29.897  0.00  0.00     0.022 C 
ATOM      6  C   UNL d   1      57.992  -0.735  29.843  0.00  0.00     0.040 A 
ATOM      7  C   UNL d   1      57.829  -0.142  30.358  0.00  0.00     0.085 A 
ATOM      8  C   UNL d   1      57.859   0.677  30.170  0.00  0.00     0.021 C 
ENDBRANCH   1   2
BRANCH   1   9
ATOM      9  C   UNL d   1      57.925   0.680  31.888  0.00  0.00     0.167 C 
BRANCH   9  10
ATOM     10  N   UNL d   1      58.492   0.644  32.479  0.00  0.00    -0.111 N 
ATOM     11  O   UNL d   1      59.290   0.592  32.281  0.00  0.00    -0.532 OA
ATOM     12  O   UNL d   1      58.261   0.660  33.264  0.00  0.00    -0.532 OA
ENDBRANCH   9  10
ENDBRANCH   1   9
BRANCH   1  13
ATOM     13  C   UNL d   1      56.764  -0.146  32.192  0.00  0.00     0.019 A 
ATOM     14  C   UNL d   1      56.608  -0.912  32.475  0.00  0.00     0.004 A 
ATOM     15  C   UNL d   1      55.939  -1.028  32.926  0.00  0.00     0.024 A 
ATOM     16  C   UNL d   1      55.435  -0.385  33.091  0.00  0.00     0.094 A 
ATOM     17  C   UNL d   1      55.598   0.344  32.812  0.00  0.00     0.024 A 
ATOM     18  C   UNL d   1      56.269   0.480  32.355  0.00  0.00     0.004 A 
BRANCH  16  19
ATOM     19  O   UNL d   1      54.752  -0.513  33.554  0.00  0.00    -0.328 OA
ATOM     20  C   UNL d   1      54.380   0.126  33.942  0.00  0.00     0.181 C 
ENDBRANCH  16  19
ENDBRANCH   1  13
TORSDOF 5
ENDMDL
MODEL 4
REMARK VINA RESULT:      -0.7      2.365      4.156
REMARK  5 active torsions:
REMARK  status: ('A' for Active; 'I' for Inactive)
REMARK    1  A    between atoms: C_3  and  N_1 
REMARK    2  A    between atoms: C_6  and  C_3 
REMARK    3  A    between atoms: C_9  and  C_3 
REMARK    4  A    between atoms: N_5  and  C_6 
REMARK    5  A    between atoms: O_18  and  C_14 
ROOT
ATOM      1  C   UNL d   1      58.831  -0.532  29.935  0.00  0.00     0.106 C 
ENDROOT
BRANCH   1   2
ATOM      2  N   UNL d   1      59.046  -1.257  29.581  0.00  0.00    -0.228 N 
ATOM      3  N   UNL d   1      58.628  -1.777  29.099  0.00  0.00    -0.165 NA
ATOM      4  C   UNL d   1      59.143  -2.404  28.923  0.00  0.00     0.103 A 
ATOM      5  C   UNL d   1      58.980  -3.066  28.456  0.00  0.00     0.022 C 
ATOM      6  C   UNL d   1      59.865  -2.251  29.303  0.00  0.00     0.040 A 
ATOM      7  C   UNL d   1      59.803  -1.557  29.700  0.00  0.00     0.085 A 
ATOM      8  C   UNL d   1      60.419  -1.211  30.156  0.00  0.00     0.021 C 
ENDBRANCH   1   2
BRANCH   1   9
ATOM      9  C   UNL d   1      59.226   0.165  29.698  0.00  0.00     0.167 C 
BRANCH   9  10
ATOM     10  N   UNL d   1      59.071   0.505  28.969  0.00  0.00    -0.111 N 
ATOM     11  O   UNL d   1      59.692   0.682  28.456  0.00  0.00    -0.532 OA
ATOM     12  O   UNL d   1      58.299   0.668  28.754  0.00  0.00    -0.532 OA
ENDBRANCH   9  10
ENDBRANCH   1   9
BRANCH   1  13
ATOM     13  C   UNL d   1      58.231  -0.513  30.515  0.00  0.00     0.019 A 
ATOM     14  C   UNL d   1      57.682  -1.134  30.596  0.00  0.00     0.004 A 
ATOM     15  C   UNL d   1      57.113  -1.073  31.177  0.00  0.00     0.024 A 
ATOM     16  C   UNL d   1      57.095  -0.401  31.668  0.00  0.00     0.094 A 
ATOM     17  C   UNL d   1      57.627   0.186  31.579  0.00  0.00     0.024 A 
ATOM     18  C   UNL d   1      58.209   0.142  30.998  0.00  0.00     0.004 A 
BRANCH  16  19
ATOM     19  O   UNL d   1      56.508  -0.347  32.261  0.00  0.00    -0.328 OA
ATOM     20  C   UNL d   1      56.202  -1.037  32.616  0.00  0.00     0.181 C 
ENDBRANCH  16  19
ENDBRANCH   1  13
TORSDOF 5
ENDMDL
MODEL 5
REMARK VINA RESULT:      -0.3      1.863      3.955
REMARK  5 active torsions:
REMARK  status: ('A' for Active; 'I' for Inactive)
REMARK    1  A    between atoms: C_3  and  N_1 
REMARK    2  A    between atoms: C_6  and  C_3 
REMARK    3  A    between atoms: C_9  and  C_3 
REMARK    4  A    between atoms: N_5  and  C_6 
REMARK    5  A    between atoms: O_18  and  C_14 
ROOT
ATOM      1  C   UNL d   1      56.294  -0.395  32.753  0.00  0.00     0.106 C 
ENDROOT
BRANCH   1   2
ATOM      2  N   UNL d   1      56.991  -0.026  32.477  0.00  0.00    -0.228 N 
ATOM      3  N   UNL d   1      57.744   0.035  32.803  0.00  0.00    -0.165 NA
ATOM      4  C   UNL d   1      58.202   0.471  32.264  0.00  0.00     0.103 A 
ATOM      5  C   UNL d   1      58.997   0.680  32.341  0.00  0.00     0.022 C 
ATOM      6  C   UNL d   1      57.715   0.666  31.621  0.00  0.00     0.040 A 
ATOM      7  C   UNL d   1      56.984   0.364  31.752  0.00  0.00     0.085 A 
ATOM      8  C   UNL d   1      56.332   0.443  31.227  0.00  0.00     0.021 C 
ENDBRANCH   1   2
BRANCH   1   9
ATOM      9  C   UNL d   1      55.993  -1.052  32.332  0.00  0.00     0.167 C 
BRANCH   9  10
ATOM     10  N   UNL d   1      55.894  -1.775  32.703  0.00  0.00    -0.111 N 
ATOM     11  O   UNL d   1      56.529  -2.298  32.764  0.00  0.00    -0.532 OA
ATOM     12  O   UNL d   1      55.163  -1.976  33.012  0.00  0.00    -0.532 OA
ENDBRANCH   9  10
ENDBRANCH   1   9
BRANCH   1  13
ATOM     13  C   UNL d   1      55.912  -0.107  33.436  0.00  0.00     0.019 A 
ATOM     14  C   UNL d   1      55.275   0.427  33.388  0.00  0.00     0.004 A 
ATOM     15  C   UNL d   1      54.932   0.682  34.082  0.00  0.00     0.024 A 
ATOM     16  C   UNL d   1      55.222   0.406  34.813  0.00  0.00     0.094 A 
ATOM     17  C   UNL d   1      55.833  -0.105  34.843  0.00  0.00     0.024 A 
ATOM     18  C   UNL d   1      56.192  -0.374  34.153  0.00  0.00     0.004 A 
BRANCH  16  19
ATOM     19  O   UNL d   1      54.865   0.673  35.519  0.00  0.00    -0.328 OA
ATOM     20  C   UNL d   1      55.226   0.525  36.257  0.00  0.00     0.181 C 
ENDBRANCH  16  19
ENDBRANCH   1  13
TORSDOF 5
ENDMDL
MODEL 6
REMARK VINA RESULT:       0.1      1.495      2.064
REMARK  5 active torsions:
REMARK  status: ('A' for Active; 'I' for Inactive)
REMARK    1  A    between atoms: C_3  and  N_1 
REMARK    2  A    between atoms: C_6  and  C_3 
REMARK    3  A    between atoms: C_9  and  C_3 
REMARK    4  A    between atoms: N_5  and  C_6 
REMARK    5  A    between atoms: O_18  and  C_14 
ROOT
ATOM      1  C   UNL d   1      57.046  -0.196  31.911  0.00  0.00     0.106 C 
ENDROOT
BRANCH   1   2
ATOM      2  N   UNL d   1      57.109   0.095  32.691  0.00  0.00    -0.228 N 
ATOM      3  N   UNL d   1      57.734   0.097  33.227  0.00  0.00    -0.165 NA
ATOM      4  C   UNL d   1      57.455   0.467  33.916  0.00  0.00     0.103 A 
ATOM      5  C   UNL d   1      57.876   0.603  34.613  0.00  0.00     0.022 C 
ATOM      6  C   UNL d   1      56.664   0.682  33.784  0.00  0.00     0.040 A 
ATOM      7  C   UNL d   1      56.458   0.456  33.043  0.00  0.00     0.085 A 
ATOM      8  C   UNL d   1      55.700   0.575  32.700  0.00  0.00     0.021 C 
ENDBRANCH   1   2
BRANCH   1   9
ATOM      9  C   UNL d   1      56.420  -0.718  31.724  0.00  0.00     0.167 C 
BRANCH   9  10
ATOM     10  N   UNL d   1      56.495  -1.523  31.856  0.00  0.00    -0.111 N 
ATOM     11  O   UNL d   1      56.087  -1.878  32.478  0.00  0.00    -0.532 OA
ATOM     12  O   UNL d   1      56.975  -1.970  31.367  0.00  0.00    -0.532 OA
ENDBRANCH   9  10
ENDBRANCH   1   9
BRANCH   1  13
ATOM     13  C   UNL d   1      57.603   0.036  31.334  0.00  0.00     0.019 A 
ATOM     14  C   UNL d   1      58.323   0.397  31.542  0.00  0.00     0.004 A 
ATOM     15  C   UNL d   1      58.837   0.606  30.945  0.00  0.00     0.024 A 
ATOM     16  C   UNL d   1      58.632   0.456  30.151  0.00  0.00     0.094 A 
ATOM     17  C   UNL d   1      57.938   0.109  29.967  0.00  0.00     0.024 A 
ATOM     18  C   UNL d   1      57.407  -0.109  30.556  0.00  0.00     0.004 A 
BRANCH  16  19
ATOM     19  O   UNL d   1      59.165   0.674  29.546  0.00  0.00    -0.328 OA
ATOM     20  C   UNL d   1      59.880   0.255  29.442  0.00  0.00     0.181 C 
ENDBRANCH  16  19
ENDBRANCH   1  13
TORSDOF 5
ENDMDL
