MODEL 1
REMARK VINA RESULT:       6.9      0.000      0.000
REMARK  4 active torsions:
REMARK  status: ('A' for Active; 'I' for Inactive)
REMARK    1  A    between atoms: S_5  and  C_2 
REMARK    2  A    between atoms: C_15  and  S_5 
REMARK    3  A    between atoms: N_11  and  C_8 
REMARK    4  A    between atoms: C_12  and  N_11 
ROOT
ATOM      1  C   UNL d   1      29.737  17.578 -23.766  0.00  0.00     0.197 A 
ATOM      2  C   UNL d   1      29.976  18.355 -23.927  0.00  0.00     0.227 A 
ATOM      3  N   UNL d   1      28.911  17.569 -23.735  0.00  0.00    -0.192 N 
ATOM      4  N   UNL d   1      30.161  16.881 -23.644  0.00  0.00    -0.206 NA
ATOM      5  N   UNL d   1      29.299  18.824 -23.996  0.00  0.00    -0.115 NA
ATOM      6  N   UNL d   1      28.637  18.339 -23.877  0.00  0.00    -0.058 NA
ATOM      7  C   UNL d   1      29.760  16.171 -23.490  0.00  0.00     0.166 A 
ATOM      8  C   UNL d   1      28.936  16.168 -23.461  0.00  0.00     0.054 A 
ATOM      9  C   UNL d   1      28.505  16.862 -23.582  0.00  0.00     0.089 A 
ATOM     10  C   UNL d   1      28.530  15.460 -23.307  0.00  0.00     0.005 A 
ATOM     11  C   UNL d   1      27.682  16.854 -23.551  0.00  0.00     0.019 A 
ATOM     12  C   UNL d   1      27.707  15.454 -23.277  0.00  0.00     0.000 A 
ATOM     13  C   UNL d   1      27.284  16.151 -23.399  0.00  0.00     0.002 A 
ENDROOT
BRANCH   2  14
ATOM     14  S   UNL d   1      30.757  18.613 -24.006  0.00  0.00     0.231 S 
ATOM     15  O   UNL d   1      30.648  18.611 -24.822  0.00  0.00    -0.215 OA
ATOM     16  O   UNL d   1      30.862  18.614 -23.190  0.00  0.00    -0.215 OA
BRANCH  14  17
ATOM     17  C   UNL d   1      31.526  18.870 -24.126  0.00  0.00     0.090 A 
ATOM     18  C   UNL d   1      31.911  18.718 -24.837  0.00  0.00     0.011 A 
ATOM     19  C   UNL d   1      32.677  18.974 -24.955  0.00  0.00     0.001 A 
ATOM     20  C   UNL d   1      33.071  19.389 -24.357  0.00  0.00     0.000 A 
ATOM     21  C   UNL d   1      32.684  19.542 -23.642  0.00  0.00     0.001 A 
ATOM     22  C   UNL d   1      31.917  19.284 -23.527  0.00  0.00     0.011 A 
ENDBRANCH  14  17
ENDBRANCH   2  14
BRANCH   7  23
ATOM     23  N   UNL d   1      30.184  15.474 -23.368  0.00  0.00    -0.227 NA
BRANCH  23  24
ATOM     24  C   UNL d   1      31.003  15.470 -23.446  0.00  0.00     0.083 A 
ATOM     25  C   UNL d   1      31.483  15.464 -22.774  0.00  0.00     0.019 A 
ATOM     26  C   UNL d   1      32.303  15.461 -22.853  0.00  0.00     0.002 A 
ATOM     27  C   UNL d   1      32.782  15.455 -22.182  0.00  0.00     0.000 C 
ATOM     28  C   UNL d   1      32.649  15.463 -23.607  0.00  0.00     0.000 A 
ATOM     29  C   UNL d   1      32.160  15.468 -24.278  0.00  0.00     0.002 A 
ATOM     30  C   UNL d   1      31.344  15.472 -24.196  0.00  0.00     0.019 A 
ATOM     31  C   UNL d   1      32.500  15.470 -25.027  0.00  0.00     0.000 C 
ENDBRANCH  23  24
ENDBRANCH   7  23
TORSDOF 4
ENDMDL
MODEL 2
REMARK VINA RESULT:       7.7      2.013      3.704
REMARK  4 active torsions:
REMARK  status: ('A' for Active; 'I' for Inactive)
REMARK    1  A    between atoms: S_5  and  C_2 
REMARK    2  A    between atoms: C_15  and  S_5 
REMARK    3  A    between atoms: N_11  and  C_8 
REMARK    4  A    between atoms: C_12  and  N_11 
ROOT
ATOM      1  C   UNL d   1      32.602  18.482 -23.211  0.00  0.00     0.197 A 
ATOM      2  C   UNL d   1      32.889  19.075 -22.707  0.00  0.00     0.227 A 
ATOM      3  N   UNL d   1      32.778  17.751 -22.866  0.00  0.00    -0.192 N 
ATOM      4  N   UNL d   1      32.205  18.511 -23.933  0.00  0.00    -0.206 NA
ATOM      5  N   UNL d   1      33.241  18.711 -22.055  0.00  0.00    -0.115 NA
ATOM      6  N   UNL d   1      33.174  17.889 -22.150  0.00  0.00    -0.058 NA
ATOM      7  C   UNL d   1      31.983  17.810 -24.316  0.00  0.00     0.166 A 
ATOM      8  C   UNL d   1      32.161  17.084 -23.967  0.00  0.00     0.054 A 
ATOM      9  C   UNL d   1      32.557  17.046 -23.244  0.00  0.00     0.089 A 
ATOM     10  C   UNL d   1      31.941  16.378 -24.346  0.00  0.00     0.005 A 
ATOM     11  C   UNL d   1      32.734  16.319 -22.900  0.00  0.00     0.019 A 
ATOM     12  C   UNL d   1      32.117  15.652 -24.000  0.00  0.00     0.000 A 
ATOM     13  C   UNL d   1      32.514  15.622 -23.278  0.00  0.00     0.002 A 
ENDROOT
BRANCH   2  14
ATOM     14  S   UNL d   1      32.832  19.889 -22.838  0.00  0.00     0.231 S 
ATOM     15  O   UNL d   1      32.479  19.956 -22.097  0.00  0.00    -0.215 OA
ATOM     16  O   UNL d   1      33.184  19.817 -23.578  0.00  0.00    -0.215 OA
BRANCH  14  17
ATOM     17  C   UNL d   1      32.756  20.700 -22.929  0.00  0.00     0.090 A 
ATOM     18  C   UNL d   1      32.868  21.051 -23.664  0.00  0.00     0.011 A 
ATOM     19  C   UNL d   1      32.793  21.859 -23.752  0.00  0.00     0.001 A 
ATOM     20  C   UNL d   1      32.602  22.330 -23.099  0.00  0.00     0.000 A 
ATOM     21  C   UNL d   1      32.489  21.977 -22.360  0.00  0.00     0.001 A 
ATOM     22  C   UNL d   1      32.565  21.168 -22.275  0.00  0.00     0.011 A 
ENDBRANCH  14  17
ENDBRANCH   2  14
BRANCH   7  23
ATOM     23  N   UNL d   1      31.586  17.839 -25.038  0.00  0.00    -0.227 NA
BRANCH  23  24
ATOM     24  C   UNL d   1      30.764  17.848 -25.057  0.00  0.00     0.083 A 
ATOM     25  C   UNL d   1      30.342  17.138 -25.066  0.00  0.00     0.019 A 
ATOM     26  C   UNL d   1      29.519  17.148 -25.085  0.00  0.00     0.002 A 
ATOM     27  C   UNL d   1      29.097  16.439 -25.094  0.00  0.00     0.000 C 
ATOM     28  C   UNL d   1      29.110  17.870 -25.095  0.00  0.00     0.000 A 
ATOM     29  C   UNL d   1      29.541  18.580 -25.086  0.00  0.00     0.002 A 
ATOM     30  C   UNL d   1      30.362  18.567 -25.067  0.00  0.00     0.019 A 
ATOM     31  C   UNL d   1      29.140  19.298 -25.096  0.00  0.00     0.000 C 
ENDBRANCH  23  24
ENDBRANCH   7  23
TORSDOF 4
ENDMDL
MODEL 3
REMARK VINA RESULT:       8.1      3.996      5.964
REMARK  4 active torsions:
REMARK  status: ('A' for Active; 'I' for Inactive)
REMARK    1  A    between atoms: S_5  and  C_2 
REMARK    2  A    between atoms: C_15  and  S_5 
REMARK    3  A    between atoms: N_11  and  C_8 
REMARK    4  A    between atoms: C_12  and  N_11 
ROOT
ATOM      1  C   UNL d   1      32.307  22.627 -22.130  0.00  0.00     0.197 A 
ATOM      2  C   UNL d   1      32.161  22.902 -21.362  0.00  0.00     0.227 A 
ATOM      3  N   UNL d   1      31.903  23.121 -22.656  0.00  0.00    -0.192 N 
ATOM      4  N   UNL d   1      32.752  21.995 -22.419  0.00  0.00    -0.206 NA
ATOM      5  N   UNL d   1      31.668  23.563 -21.414  0.00  0.00    -0.115 NA
ATOM      6  N   UNL d   1      31.506  23.702 -22.216  0.00  0.00    -0.058 NA
ATOM      7  C   UNL d   1      32.795  21.854 -23.235  0.00  0.00     0.166 A 
ATOM      8  C   UNL d   1      32.390  22.351 -23.755  0.00  0.00     0.054 A 
ATOM      9  C   UNL d   1      31.943  22.984 -23.474  0.00  0.00     0.089 A 
ATOM     10  C   UNL d   1      32.430  22.214 -24.573  0.00  0.00     0.005 A 
ATOM     11  C   UNL d   1      31.540  23.477 -23.996  0.00  0.00     0.019 A 
ATOM     12  C   UNL d   1      32.027  22.707 -25.094  0.00  0.00     0.000 A 
ATOM     13  C   UNL d   1      31.581  23.338 -24.806  0.00  0.00     0.002 A 
ENDROOT
BRANCH   2  14
ATOM     14  S   UNL d   1      32.458  22.570 -20.666  0.00  0.00     0.231 S 
ATOM     15  O   UNL d   1      31.788  22.092 -20.639  0.00  0.00    -0.215 OA
ATOM     16  O   UNL d   1      33.126  23.050 -20.696  0.00  0.00    -0.215 OA
BRANCH  14  17
ATOM     17  C   UNL d   1      32.718  22.215 -19.974  0.00  0.00     0.090 A 
ATOM     18  C   UNL d   1      32.763  21.397 -19.915  0.00  0.00     0.011 A 
ATOM     19  C   UNL d   1      33.022  21.046 -19.225  0.00  0.00     0.001 A 
ATOM     20  C   UNL d   1      33.241  21.515 -18.579  0.00  0.00     0.000 A 
ATOM     21  C   UNL d   1      33.195  22.339 -18.639  0.00  0.00     0.001 A 
ATOM     22  C   UNL d   1      32.936  22.687 -19.331  0.00  0.00     0.011 A 
ENDBRANCH  14  17
ENDBRANCH   2  14
BRANCH   7  23
ATOM     23  N   UNL d   1      33.241  21.223 -23.524  0.00  0.00    -0.227 NA
BRANCH  23  24
ATOM     24  C   UNL d   1      32.994  20.449 -23.391  0.00  0.00     0.083 A 
ATOM     25  C   UNL d   1      33.230  20.051 -22.707  0.00  0.00     0.019 A 
ATOM     26  C   UNL d   1      32.983  19.277 -22.574  0.00  0.00     0.002 A 
ATOM     27  C   UNL d   1      33.219  18.880 -21.891  0.00  0.00     0.000 C 
ATOM     28  C   UNL d   1      32.495  18.895 -23.125  0.00  0.00     0.000 A 
ATOM     29  C   UNL d   1      32.261  19.301 -23.810  0.00  0.00     0.002 A 
ATOM     30  C   UNL d   1      32.510  20.073 -23.940  0.00  0.00     0.019 A 
ATOM     31  C   UNL d   1      31.778  18.925 -24.359  0.00  0.00     0.000 C 
ENDBRANCH  23  24
ENDBRANCH   7  23
TORSDOF 4
ENDMDL
MODEL 4
REMARK VINA RESULT:       8.8      1.449      3.930
REMARK  4 active torsions:
REMARK  status: ('A' for Active; 'I' for Inactive)
REMARK    1  A    between atoms: S_5  and  C_2 
REMARK    2  A    between atoms: C_15  and  S_5 
REMARK    3  A    between atoms: N_11  and  C_8 
REMARK    4  A    between atoms: C_12  and  N_11 
ROOT
ATOM      1  C   UNL d   1      30.350  16.552 -24.098  0.00  0.00     0.197 A 
ATOM      2  C   UNL d   1      29.541  16.449 -24.248  0.00  0.00     0.227 A 
ATOM      3  N   UNL d   1      30.766  16.028 -24.584  0.00  0.00    -0.192 N 
ATOM      4  N   UNL d   1      30.761  17.050 -23.584  0.00  0.00    -0.206 NA
ATOM      5  N   UNL d   1      29.459  15.864 -24.826  0.00  0.00    -0.115 NA
ATOM      6  N   UNL d   1      30.217  15.601 -25.037  0.00  0.00    -0.058 NA
ATOM      7  C   UNL d   1      31.589  17.028 -23.555  0.00  0.00     0.166 A 
ATOM      8  C   UNL d   1      31.998  16.503 -24.043  0.00  0.00     0.054 A 
ATOM      9  C   UNL d   1      31.595  16.002 -24.559  0.00  0.00     0.089 A 
ATOM     10  C   UNL d   1      32.828  16.477 -24.018  0.00  0.00     0.005 A 
ATOM     11  C   UNL d   1      32.007  15.480 -25.045  0.00  0.00     0.019 A 
ATOM     12  C   UNL d   1      33.240  15.954 -24.504  0.00  0.00     0.000 A 
ATOM     13  C   UNL d   1      32.829  15.456 -25.017  0.00  0.00     0.002 A 
ENDROOT
BRANCH   2  14
ATOM     14  S   UNL d   1      28.927  16.862 -23.882  0.00  0.00     0.231 S 
ATOM     15  O   UNL d   1      28.946  16.303 -23.278  0.00  0.00    -0.215 OA
ATOM     16  O   UNL d   1      28.910  17.419 -24.488  0.00  0.00    -0.215 OA
BRANCH  14  17
ATOM     17  C   UNL d   1      28.317  17.242 -23.487  0.00  0.00     0.090 A 
ATOM     18  C   UNL d   1      27.660  16.823 -23.229  0.00  0.00     0.011 A 
ATOM     19  C   UNL d   1      27.054  17.203 -22.836  0.00  0.00     0.001 A 
ATOM     20  C   UNL d   1      27.100  18.017 -22.694  0.00  0.00     0.000 A 
ATOM     21  C   UNL d   1      27.762  18.440 -22.954  0.00  0.00     0.001 A 
ATOM     22  C   UNL d   1      28.366  18.056 -23.347  0.00  0.00     0.011 A 
ENDBRANCH  14  17
ENDBRANCH   2  14
BRANCH   7  23
ATOM     23  N   UNL d   1      32.000  17.526 -23.042  0.00  0.00    -0.227 NA
BRANCH  23  24
ATOM     24  C   UNL d   1      32.150  18.306 -23.257  0.00  0.00     0.083 A 
ATOM     25  C   UNL d   1      32.373  18.857 -22.684  0.00  0.00     0.019 A 
ATOM     26  C   UNL d   1      32.523  19.638 -22.899  0.00  0.00     0.002 A 
ATOM     27  C   UNL d   1      32.746  20.189 -22.327  0.00  0.00     0.000 C 
ATOM     28  C   UNL d   1      32.450  19.873 -23.691  0.00  0.00     0.000 A 
ATOM     29  C   UNL d   1      32.225  19.314 -24.261  0.00  0.00     0.002 A 
ATOM     30  C   UNL d   1      32.077  18.536 -24.044  0.00  0.00     0.019 A 
ATOM     31  C   UNL d   1      32.152  19.543 -25.048  0.00  0.00     0.000 C 
ENDBRANCH  23  24
ENDBRANCH   7  23
TORSDOF 4
ENDMDL
MODEL 5
REMARK VINA RESULT:       9.6      3.369      6.024
REMARK  4 active torsions:
REMARK  status: ('A' for Active; 'I' for Inactive)
REMARK    1  A    between atoms: S_5  and  C_2 
REMARK    2  A    between atoms: C_15  and  S_5 
REMARK    3  A    between atoms: N_11  and  C_8 
REMARK    4  A    between atoms: C_12  and  N_11 
ROOT
ATOM      1  C   UNL d   1      32.438  20.833 -21.681  0.00  0.00     0.197 A 
ATOM      2  C   UNL d   1      32.250  20.026 -21.647  0.00  0.00     0.227 A 
ATOM      3  N   UNL d   1      32.223  21.173 -20.958  0.00  0.00    -0.192 N 
ATOM      4  N   UNL d   1      32.774  21.300 -22.271  0.00  0.00    -0.206 NA
ATOM      5  N   UNL d   1      31.920  19.869 -20.905  0.00  0.00    -0.115 NA
ATOM      6  N   UNL d   1      31.902  20.579 -20.476  0.00  0.00    -0.058 NA
ATOM      7  C   UNL d   1      32.898  22.110 -22.142  0.00  0.00     0.166 A 
ATOM      8  C   UNL d   1      32.682  22.444 -21.419  0.00  0.00     0.054 A 
ATOM      9  C   UNL d   1      32.345  21.983 -20.824  0.00  0.00     0.089 A 
ATOM     10  C   UNL d   1      32.803  23.255 -21.285  0.00  0.00     0.005 A 
ATOM     11  C   UNL d   1      32.130  22.320 -20.104  0.00  0.00     0.019 A 
ATOM     12  C   UNL d   1      32.589  23.590 -20.565  0.00  0.00     0.000 A 
ATOM     13  C   UNL d   1      32.252  23.123 -19.974  0.00  0.00     0.002 A 
ENDROOT
BRANCH   2  14
ATOM     14  S   UNL d   1      32.372  19.476 -22.251  0.00  0.00     0.231 S 
ATOM     15  O   UNL d   1      31.649  19.707 -22.571  0.00  0.00    -0.215 OA
ATOM     16  O   UNL d   1      33.094  19.249 -21.929  0.00  0.00    -0.215 OA
BRANCH  14  17
ATOM     17  C   UNL d   1      32.455  18.943 -22.868  0.00  0.00     0.090 A 
ATOM     18  C   UNL d   1      31.855  18.410 -23.044  0.00  0.00     0.011 A 
ATOM     19  C   UNL d   1      31.940  17.880 -23.659  0.00  0.00     0.001 A 
ATOM     20  C   UNL d   1      32.634  17.876 -24.109  0.00  0.00     0.000 A 
ATOM     21  C   UNL d   1      33.239  18.412 -23.932  0.00  0.00     0.001 A 
ATOM     22  C   UNL d   1      33.150  18.942 -23.315  0.00  0.00     0.011 A 
ENDBRANCH  14  17
ENDBRANCH   2  14
BRANCH   7  23
ATOM     23  N   UNL d   1      33.235  22.578 -22.733  0.00  0.00    -0.227 NA
BRANCH  23  24
ATOM     24  C   UNL d   1      33.011  22.474 -23.518  0.00  0.00     0.083 A 
ATOM     25  C   UNL d   1      33.192  21.769 -23.910  0.00  0.00     0.019 A 
ATOM     26  C   UNL d   1      32.968  21.665 -24.695  0.00  0.00     0.002 A 
ATOM     27  C   UNL d   1      33.149  20.962 -25.086  0.00  0.00     0.000 C 
ATOM     28  C   UNL d   1      32.562  22.267 -25.096  0.00  0.00     0.000 A 
ATOM     29  C   UNL d   1      32.384  22.972 -24.696  0.00  0.00     0.002 A 
ATOM     30  C   UNL d   1      32.608  23.073 -23.913  0.00  0.00     0.019 A 
ATOM     31  C   UNL d   1      31.980  23.571 -25.090  0.00  0.00     0.000 C 
ENDBRANCH  23  24
ENDBRANCH   7  23
TORSDOF 4
ENDMDL
