MODEL 1
REMARK VINA RESULT:      -9.5      0.000      0.000
REMARK  5 active torsions:
REMARK  status: ('A' for Active; 'I' for Inactive)
REMARK    1  A    between atoms: C_4  and  S_1 
REMARK    2  A    between atoms: N_5  and  S_1 
REMARK    3  A    between atoms: C_2  and  C_9 
REMARK       I    between atoms: N_3  and  C_2 
REMARK    4  A    between atoms: C_14  and  N_5 
REMARK    5  A    between atoms: C_15  and  C_14 
ROOT
ATOM      1  C   UNL d   1      52.079  33.241  53.011  0.00  0.00     0.057 A 
ATOM      2  C   UNL d   1      52.100  33.982  52.642  0.00  0.00     0.005 A 
ATOM      3  C   UNL d   1      51.376  32.971  53.346  0.00  0.00     0.005 A 
ATOM      4  C   UNL d   1      50.721  34.170  52.948  0.00  0.00     0.020 A 
ATOM      5  C   UNL d   1      51.428  34.446  52.609  0.00  0.00     0.002 A 
ATOM      6  C   UNL d   1      50.696  33.438  53.314  0.00  0.00     0.002 A 
ENDROOT
BRANCH   4   7
ATOM      7  C   UNL d   1      50.037  34.641  52.915  0.00  0.00     0.112 C 
BRANCH   7   8
ATOM      8  N   UNL d   1      49.538  34.599  52.256  0.00  0.00    -0.157 NA
BRANCH   8   9
ATOM      9  S   UNL d   1      48.844  35.056  52.232  0.00  0.00     0.285 S 
ATOM     10  O   UNL d   1      48.930  35.227  53.041  0.00  0.00    -0.198 OA
ATOM     11  O   UNL d   1      48.759  34.885  51.423  0.00  0.00    -0.198 OA
BRANCH   9  12
ATOM     12  C   UNL d   1      48.150  35.513  52.209  0.00  0.00     0.106 A 
ATOM     13  C   UNL d   1      47.550  35.316  51.686  0.00  0.00     0.024 A 
ATOM     14  C   UNL d   1      46.855  35.763  51.655  0.00  0.00     0.059 A 
ATOM     15 CL   UNL d   1      46.252  35.567  51.131  0.00  0.00    -0.082 Cl
ATOM     16  C   UNL d   1      46.773  36.411  52.155  0.00  0.00     0.011 A 
ATOM     17  C   UNL d   1      47.374  36.602  52.673  0.00  0.00     0.002 A 
ATOM     18  C   UNL d   1      48.064  36.156  52.703  0.00  0.00     0.013 A 
ENDBRANCH   9  12
ENDBRANCH   8   9
ENDBRANCH   7   8
ENDBRANCH   4   7
BRANCH   1  19
ATOM     19  C   UNL d   1      52.762  32.766  53.046  0.00  0.00     0.265 C 
ATOM     20  N   UNL d   1      53.312  32.876  53.659  0.00  0.00    -0.272 N 
ATOM     21  C   UNL d   1      53.255  33.429  54.264  0.00  0.00     0.083 A 
ATOM     22  C   UNL d   1      54.011  32.448  53.765  0.00  0.00     0.083 A 
ATOM     23  C   UNL d   1      53.919  33.346  54.747  0.00  0.00     0.021 A 
ATOM     24  C   UNL d   1      54.383  32.745  54.442  0.00  0.00     0.021 A 
ATOM     25  O   UNL d   1      52.895  32.179  52.468  0.00  0.00    -0.267 OA
ENDBRANCH   1  19
TORSDOF 5
ENDMDL
MODEL 2
REMARK VINA RESULT:      -8.8      2.316      5.810
REMARK  5 active torsions:
REMARK  status: ('A' for Active; 'I' for Inactive)
REMARK    1  A    between atoms: C_4  and  S_1 
REMARK    2  A    between atoms: N_5  and  S_1 
REMARK    3  A    between atoms: C_2  and  C_9 
REMARK       I    between atoms: N_3  and  C_2 
REMARK    4  A    between atoms: C_14  and  N_5 
REMARK    5  A    between atoms: C_15  and  C_14 
ROOT
ATOM      1  C   UNL d   1      49.326  34.561  51.786  0.00  0.00     0.057 A 
ATOM      2  C   UNL d   1      49.406  34.461  52.604  0.00  0.00     0.005 A 
ATOM      3  C   UNL d   1      49.993  34.536  51.303  0.00  0.00     0.005 A 
ATOM      4  C   UNL d   1      50.815  34.313  52.444  0.00  0.00     0.020 A 
ATOM      5  C   UNL d   1      50.144  34.338  52.934  0.00  0.00     0.002 A 
ATOM      6  C   UNL d   1      50.739  34.412  51.635  0.00  0.00     0.002 A 
ENDROOT
BRANCH   4   7
ATOM      7  C   UNL d   1      51.565  34.188  52.778  0.00  0.00     0.112 C 
BRANCH   7   8
ATOM      8  N   UNL d   1      51.708  33.509  53.229  0.00  0.00    -0.157 NA
BRANCH   8   9
ATOM      9  S   UNL d   1      52.480  33.336  53.484  0.00  0.00     0.285 S 
ATOM     10  O   UNL d   1      52.389  32.551  53.223  0.00  0.00    -0.198 OA
ATOM     11  O   UNL d   1      52.570  34.119  53.745  0.00  0.00    -0.198 OA
BRANCH   9  12
ATOM     12  C   UNL d   1      53.252  33.161  53.739  0.00  0.00     0.106 A 
ATOM     13  C   UNL d   1      53.461  33.292  54.520  0.00  0.00     0.024 A 
ATOM     14  C   UNL d   1      54.227  33.122  54.785  0.00  0.00     0.059 A 
ATOM     15 CL   UNL d   1      54.439  33.252  55.569  0.00  0.00    -0.082 Cl
ATOM     16  C   UNL d   1      54.777  32.820  54.253  0.00  0.00     0.011 A 
ATOM     17  C   UNL d   1      54.562  32.692  53.476  0.00  0.00     0.002 A 
ATOM     18  C   UNL d   1      53.801  32.862  53.215  0.00  0.00     0.013 A 
ENDBRANCH   9  12
ENDBRANCH   8   9
ENDBRANCH   7   8
ENDBRANCH   4   7
BRANCH   1  19
ATOM     19  C   UNL d   1      48.576  34.687  51.446  0.00  0.00     0.265 C 
ATOM     20  N   UNL d   1      48.093  35.303  51.724  0.00  0.00    -0.272 N 
ATOM     21  C   UNL d   1      48.282  35.829  52.327  0.00  0.00     0.083 A 
ATOM     22  C   UNL d   1      47.340  35.493  51.442  0.00  0.00     0.083 A 
ATOM     23  C   UNL d   1      47.647  36.347  52.420  0.00  0.00     0.021 A 
ATOM     24  C   UNL d   1      47.069  36.142  51.879  0.00  0.00     0.021 A 
ATOM     25  O   UNL d   1      48.308  34.195  50.828  0.00  0.00    -0.267 OA
ENDBRANCH   1  19
TORSDOF 5
ENDMDL
MODEL 3
REMARK VINA RESULT:      -7.8      2.165      5.848
REMARK  5 active torsions:
REMARK  status: ('A' for Active; 'I' for Inactive)
REMARK    1  A    between atoms: C_4  and  S_1 
REMARK    2  A    between atoms: N_5  and  S_1 
REMARK    3  A    between atoms: C_2  and  C_9 
REMARK       I    between atoms: N_3  and  C_2 
REMARK    4  A    between atoms: C_14  and  N_5 
REMARK    5  A    between atoms: C_15  and  C_14 
ROOT
ATOM      1  C   UNL d   1      47.896  35.759  52.303  0.00  0.00     0.057 A 
ATOM      2  C   UNL d   1      48.271  35.976  53.010  0.00  0.00     0.005 A 
ATOM      3  C   UNL d   1      48.195  35.135  51.857  0.00  0.00     0.005 A 
ATOM      4  C   UNL d   1      49.233  34.943  52.812  0.00  0.00     0.020 A 
ATOM      5  C   UNL d   1      48.935  35.573  53.265  0.00  0.00     0.002 A 
ATOM      6  C   UNL d   1      48.865  34.726  52.113  0.00  0.00     0.002 A 
ENDROOT
BRANCH   4   7
ATOM      7  C   UNL d   1      49.907  34.532  53.070  0.00  0.00     0.112 C 
BRANCH   7   8
ATOM      8  N   UNL d   1      50.498  34.327  52.528  0.00  0.00    -0.157 NA
BRANCH   8   9
ATOM      9  S   UNL d   1      51.211  33.993  52.799  0.00  0.00     0.285 S 
ATOM     10  O   UNL d   1      51.634  34.466  52.261  0.00  0.00    -0.198 OA
ATOM     11  O   UNL d   1      50.787  33.522  53.335  0.00  0.00    -0.198 OA
BRANCH   9  12
ATOM     12  C   UNL d   1      51.923  33.661  53.068  0.00  0.00     0.106 A 
ATOM     13  C   UNL d   1      52.117  32.892  52.860  0.00  0.00     0.024 A 
ATOM     14  C   UNL d   1      52.824  32.551  53.123  0.00  0.00     0.059 A 
ATOM     15 CL   UNL d   1      53.020  31.780  52.915  0.00  0.00    -0.082 Cl
ATOM     16  C   UNL d   1      53.331  32.994  53.595  0.00  0.00     0.011 A 
ATOM     17  C   UNL d   1      53.132  33.758  53.798  0.00  0.00     0.002 A 
ATOM     18  C   UNL d   1      52.429  34.096  53.537  0.00  0.00     0.013 A 
ENDBRANCH   9  12
ENDBRANCH   8   9
ENDBRANCH   7   8
ENDBRANCH   4   7
BRANCH   1  19
ATOM     19  C   UNL d   1      47.220  36.168  52.041  0.00  0.00     0.265 C 
ATOM     20  N   UNL d   1      46.487  36.039  52.410  0.00  0.00    -0.272 N 
ATOM     21  C   UNL d   1      46.348  35.526  53.038  0.00  0.00     0.083 A 
ATOM     22  C   UNL d   1      45.773  36.402  52.211  0.00  0.00     0.083 A 
ATOM     23  C   UNL d   1      45.547  35.571  53.229  0.00  0.00     0.021 A 
ATOM     24  C   UNL d   1      45.193  36.107  52.723  0.00  0.00     0.021 A 
ATOM     25  O   UNL d   1      47.276  36.708  51.407  0.00  0.00    -0.267 OA
ENDBRANCH   1  19
TORSDOF 5
ENDMDL
MODEL 4
REMARK VINA RESULT:      -7.6      2.492      5.880
REMARK  5 active torsions:
REMARK  status: ('A' for Active; 'I' for Inactive)
REMARK    1  A    between atoms: C_4  and  S_1 
REMARK    2  A    between atoms: N_5  and  S_1 
REMARK    3  A    between atoms: C_2  and  C_9 
REMARK       I    between atoms: N_3  and  C_2 
REMARK    4  A    between atoms: C_14  and  N_5 
REMARK    5  A    between atoms: C_15  and  C_14 
ROOT
ATOM      1  C   UNL d   1      50.058  34.555  52.757  0.00  0.00     0.057 A 
ATOM      2  C   UNL d   1      49.977  33.831  53.151  0.00  0.00     0.005 A 
ATOM      3  C   UNL d   1      50.805  34.813  52.525  0.00  0.00     0.005 A 
ATOM      4  C   UNL d   1      51.387  33.635  53.074  0.00  0.00     0.020 A 
ATOM      5  C   UNL d   1      50.634  33.371  53.310  0.00  0.00     0.002 A 
ATOM      6  C   UNL d   1      51.471  34.351  52.684  0.00  0.00     0.002 A 
ENDROOT
BRANCH   4   7
ATOM      7  C   UNL d   1      52.056  33.169  53.234  0.00  0.00     0.112 C 
BRANCH   7   8
ATOM      8  N   UNL d   1      52.313  32.613  52.679  0.00  0.00    -0.157 NA
BRANCH   8   9
ATOM      9  S   UNL d   1      52.714  31.929  52.933  0.00  0.00     0.285 S 
ATOM     10  O   UNL d   1      52.441  31.522  52.261  0.00  0.00    -0.198 OA
ATOM     11  O   UNL d   1      52.985  32.337  53.604  0.00  0.00    -0.198 OA
BRANCH   9  12
ATOM     12  C   UNL d   1      53.113  31.245  53.186  0.00  0.00     0.106 A 
ATOM     13  C   UNL d   1      52.699  30.544  53.281  0.00  0.00     0.024 A 
ATOM     14  C   UNL d   1      53.085  29.858  53.532  0.00  0.00     0.059 A 
ATOM     15 CL   UNL d   1      52.671  29.153  53.628  0.00  0.00    -0.082 Cl
ATOM     16  C   UNL d   1      53.893  29.886  53.685  0.00  0.00     0.011 A 
ATOM     17  C   UNL d   1      54.299  30.587  53.588  0.00  0.00     0.002 A 
ATOM     18  C   UNL d   1      53.913  31.269  53.339  0.00  0.00     0.013 A 
ENDBRANCH   9  12
ENDBRANCH   8   9
ENDBRANCH   7   8
ENDBRANCH   4   7
BRANCH   1  19
ATOM     19  C   UNL d   1      49.390  35.025  52.594  0.00  0.00     0.265 C 
ATOM     20  N   UNL d   1      48.980  34.928  51.879  0.00  0.00    -0.272 N 
ATOM     21  C   UNL d   1      49.168  34.394  51.283  0.00  0.00     0.083 A 
ATOM     22  C   UNL d   1      48.311  35.353  51.642  0.00  0.00     0.083 A 
ATOM     23  C   UNL d   1      48.617  34.485  50.676  0.00  0.00     0.021 A 
ATOM     24  C   UNL d   1      48.092  35.073  50.895  0.00  0.00     0.021 A 
ATOM     25  O   UNL d   1      49.132  35.593  53.149  0.00  0.00    -0.267 OA
ENDBRANCH   1  19
TORSDOF 5
ENDMDL
