MODEL 1
REMARK VINA RESULT:      67.0      0.000      0.000
REMARK  6 active torsions:
REMARK  status: ('A' for Active; 'I' for Inactive)
REMARK    1  A    between atoms: C_9  and  N_2 
REMARK       I    between atoms: N_5  and  C_6 
REMARK    2  A    between atoms: C_6  and  C_10 
REMARK    3  A    between atoms: C_11  and  N_7 
REMARK    4  A    between atoms: C_10  and  C_9 
REMARK    5  A    between atoms: C_18  and  C_11 
REMARK    6  A    between atoms: C_19  and  C_11 
ROOT
ATOM      1  N   UNL d   1      14.458  15.676  -3.685  0.00  0.00    -0.269 N 
ATOM      2  C   UNL d   1      14.566  16.455  -3.925  0.00  0.00     0.266 C 
ATOM      3  N   UNL d   1      14.236  14.103  -3.204  0.00  0.00    -0.301 N 
ATOM      4  C   UNL d   1      14.094  15.133  -4.198  0.00  0.00     0.102 A 
ATOM      5  C   UNL d   1      14.705  15.433  -2.942  0.00  0.00     0.102 A 
ATOM      6  C   UNL d   1      14.595  14.647  -2.702  0.00  0.00     0.100 A 
ATOM      7  C   UNL d   1      13.983  14.355  -3.963  0.00  0.00     0.100 A 
ATOM      8  O   UNL d   1      14.928  16.993  -3.414  0.00  0.00    -0.267 OA
ENDROOT
BRANCH   2   9
ATOM      9  C   UNL d   1      14.318  16.701  -4.671  0.00  0.00     0.080 C 
BRANCH   9  10
ATOM     10  C   UNL d   1      14.686  17.333  -5.046  0.00  0.00     0.090 C 
BRANCH  10  11
ATOM     11  N   UNL d   1      14.253  17.837  -5.532  0.00  0.00    -0.251 N 
ATOM     12  C   UNL d   1      13.662  17.615  -6.058  0.00  0.00     0.378 A 
ATOM     13  O   UNL d   1      13.427  18.331  -6.389  0.00  0.00    -0.258 OA
ATOM     14  O   UNL d   1      13.398  16.845  -6.191  0.00  0.00    -0.237 OA
ATOM     15  C   UNL d   1      13.799  18.940  -6.129  0.00  0.00     0.121 A 
ATOM     16  C   UNL d   1      13.757  19.752  -6.292  0.00  0.00     0.026 A 
ATOM     17  C   UNL d   1      14.341  18.658  -5.574  0.00  0.00     0.092 A 
ATOM     18  C   UNL d   1      14.260  20.281  -5.897  0.00  0.00     0.002 A 
ATOM     19  C   UNL d   1      14.798  19.988  -5.343  0.00  0.00     0.002 A 
ATOM     20  C   UNL d   1      14.837  19.177  -5.184  0.00  0.00     0.020 A 
ENDBRANCH  10  11
ENDBRANCH   9  10
ENDBRANCH   2   9
BRANCH   3  21
ATOM     21  C   UNL d   1      14.119  13.312  -2.975  0.00  0.00     0.064 C 
BRANCH  21  22
ATOM     22  C   UNL d   1      14.375  13.042  -2.242  0.00  0.00     0.016 A 
ATOM     23  C   UNL d   1      14.715  12.294  -2.177  0.00  0.00     0.001 A 
ATOM     24  C   UNL d   1      14.971  12.024  -1.443  0.00  0.00     0.000 A 
ATOM     25  C   UNL d   1      14.887  12.502  -0.775  0.00  0.00     0.000 A 
ATOM     26  C   UNL d   1      14.547  13.247  -0.843  0.00  0.00     0.000 A 
ATOM     27  C   UNL d   1      14.291  13.517  -1.577  0.00  0.00     0.001 A 
ENDBRANCH  21  22
BRANCH  21  28
ATOM     28  C   UNL d   1      13.737  12.796  -3.502  0.00  0.00     0.016 A 
ATOM     29  C   UNL d   1      13.972  12.794  -4.300  0.00  0.00     0.001 A 
ATOM     30  C   UNL d   1      13.590  12.278  -4.826  0.00  0.00     0.000 A 
ATOM     31  C   UNL d   1      12.992  11.781  -4.560  0.00  0.00     0.000 A 
ATOM     32  C   UNL d   1      12.769  11.793  -3.765  0.00  0.00     0.000 A 
ATOM     33  C   UNL d   1      13.142  12.302  -3.233  0.00  0.00     0.001 A 
ENDBRANCH  21  28
ENDBRANCH   3  21
TORSDOF 6
ENDMDL
MODEL 2
REMARK VINA RESULT:      67.9      0.366      1.937
REMARK  6 active torsions:
REMARK  status: ('A' for Active; 'I' for Inactive)
REMARK    1  A    between atoms: C_9  and  N_2 
REMARK       I    between atoms: N_5  and  C_6 
REMARK    2  A    between atoms: C_6  and  C_10 
REMARK    3  A    between atoms: C_11  and  N_7 
REMARK    4  A    between atoms: C_10  and  C_9 
REMARK    5  A    between atoms: C_18  and  C_11 
REMARK    6  A    between atoms: C_19  and  C_11 
ROOT
ATOM      1  N   UNL d   1      14.412  15.752  -3.415  0.00  0.00    -0.269 N 
ATOM      2  C   UNL d   1      14.514  16.544  -3.609  0.00  0.00     0.266 C 
ATOM      3  N   UNL d   1      14.206  14.151  -3.028  0.00  0.00    -0.301 N 
ATOM      4  C   UNL d   1      14.116  15.223  -3.984  0.00  0.00     0.102 A 
ATOM      5  C   UNL d   1      14.601  15.481  -2.665  0.00  0.00     0.102 A 
ATOM      6  C   UNL d   1      14.498  14.681  -2.471  0.00  0.00     0.100 A 
ATOM      7  C   UNL d   1      14.013  14.431  -3.795  0.00  0.00     0.100 A 
ATOM      8  O   UNL d   1      14.808  17.069  -3.043  0.00  0.00    -0.267 OA
ENDROOT
BRANCH   2   9
ATOM      9  C   UNL d   1      14.324  16.819  -4.363  0.00  0.00     0.080 C 
BRANCH   9  10
ATOM     10  C   UNL d   1      14.703  17.478  -4.674  0.00  0.00     0.090 C 
BRANCH  10  11
ATOM     11  N   UNL d   1      14.370  17.889  -5.305  0.00  0.00    -0.251 N 
ATOM     12  C   UNL d   1      13.943  17.562  -5.927  0.00  0.00     0.378 A 
ATOM     13  O   UNL d   1      13.748  18.216  -6.385  0.00  0.00    -0.258 OA
ATOM     14  O   UNL d   1      13.774  16.760  -6.027  0.00  0.00    -0.237 OA
ATOM     15  C   UNL d   1      14.002  18.880  -6.118  0.00  0.00     0.121 A 
ATOM     16  C   UNL d   1      13.945  19.665  -6.380  0.00  0.00     0.026 A 
ATOM     17  C   UNL d   1      14.408  18.706  -5.421  0.00  0.00     0.092 A 
ATOM     18  C   UNL d   1      14.297  20.276  -5.942  0.00  0.00     0.002 A 
ATOM     19  C   UNL d   1      14.701  20.090  -5.245  0.00  0.00     0.002 A 
ATOM     20  C   UNL d   1      14.755  19.306  -4.987  0.00  0.00     0.020 A 
ENDBRANCH  10  11
ENDBRANCH   9  10
ENDBRANCH   2   9
BRANCH   3  21
ATOM     21  C   UNL d   1      14.098  13.347  -2.847  0.00  0.00     0.064 C 
BRANCH  21  22
ATOM     22  C   UNL d   1      13.689  12.849  -3.358  0.00  0.00     0.016 A 
ATOM     23  C   UNL d   1      13.179  12.278  -3.052  0.00  0.00     0.001 A 
ATOM     24  C   UNL d   1      12.770  11.780  -3.564  0.00  0.00     0.000 A 
ATOM     25  C   UNL d   1      12.871  11.853  -4.380  0.00  0.00     0.000 A 
ATOM     26  C   UNL d   1      13.380  12.424  -4.681  0.00  0.00     0.000 A 
ATOM     27  C   UNL d   1      13.789  12.922  -4.170  0.00  0.00     0.001 A 
ENDBRANCH  21  22
BRANCH  21  28
ATOM     28  C   UNL d   1      14.412  13.052  -2.137  0.00  0.00     0.016 A 
ATOM     29  C   UNL d   1      13.891  12.869  -1.515  0.00  0.00     0.001 A 
ATOM     30  C   UNL d   1      14.205  12.575  -0.805  0.00  0.00     0.000 A 
ATOM     31  C   UNL d   1      15.016  12.468  -0.723  0.00  0.00     0.000 A 
ATOM     32  C   UNL d   1      15.521  12.654  -1.348  0.00  0.00     0.000 A 
ATOM     33  C   UNL d   1      15.220  12.947  -2.057  0.00  0.00     0.001 A 
ENDBRANCH  21  28
ENDBRANCH   3  21
TORSDOF 6
ENDMDL
