MODEL 1
REMARK VINA RESULT:      -2.6      0.000      0.000
REMARK  4 active torsions:
REMARK  status: ('A' for Active; 'I' for Inactive)
REMARK    1  A    between atoms: C_6  and  N_3 
REMARK    2  A    between atoms: C_13  and  N_4 
REMARK    3  A    between atoms: C_5  and  C_6 
REMARK       I    between atoms: N_10  and  C_5 
REMARK    4  A    between atoms: C_14  and  N_10 
ROOT
ATOM      1  C   UNL d   1      32.911  20.682 -21.322  0.00  0.00     0.322 A 
ATOM      2  C   UNL d   1      32.800  21.495 -21.230  0.00  0.00     0.322 A 
ATOM      3  N   UNL d   1      33.131  20.376 -22.051  0.00  0.00    -0.262 N 
ATOM      4  N   UNL d   1      32.910  22.001 -21.866  0.00  0.00    -0.267 N 
ATOM      5  C   UNL d   1      33.241  20.883 -22.691  0.00  0.00     0.102 A 
ATOM      6  O   UNL d   1      32.800  20.175 -20.678  0.00  0.00    -0.261 OA
ATOM      7  O   UNL d   1      32.579  21.800 -20.494  0.00  0.00    -0.261 OA
ATOM      8  C   UNL d   1      33.130  21.695 -22.599  0.00  0.00     0.102 A 
ENDROOT
BRANCH   3   9
ATOM      9  C   UNL d   1      33.241  19.567 -22.143  0.00  0.00     0.146 C 
BRANCH   9  10
ATOM     10  C   UNL d   1      33.072  19.216 -22.863  0.00  0.00     0.297 C 
ATOM     11  N   UNL d   1      32.783  18.452 -22.904  0.00  0.00    -0.207 NA
ATOM     12  O   UNL d   1      33.197  19.646 -23.558  0.00  0.00    -0.264 OA
BRANCH  11  13
ATOM     13  C   UNL d   1      32.616  18.105 -23.633  0.00  0.00     0.085 A 
ATOM     14  C   UNL d   1      31.888  18.095 -24.008  0.00  0.00     0.019 A 
ATOM     15  C   UNL d   1      31.975  17.693 -24.714  0.00  0.00     0.002 A 
ATOM     16  C   UNL d   1      32.749  17.453 -24.782  0.00  0.00     0.002 A 
ATOM     17  C   UNL d   1      33.157  17.706 -24.110  0.00  0.00     0.019 A 
ENDBRANCH  11  13
ENDBRANCH   9  10
ENDBRANCH   3   9
BRANCH   4  18
ATOM     18  C   UNL d   1      32.799  22.814 -21.774  0.00  0.00     0.083 C 
ATOM     19  C   UNL d   1      32.796  23.308 -22.437  0.00  0.00     0.021 C 
ENDBRANCH   4  18
TORSDOF 4
ENDMDL
MODEL 2
REMARK VINA RESULT:      -2.6      1.305      1.994
REMARK  4 active torsions:
REMARK  status: ('A' for Active; 'I' for Inactive)
REMARK    1  A    between atoms: C_6  and  N_3 
REMARK    2  A    between atoms: C_13  and  N_4 
REMARK    3  A    between atoms: C_5  and  C_6 
REMARK       I    between atoms: N_10  and  C_5 
REMARK    4  A    between atoms: C_14  and  N_10 
ROOT
ATOM      1  C   UNL d   1      33.238  20.247 -23.298  0.00  0.00     0.322 A 
ATOM      2  C   UNL d   1      33.238  20.767 -22.658  0.00  0.00     0.322 A 
ATOM      3  N   UNL d   1      33.237  19.436 -23.171  0.00  0.00    -0.262 N 
ATOM      4  N   UNL d   1      33.237  20.478 -21.890  0.00  0.00    -0.267 N 
ATOM      5  C   UNL d   1      33.235  19.144 -22.400  0.00  0.00     0.102 A 
ATOM      6  O   UNL d   1      33.239  20.542 -24.071  0.00  0.00    -0.261 OA
ATOM      7  O   UNL d   1      33.239  21.584 -22.790  0.00  0.00    -0.261 OA
ATOM      8  C   UNL d   1      33.235  19.664 -21.760  0.00  0.00     0.102 A 
ENDROOT
BRANCH   3   9
ATOM      9  C   UNL d   1      33.237  18.918 -23.807  0.00  0.00     0.146 C 
BRANCH   9  10
ATOM     10  C   UNL d   1      32.769  18.245 -23.781  0.00  0.00     0.297 C 
ATOM     11  N   UNL d   1      32.186  18.113 -24.339  0.00  0.00    -0.207 NA
ATOM     12  O   UNL d   1      32.894  17.695 -23.177  0.00  0.00    -0.264 OA
BRANCH  11  13
ATOM     13  C   UNL d   1      31.720  17.434 -24.306  0.00  0.00     0.085 A 
ATOM     14  C   UNL d   1      30.951  17.388 -24.028  0.00  0.00     0.019 A 
ATOM     15  C   UNL d   1      30.706  16.611 -24.098  0.00  0.00     0.002 A 
ATOM     16  C   UNL d   1      31.314  16.175 -24.415  0.00  0.00     0.002 A 
ATOM     17  C   UNL d   1      31.952  16.680 -24.549  0.00  0.00     0.019 A 
ENDBRANCH  11  13
ENDBRANCH   9  10
ENDBRANCH   3   9
BRANCH   4  18
ATOM     18  C   UNL d   1      33.237  20.999 -21.250  0.00  0.00     0.083 C 
ATOM     19  C   UNL d   1      32.968  20.744 -20.510  0.00  0.00     0.021 C 
ENDBRANCH   4  18
TORSDOF 4
ENDMDL
MODEL 3
REMARK VINA RESULT:      -2.5      2.878      5.021
REMARK  4 active torsions:
REMARK  status: ('A' for Active; 'I' for Inactive)
REMARK    1  A    between atoms: C_6  and  N_3 
REMARK    2  A    between atoms: C_13  and  N_4 
REMARK    3  A    between atoms: C_5  and  C_6 
REMARK       I    between atoms: N_10  and  C_5 
REMARK    4  A    between atoms: C_14  and  N_10 
ROOT
ATOM      1  C   UNL d   1      30.538  16.070 -23.345  0.00  0.00     0.322 A 
ATOM      2  C   UNL d   1      29.754  15.957 -23.117  0.00  0.00     0.322 A 
ATOM      3  N   UNL d   1      30.718  16.570 -23.971  0.00  0.00    -0.262 N 
ATOM      4  N   UNL d   1      29.148  16.343 -23.514  0.00  0.00    -0.267 N 
ATOM      5  C   UNL d   1      30.111  16.958 -24.371  0.00  0.00     0.102 A 
ATOM      6  O   UNL d   1      31.146  15.680 -22.942  0.00  0.00    -0.261 OA
ATOM      7  O   UNL d   1      29.576  15.453 -22.485  0.00  0.00    -0.261 OA
ATOM      8  C   UNL d   1      29.327  16.844 -24.142  0.00  0.00     0.102 A 
ENDROOT
BRANCH   3   9
ATOM      9  C   UNL d   1      31.499  16.683 -24.198  0.00  0.00     0.146 C 
BRANCH   9  10
ATOM     10  C   UNL d   1      31.810  17.441 -24.213  0.00  0.00     0.297 C 
ATOM     11  N   UNL d   1      32.461  17.640 -23.760  0.00  0.00    -0.207 NA
ATOM     12  O   UNL d   1      31.455  18.009 -24.696  0.00  0.00    -0.264 OA
BRANCH  11  13
ATOM     13  C   UNL d   1      32.768  18.405 -23.780  0.00  0.00     0.085 A 
ATOM     14  C   UNL d   1      32.954  18.834 -24.453  0.00  0.00     0.019 A 
ATOM     15  C   UNL d   1      33.241  19.561 -24.214  0.00  0.00     0.002 A 
ATOM     16  C   UNL d   1      33.234  19.588 -23.401  0.00  0.00     0.002 A 
ATOM     17  C   UNL d   1      32.940  18.870 -23.122  0.00  0.00     0.019 A 
ENDBRANCH  11  13
ENDBRANCH   9  10
ENDBRANCH   3   9
BRANCH   4  18
ATOM     18  C   UNL d   1      28.364  16.229 -23.285  0.00  0.00     0.083 C 
ATOM     19  C   UNL d   1      27.776  16.747 -23.553  0.00  0.00     0.021 C 
ENDBRANCH   4  18
TORSDOF 4
ENDMDL
MODEL 4
REMARK VINA RESULT:      -2.4      1.349      4.227
REMARK  4 active torsions:
REMARK  status: ('A' for Active; 'I' for Inactive)
REMARK    1  A    between atoms: C_6  and  N_3 
REMARK    2  A    between atoms: C_13  and  N_4 
REMARK    3  A    between atoms: C_5  and  C_6 
REMARK       I    between atoms: N_10  and  C_5 
REMARK    4  A    between atoms: C_14  and  N_10 
ROOT
ATOM      1  C   UNL d   1      32.407  17.643 -23.269  0.00  0.00     0.322 A 
ATOM      2  C   UNL d   1      31.823  17.254 -23.702  0.00  0.00     0.322 A 
ATOM      3  N   UNL d   1      32.608  18.418 -23.450  0.00  0.00    -0.262 N 
ATOM      4  N   UNL d   1      31.438  17.639 -24.316  0.00  0.00    -0.267 N 
ATOM      5  C   UNL d   1      32.223  18.806 -24.067  0.00  0.00     0.102 A 
ATOM      6  O   UNL d   1      32.793  17.252 -22.650  0.00  0.00    -0.261 OA
ATOM      7  O   UNL d   1      31.623  16.473 -23.516  0.00  0.00    -0.261 OA
ATOM      8  C   UNL d   1      31.638  18.417 -24.499  0.00  0.00     0.102 A 
ENDROOT
BRANCH   3   9
ATOM      9  C   UNL d   1      33.190  18.805 -23.020  0.00  0.00     0.146 C 
BRANCH   9  10
ATOM     10  C   UNL d   1      33.063  19.575 -22.769  0.00  0.00     0.297 C 
ATOM     11  N   UNL d   1      33.025  19.761 -21.974  0.00  0.00    -0.207 NA
ATOM     12  O   UNL d   1      32.971  20.170 -23.335  0.00  0.00    -0.264 OA
BRANCH  11  13
ATOM     13  C   UNL d   1      32.896  20.537 -21.730  0.00  0.00     0.085 A 
ATOM     14  C   UNL d   1      32.407  20.777 -21.118  0.00  0.00     0.019 A 
ATOM     15  C   UNL d   1      32.447  21.592 -21.071  0.00  0.00     0.002 A 
ATOM     16  C   UNL d   1      32.956  21.861 -21.646  0.00  0.00     0.002 A 
ATOM     17  C   UNL d   1      33.241  21.208 -22.062  0.00  0.00     0.019 A 
ENDBRANCH  11  13
ENDBRANCH   9  10
ENDBRANCH   3   9
BRANCH   4  18
ATOM     18  C   UNL d   1      30.853  17.250 -24.748  0.00  0.00     0.083 C 
ATOM     19  C   UNL d   1      30.239  17.682 -25.095  0.00  0.00     0.021 C 
ENDBRANCH   4  18
TORSDOF 4
ENDMDL
MODEL 5
REMARK VINA RESULT:      -2.2      2.804      4.340
REMARK  4 active torsions:
REMARK  status: ('A' for Active; 'I' for Inactive)
REMARK    1  A    between atoms: C_6  and  N_3 
REMARK    2  A    between atoms: C_13  and  N_4 
REMARK    3  A    between atoms: C_5  and  C_6 
REMARK       I    between atoms: N_10  and  C_5 
REMARK    4  A    between atoms: C_14  and  N_10 
ROOT
ATOM      1  C   UNL d   1      32.290  16.991 -23.467  0.00  0.00     0.322 A 
ATOM      2  C   UNL d   1      32.705  17.699 -23.386  0.00  0.00     0.322 A 
ATOM      3  N   UNL d   1      31.758  16.892 -24.084  0.00  0.00    -0.262 N 
ATOM      4  N   UNL d   1      32.588  18.310 -23.921  0.00  0.00    -0.267 N 
ATOM      5  C   UNL d   1      31.640  17.504 -24.622  0.00  0.00     0.102 A 
ATOM      6  O   UNL d   1      32.411  16.377 -22.925  0.00  0.00    -0.261 OA
ATOM      7  O   UNL d   1      33.241  17.795 -22.762  0.00  0.00    -0.261 OA
ATOM      8  C   UNL d   1      32.054  18.213 -24.541  0.00  0.00     0.102 A 
ENDROOT
BRANCH   3   9
ATOM      9  C   UNL d   1      31.346  16.187 -24.164  0.00  0.00     0.146 C 
BRANCH   9  10
ATOM     10  C   UNL d   1      30.529  16.202 -24.234  0.00  0.00     0.297 C 
ATOM     11  N   UNL d   1      30.047  16.055 -23.591  0.00  0.00    -0.207 NA
ATOM     12  O   UNL d   1      30.194  16.370 -24.970  0.00  0.00    -0.264 OA
BRANCH  11  13
ATOM     13  C   UNL d   1      29.227  16.072 -23.668  0.00  0.00     0.085 A 
ATOM     14  C   UNL d   1      28.713  15.453 -23.515  0.00  0.00     0.019 A 
ATOM     15  C   UNL d   1      27.953  15.715 -23.666  0.00  0.00     0.002 A 
ATOM     16  C   UNL d   1      27.990  16.489 -23.911  0.00  0.00     0.002 A 
ATOM     17  C   UNL d   1      28.782  16.721 -23.916  0.00  0.00     0.019 A 
ENDBRANCH  11  13
ENDBRANCH   9  10
ENDBRANCH   3   9
BRANCH   4  18
ATOM     18  C   UNL d   1      33.003  19.019 -23.840  0.00  0.00     0.083 C 
ATOM     19  C   UNL d   1      33.108  19.513 -24.495  0.00  0.00     0.021 C 
ENDBRANCH   4  18
TORSDOF 4
ENDMDL
MODEL 6
REMARK VINA RESULT:      -1.9      1.205      4.155
REMARK  4 active torsions:
REMARK  status: ('A' for Active; 'I' for Inactive)
REMARK    1  A    between atoms: C_6  and  N_3 
REMARK    2  A    between atoms: C_13  and  N_4 
REMARK    3  A    between atoms: C_5  and  C_6 
REMARK       I    between atoms: N_10  and  C_5 
REMARK    4  A    between atoms: C_14  and  N_10 
ROOT
ATOM      1  C   UNL d   1      33.199  19.364 -22.179  0.00  0.00     0.322 A 
ATOM      2  C   UNL d   1      33.176  18.929 -22.879  0.00  0.00     0.322 A 
ATOM      3  N   UNL d   1      33.216  20.184 -22.202  0.00  0.00    -0.262 N 
ATOM      4  N   UNL d   1      33.169  19.313 -23.604  0.00  0.00    -0.267 N 
ATOM      5  C   UNL d   1      33.209  20.572 -22.930  0.00  0.00     0.102 A 
ATOM      6  O   UNL d   1      33.206  18.974 -21.449  0.00  0.00    -0.261 OA
ATOM      7  O   UNL d   1      33.159  18.102 -22.851  0.00  0.00    -0.261 OA
ATOM      8  C   UNL d   1      33.185  20.136 -23.630  0.00  0.00     0.102 A 
ENDROOT
BRANCH   3   9
ATOM      9  C   UNL d   1      33.240  20.618 -21.505  0.00  0.00     0.146 C 
BRANCH   9  10
ATOM     10  C   UNL d   1      32.952  21.385 -21.497  0.00  0.00     0.297 C 
ATOM     11  N   UNL d   1      32.542  21.676 -20.852  0.00  0.00    -0.207 NA
ATOM     12  O   UNL d   1      33.082  21.869 -22.154  0.00  0.00    -0.264 OA
BRANCH  11  13
ATOM     13  C   UNL d   1      32.256  22.449 -20.851  0.00  0.00     0.085 A 
ATOM     14  C   UNL d   1      32.411  23.021 -20.286  0.00  0.00     0.019 A 
ATOM     15  C   UNL d   1      32.015  23.702 -20.505  0.00  0.00     0.002 A 
ATOM     16  C   UNL d   1      31.617  23.559 -21.199  0.00  0.00     0.002 A 
ATOM     17  C   UNL d   1      31.762  22.779 -21.423  0.00  0.00     0.019 A 
ENDBRANCH  11  13
ENDBRANCH   9  10
ENDBRANCH   3   9
BRANCH   4  18
ATOM     18  C   UNL d   1      33.145  18.878 -24.304  0.00  0.00     0.083 C 
ATOM     19  C   UNL d   1      33.208  19.264 -25.033  0.00  0.00     0.021 C 
ENDBRANCH   4  18
TORSDOF 4
ENDMDL
MODEL 7
REMARK VINA RESULT:      -1.7      1.317      2.046
REMARK  4 active torsions:
REMARK  status: ('A' for Active; 'I' for Inactive)
REMARK    1  A    between atoms: C_6  and  N_3 
REMARK    2  A    between atoms: C_13  and  N_4 
REMARK    3  A    between atoms: C_5  and  C_6 
REMARK       I    between atoms: N_10  and  C_5 
REMARK    4  A    between atoms: C_14  and  N_10 
ROOT
ATOM      1  C   UNL d   1      32.663  22.298 -21.461  0.00  0.00     0.322 A 
ATOM      2  C   UNL d   1      32.466  22.695 -20.765  0.00  0.00     0.322 A 
ATOM      3  N   UNL d   1      33.030  21.564 -21.428  0.00  0.00    -0.262 N 
ATOM      4  N   UNL d   1      32.634  22.358 -20.036  0.00  0.00    -0.267 N 
ATOM      5  C   UNL d   1      33.199  21.225 -20.697  0.00  0.00     0.102 A 
ATOM      6  O   UNL d   1      32.492  22.640 -22.194  0.00  0.00    -0.261 OA
ATOM      7  O   UNL d   1      32.097  23.434 -20.802  0.00  0.00    -0.261 OA
ATOM      8  C   UNL d   1      33.002  21.622 -20.001  0.00  0.00     0.102 A 
ENDROOT
BRANCH   3   9
ATOM      9  C   UNL d   1      33.226  21.169 -22.121  0.00  0.00     0.146 C 
BRANCH   9  10
ATOM     10  C   UNL d   1      32.925  20.419 -22.257  0.00  0.00     0.297 C 
ATOM     11  N   UNL d   1      33.241  19.936 -22.836  0.00  0.00    -0.207 NA
ATOM     12  O   UNL d   1      32.292  20.153 -21.799  0.00  0.00    -0.264 OA
BRANCH  11  13
ATOM     13  C   UNL d   1      32.933  19.183 -22.968  0.00  0.00     0.085 A 
ATOM     14  C   UNL d   1      33.234  18.479 -22.676  0.00  0.00     0.019 A 
ATOM     15  C   UNL d   1      32.756  17.872 -22.944  0.00  0.00     0.002 A 
ATOM     16  C   UNL d   1      32.162  18.191 -23.399  0.00  0.00     0.002 A 
ATOM     17  C   UNL d   1      32.265  19.010 -23.419  0.00  0.00     0.019 A 
ENDBRANCH  11  13
ENDBRANCH   9  10
ENDBRANCH   3   9
BRANCH   4  18
ATOM     18  C   UNL d   1      32.437  22.755 -19.340  0.00  0.00     0.083 C 
ATOM     19  C   UNL d   1      32.696  22.464 -18.610  0.00  0.00     0.021 C 
ENDBRANCH   4  18
TORSDOF 4
ENDMDL
MODEL 8
REMARK VINA RESULT:      -1.6      2.947      5.314
REMARK  4 active torsions:
REMARK  status: ('A' for Active; 'I' for Inactive)
REMARK    1  A    between atoms: C_6  and  N_3 
REMARK    2  A    between atoms: C_13  and  N_4 
REMARK    3  A    between atoms: C_5  and  C_6 
REMARK       I    between atoms: N_10  and  C_5 
REMARK    4  A    between atoms: C_14  and  N_10 
ROOT
ATOM      1  C   UNL d   1      29.823  16.722 -24.479  0.00  0.00     0.322 A 
ATOM      2  C   UNL d   1      29.217  16.355 -24.056  0.00  0.00     0.322 A 
ATOM      3  N   UNL d   1      30.608  16.554 -24.306  0.00  0.00    -0.262 N 
ATOM      4  N   UNL d   1      29.395  15.820 -23.460  0.00  0.00    -0.267 N 
ATOM      5  C   UNL d   1      30.788  16.017 -23.708  0.00  0.00     0.102 A 
ATOM      6  O   UNL d   1      29.640  17.261 -25.080  0.00  0.00    -0.261 OA
ATOM      7  O   UNL d   1      28.428  16.526 -24.234  0.00  0.00    -0.261 OA
ATOM      8  C   UNL d   1      30.182  15.651 -23.285  0.00  0.00     0.102 A 
ENDROOT
BRANCH   3   9
ATOM      9  C   UNL d   1      31.211  16.919 -24.727  0.00  0.00     0.146 C 
BRANCH   9  10
ATOM     10  C   UNL d   1      31.794  17.330 -24.323  0.00  0.00     0.297 C 
ATOM     11  N   UNL d   1      31.715  18.128 -24.164  0.00  0.00    -0.207 NA
ATOM     12  O   UNL d   1      32.470  16.926 -24.076  0.00  0.00    -0.264 OA
BRANCH  11  13
ATOM     13  C   UNL d   1      32.305  18.535 -23.757  0.00  0.00     0.085 A 
ATOM     14  C   UNL d   1      32.602  18.346 -23.017  0.00  0.00     0.019 A 
ATOM     15  C   UNL d   1      33.177  18.896 -22.830  0.00  0.00     0.002 A 
ATOM     16  C   UNL d   1      33.241  19.424 -23.445  0.00  0.00     0.002 A 
ATOM     17  C   UNL d   1      32.700  19.206 -24.029  0.00  0.00     0.019 A 
ENDBRANCH  11  13
ENDBRANCH   9  10
ENDBRANCH   3   9
BRANCH   4  18
ATOM     18  C   UNL d   1      28.789  15.453 -23.037  0.00  0.00     0.083 C 
ATOM     19  C   UNL d   1      28.765  15.515 -22.212  0.00  0.00     0.021 C 
ENDBRANCH   4  18
TORSDOF 4
ENDMDL
MODEL 9
REMARK VINA RESULT:      -1.1      4.686      5.616
REMARK  4 active torsions:
REMARK  status: ('A' for Active; 'I' for Inactive)
REMARK    1  A    between atoms: C_6  and  N_3 
REMARK    2  A    between atoms: C_13  and  N_4 
REMARK    3  A    between atoms: C_5  and  C_6 
REMARK       I    between atoms: N_10  and  C_5 
REMARK    4  A    between atoms: C_14  and  N_10 
ROOT
ATOM      1  C   UNL d   1      28.950  17.406 -24.025  0.00  0.00     0.322 A 
ATOM      2  C   UNL d   1      28.297  17.194 -23.568  0.00  0.00     0.322 A 
ATOM      3  N   UNL d   1      29.434  16.827 -24.348  0.00  0.00    -0.262 N 
ATOM      4  N   UNL d   1      28.127  16.402 -23.433  0.00  0.00    -0.267 N 
ATOM      5  C   UNL d   1      29.265  16.032 -24.213  0.00  0.00     0.102 A 
ATOM      6  O   UNL d   1      29.118  18.205 -24.160  0.00  0.00    -0.261 OA
ATOM      7  O   UNL d   1      27.811  17.780 -23.245  0.00  0.00    -0.261 OA
ATOM      8  C   UNL d   1      28.612  15.820 -23.756  0.00  0.00     0.102 A 
ENDROOT
BRANCH   3   9
ATOM      9  C   UNL d   1      30.084  17.039 -24.803  0.00  0.00     0.146 C 
BRANCH   9  10
ATOM     10  C   UNL d   1      30.757  16.571 -24.788  0.00  0.00     0.297 C 
ATOM     11  N   UNL d   1      31.459  16.849 -24.475  0.00  0.00    -0.207 NA
ATOM     12  O   UNL d   1      30.719  15.806 -25.097  0.00  0.00    -0.264 OA
BRANCH  11  13
ATOM     13  C   UNL d   1      32.131  16.373 -24.464  0.00  0.00     0.085 A 
ATOM     14  C   UNL d   1      32.398  15.927 -23.831  0.00  0.00     0.019 A 
ATOM     15  C   UNL d   1      33.081  15.544 -24.065  0.00  0.00     0.002 A 
ATOM     16  C   UNL d   1      33.241  15.746 -24.836  0.00  0.00     0.002 A 
ATOM     17  C   UNL d   1      32.653  16.264 -25.094  0.00  0.00     0.019 A 
ENDBRANCH  11  13
ENDBRANCH   9  10
ENDBRANCH   3   9
BRANCH   4  18
ATOM     18  C   UNL d   1      27.474  16.190 -22.976  0.00  0.00     0.083 C 
ATOM     19  C   UNL d   1      26.991  15.561 -23.213  0.00  0.00     0.021 C 
ENDBRANCH   4  18
TORSDOF 4
ENDMDL
