MODEL 1
REMARK VINA RESULT:      -6.8      0.000      0.000
REMARK  4 active torsions:
REMARK  status: ('A' for Active; 'I' for Inactive)
REMARK    1  A    between atoms: C_5  and  C_3 
REMARK    2  A    between atoms: S_6  and  C_4 
REMARK    3  A    between atoms: C_10  and  S_6 
REMARK    4  A    between atoms: C_12  and  C_10 
ROOT
ATOM      1  N   UNL d   1     -46.271  13.786  23.098  0.00  0.00    -0.148 NA
ATOM      2  N   UNL d   1     -47.029  14.062  23.272  0.00  0.00    -0.141 NA
ATOM      3  C   UNL d   1     -46.165  13.203  22.518  0.00  0.00     0.104 A 
ATOM      4  C   UNL d   1     -47.682  13.766  22.877  0.00  0.00     0.132 A 
ATOM      5  C   UNL d   1     -46.822  12.902  22.117  0.00  0.00     0.023 A 
ATOM      6  C   UNL d   1     -47.577  13.180  22.293  0.00  0.00     0.029 A 
ENDROOT
BRANCH   4   7
ATOM      7  S   UNL d   1     -48.439  14.042  23.051  0.00  0.00    -0.066 SA
BRANCH   7   8
ATOM      8  C   UNL d   1     -48.717  14.736  22.712  0.00  0.00     0.037 C 
BRANCH   8   9
ATOM      9  C   UNL d   1     -49.472  15.012  22.906  0.00  0.00     0.006 A 
ATOM     10  C   UNL d   1     -50.132  14.695  22.531  0.00  0.00     0.001 A 
ATOM     11  C   UNL d   1     -50.882  14.963  22.718  0.00  0.00     0.000 A 
ATOM     12  C   UNL d   1     -50.970  15.559  23.291  0.00  0.00     0.000 A 
ATOM     13  C   UNL d   1     -50.309  15.869  23.659  0.00  0.00     0.000 A 
ATOM     14  C   UNL d   1     -49.556  15.591  23.462  0.00  0.00     0.001 A 
ENDBRANCH   8   9
ENDBRANCH   7   8
ENDBRANCH   4   7
BRANCH   3  15
ATOM     15  C   UNL d   1     -45.407  12.927  22.343  0.00  0.00     0.039 A 
ATOM     16  C   UNL d   1     -45.130  12.254  22.708  0.00  0.00     0.101 A 
ATOM     17  N   UNL d   1     -44.379  11.976  22.538  0.00  0.00    -0.242 NA
ATOM     18  C   UNL d   1     -43.901  12.384  21.992  0.00  0.00     0.099 A 
ATOM     19  C   UNL d   1     -44.184  13.060  21.629  0.00  0.00     0.021 A 
ATOM     20  C   UNL d   1     -44.941  13.344  21.797  0.00  0.00     0.005 A 
ENDBRANCH   3  15
TORSDOF 4
ENDMDL
MODEL 2
REMARK VINA RESULT:      -6.2      1.491      5.154
REMARK  4 active torsions:
REMARK  status: ('A' for Active; 'I' for Inactive)
REMARK    1  A    between atoms: C_5  and  C_3 
REMARK    2  A    between atoms: S_6  and  C_4 
REMARK    3  A    between atoms: C_10  and  S_6 
REMARK    4  A    between atoms: C_12  and  C_10 
ROOT
ATOM      1  N   UNL d   1     -49.028  13.601  23.297  0.00  0.00    -0.148 NA
ATOM      2  N   UNL d   1     -48.343  13.144  23.277  0.00  0.00    -0.141 NA
ATOM      3  C   UNL d   1     -49.007  14.393  23.052  0.00  0.00     0.104 A 
ATOM      4  C   UNL d   1     -47.635  13.464  23.017  0.00  0.00     0.132 A 
ATOM      5  C   UNL d   1     -48.294  14.719  22.789  0.00  0.00     0.023 A 
ATOM      6  C   UNL d   1     -47.611  14.260  22.770  0.00  0.00     0.029 A 
ENDROOT
BRANCH   4   7
ATOM      7  S   UNL d   1     -46.949  13.006  22.997  0.00  0.00    -0.066 SA
BRANCH   7   8
ATOM      8  C   UNL d   1     -46.940  12.257  23.334  0.00  0.00     0.037 C 
BRANCH   8   9
ATOM      9  C   UNL d   1     -46.239  11.818  23.332  0.00  0.00     0.006 A 
ATOM     10  C   UNL d   1     -45.569  12.117  22.958  0.00  0.00     0.001 A 
ATOM     11  C   UNL d   1     -44.873  11.689  22.953  0.00  0.00     0.000 A 
ATOM     12  C   UNL d   1     -44.848  10.947  23.329  0.00  0.00     0.000 A 
ATOM     13  C   UNL d   1     -45.518  10.657  23.697  0.00  0.00     0.000 A 
ATOM     14  C   UNL d   1     -46.216  11.098  23.697  0.00  0.00     0.001 A 
ENDBRANCH   8   9
ENDBRANCH   7   8
ENDBRANCH   4   7
BRANCH   3  15
ATOM     15  C   UNL d   1     -49.693  14.851  23.072  0.00  0.00     0.039 A 
ATOM     16  C   UNL d   1     -50.299  14.692  22.553  0.00  0.00     0.101 A 
ATOM     17  N   UNL d   1     -50.981  15.143  22.569  0.00  0.00    -0.242 NA
ATOM     18  C   UNL d   1     -51.053  15.765  23.118  0.00  0.00     0.099 A 
ATOM     19  C   UNL d   1     -50.441  15.921  23.637  0.00  0.00     0.021 A 
ATOM     20  C   UNL d   1     -49.750  15.468  23.625  0.00  0.00     0.005 A 
ENDBRANCH   3  15
TORSDOF 4
ENDMDL
MODEL 3
REMARK VINA RESULT:      -6.0      1.287      1.853
REMARK  4 active torsions:
REMARK  status: ('A' for Active; 'I' for Inactive)
REMARK    1  A    between atoms: C_5  and  C_3 
REMARK    2  A    between atoms: S_6  and  C_4 
REMARK    3  A    between atoms: C_10  and  S_6 
REMARK    4  A    between atoms: C_12  and  C_10 
ROOT
ATOM      1  N   UNL d   1     -45.802  12.616  23.150  0.00  0.00    -0.148 NA
ATOM      2  N   UNL d   1     -46.456  13.120  23.144  0.00  0.00    -0.141 NA
ATOM      3  C   UNL d   1     -45.901  11.810  23.318  0.00  0.00     0.104 A 
ATOM      4  C   UNL d   1     -47.206  12.832  23.302  0.00  0.00     0.132 A 
ATOM      5  C   UNL d   1     -46.657  11.517  23.478  0.00  0.00     0.023 A 
ATOM      6  C   UNL d   1     -47.307  12.022  23.471  0.00  0.00     0.029 A 
ENDROOT
BRANCH   4   7
ATOM      7  S   UNL d   1     -47.859  13.336  23.296  0.00  0.00    -0.066 SA
BRANCH   7   8
ATOM      8  C   UNL d   1     -48.060  13.746  22.614  0.00  0.00     0.037 C 
BRANCH   8   9
ATOM      9  C   UNL d   1     -48.768  14.173  22.588  0.00  0.00     0.006 A 
ATOM     10  C   UNL d   1     -48.836  14.877  23.009  0.00  0.00     0.001 A 
ATOM     11  C   UNL d   1     -49.533  15.305  22.989  0.00  0.00     0.000 A 
ATOM     12  C   UNL d   1     -50.172  15.021  22.538  0.00  0.00     0.000 A 
ATOM     13  C   UNL d   1     -50.096  14.320  22.123  0.00  0.00     0.000 A 
ATOM     14  C   UNL d   1     -49.388  13.897  22.151  0.00  0.00     0.001 A 
ENDBRANCH   8   9
ENDBRANCH   7   8
ENDBRANCH   4   7
BRANCH   3  15
ATOM     15  C   UNL d   1     -45.247  11.307  23.324  0.00  0.00     0.039 A 
ATOM     16  C   UNL d   1     -44.554  11.541  22.968  0.00  0.00     0.101 A 
ATOM     17  N   UNL d   1     -43.903  11.045  22.972  0.00  0.00    -0.242 NA
ATOM     18  C   UNL d   1     -43.953  10.301  23.341  0.00  0.00     0.099 A 
ATOM     19  C   UNL d   1     -44.652  10.069  23.698  0.00  0.00     0.021 A 
ATOM     20  C   UNL d   1     -45.311  10.567  23.697  0.00  0.00     0.005 A 
ENDBRANCH   3  15
TORSDOF 4
ENDMDL
MODEL 4
REMARK VINA RESULT:      -5.9      1.513      5.150
REMARK  4 active torsions:
REMARK  status: ('A' for Active; 'I' for Inactive)
REMARK    1  A    between atoms: C_5  and  C_3 
REMARK    2  A    between atoms: S_6  and  C_4 
REMARK    3  A    between atoms: C_10  and  S_6 
REMARK    4  A    between atoms: C_12  and  C_10 
ROOT
ATOM      1  N   UNL d   1     -48.667  13.141  23.132  0.00  0.00    -0.148 NA
ATOM      2  N   UNL d   1     -47.956  12.737  23.242  0.00  0.00    -0.141 NA
ATOM      3  C   UNL d   1     -48.663  13.928  22.872  0.00  0.00     0.104 A 
ATOM      4  C   UNL d   1     -47.240  13.107  23.096  0.00  0.00     0.132 A 
ATOM      5  C   UNL d   1     -47.941  14.304  22.724  0.00  0.00     0.023 A 
ATOM      6  C   UNL d   1     -47.233  13.899  22.834  0.00  0.00     0.029 A 
ENDROOT
BRANCH   4   7
ATOM      7  S   UNL d   1     -46.529  12.704  23.206  0.00  0.00    -0.066 SA
BRANCH   7   8
ATOM      8  C   UNL d   1     -46.524  11.889  23.304  0.00  0.00     0.037 C 
BRANCH   8   9
ATOM      9  C   UNL d   1     -45.804  11.483  23.315  0.00  0.00     0.006 A 
ATOM     10  C   UNL d   1     -45.753  10.749  23.683  0.00  0.00     0.001 A 
ATOM     11  C   UNL d   1     -45.044  10.342  23.698  0.00  0.00     0.000 A 
ATOM     12  C   UNL d   1     -44.374  10.678  23.336  0.00  0.00     0.000 A 
ATOM     13  C   UNL d   1     -44.433  11.408  22.972  0.00  0.00     0.000 A 
ATOM     14  C   UNL d   1     -45.154  11.810  22.964  0.00  0.00     0.001 A 
ENDBRANCH   8   9
ENDBRANCH   7   8
ENDBRANCH   4   7
BRANCH   3  15
ATOM     15  C   UNL d   1     -49.374  14.331  22.762  0.00  0.00     0.039 A 
ATOM     16  C   UNL d   1     -49.503  15.034  23.152  0.00  0.00     0.101 A 
ATOM     17  N   UNL d   1     -50.207  15.437  23.046  0.00  0.00    -0.242 NA
ATOM     18  C   UNL d   1     -50.789  15.127  22.539  0.00  0.00     0.099 A 
ATOM     19  C   UNL d   1     -50.655  14.421  22.149  0.00  0.00     0.021 A 
ATOM     20  C   UNL d   1     -49.946  14.010  22.252  0.00  0.00     0.005 A 
ENDBRANCH   3  15
TORSDOF 4
ENDMDL
MODEL 5
REMARK VINA RESULT:      -5.9      1.426      1.626
REMARK  4 active torsions:
REMARK  status: ('A' for Active; 'I' for Inactive)
REMARK    1  A    between atoms: C_5  and  C_3 
REMARK    2  A    between atoms: S_6  and  C_4 
REMARK    3  A    between atoms: C_10  and  S_6 
REMARK    4  A    between atoms: C_12  and  C_10 
ROOT
ATOM      1  N   UNL d   1     -46.208  12.082  22.903  0.00  0.00    -0.148 NA
ATOM      2  N   UNL d   1     -46.983  12.185  23.167  0.00  0.00    -0.141 NA
ATOM      3  C   UNL d   1     -45.796  12.718  22.566  0.00  0.00     0.104 A 
ATOM      4  C   UNL d   1     -47.353  12.913  23.101  0.00  0.00     0.132 A 
ATOM      5  C   UNL d   1     -46.167  13.454  22.498  0.00  0.00     0.023 A 
ATOM      6  C   UNL d   1     -46.940  13.553  22.763  0.00  0.00     0.029 A 
ENDROOT
BRANCH   4   7
ATOM      7  S   UNL d   1     -48.127  13.015  23.365  0.00  0.00    -0.066 SA
BRANCH   7   8
ATOM      8  C   UNL d   1     -48.753  12.996  22.835  0.00  0.00     0.037 C 
BRANCH   8   9
ATOM      9  C   UNL d   1     -49.527  12.935  23.119  0.00  0.00     0.006 A 
ATOM     10  C   UNL d   1     -49.831  12.198  23.325  0.00  0.00     0.001 A 
ATOM     11  C   UNL d   1     -50.596  12.130  23.607  0.00  0.00     0.000 A 
ATOM     12  C   UNL d   1     -51.064  12.814  23.683  0.00  0.00     0.000 A 
ATOM     13  C   UNL d   1     -50.755  13.542  23.476  0.00  0.00     0.000 A 
ATOM     14  C   UNL d   1     -49.981  13.599  23.192  0.00  0.00     0.001 A 
ENDBRANCH   8   9
ENDBRANCH   7   8
ENDBRANCH   4   7
BRANCH   3  15
ATOM     15  C   UNL d   1     -45.021  12.615  22.302  0.00  0.00     0.039 A 
ATOM     16  C   UNL d   1     -44.564  12.020  22.617  0.00  0.00     0.101 A 
ATOM     17  N   UNL d   1     -43.795  11.915  22.357  0.00  0.00    -0.242 NA
ATOM     18  C   UNL d   1     -43.483  12.417  21.772  0.00  0.00     0.099 A 
ATOM     19  C   UNL d   1     -43.947  13.014  21.459  0.00  0.00     0.021 A 
ATOM     20  C   UNL d   1     -44.723  13.124  21.717  0.00  0.00     0.005 A 
ENDBRANCH   3  15
TORSDOF 4
ENDMDL
MODEL 6
REMARK VINA RESULT:      -5.1      1.823      5.139
REMARK  4 active torsions:
REMARK  status: ('A' for Active; 'I' for Inactive)
REMARK    1  A    between atoms: C_5  and  C_3 
REMARK    2  A    between atoms: S_6  and  C_4 
REMARK    3  A    between atoms: C_10  and  S_6 
REMARK    4  A    between atoms: C_12  and  C_10 
ROOT
ATOM      1  N   UNL d   1     -47.975  12.971  22.474  0.00  0.00    -0.148 NA
ATOM      2  N   UNL d   1     -47.168  13.086  22.346  0.00  0.00    -0.141 NA
ATOM      3  C   UNL d   1     -48.233  12.547  23.138  0.00  0.00     0.104 A 
ATOM      4  C   UNL d   1     -46.615  12.785  22.870  0.00  0.00     0.132 A 
ATOM      5  C   UNL d   1     -47.678  12.241  23.668  0.00  0.00     0.023 A 
ATOM      6  C   UNL d   1     -46.874  12.358  23.537  0.00  0.00     0.029 A 
ENDROOT
BRANCH   4   7
ATOM      7  S   UNL d   1     -45.809  12.900  22.741  0.00  0.00    -0.066 SA
BRANCH   7   8
ATOM      8  C   UNL d   1     -45.491  12.812  21.989  0.00  0.00     0.037 C 
BRANCH   8   9
ATOM      9  C   UNL d   1     -44.674  12.722  21.900  0.00  0.00     0.006 A 
ATOM     10  C   UNL d   1     -44.282  12.120  22.302  0.00  0.00     0.001 A 
ATOM     11  C   UNL d   1     -43.474  12.025  22.218  0.00  0.00     0.000 A 
ATOM     12  C   UNL d   1     -43.053  12.542  21.721  0.00  0.00     0.000 A 
ATOM     13  C   UNL d   1     -43.449  13.137  21.325  0.00  0.00     0.000 A 
ATOM     14  C   UNL d   1     -44.265  13.224  21.417  0.00  0.00     0.001 A 
ENDBRANCH   8   9
ENDBRANCH   7   8
ENDBRANCH   4   7
BRANCH   3  15
ATOM     15  C   UNL d   1     -49.040  12.432  23.266  0.00  0.00     0.039 A 
ATOM     16  C   UNL d   1     -49.359  11.688  23.182  0.00  0.00     0.101 A 
ATOM     17  N   UNL d   1     -50.159  11.569  23.308  0.00  0.00    -0.242 NA
ATOM     18  C   UNL d   1     -50.644  12.210  23.523  0.00  0.00     0.099 A 
ATOM     19  C   UNL d   1     -50.318  12.956  23.606  0.00  0.00     0.021 A 
ATOM     20  C   UNL d   1     -49.512  13.081  23.479  0.00  0.00     0.005 A 
ENDBRANCH   3  15
TORSDOF 4
ENDMDL
