MODEL 1
REMARK VINA RESULT:      66.2      0.000      0.000
REMARK  6 active torsions:
REMARK  status: ('A' for Active; 'I' for Inactive)
REMARK    1  A    between atoms: N_6  and  C_1 
REMARK    2  A    between atoms: C_18  and  N_4 
REMARK       I    between atoms: C_8  and  N_6 
REMARK    3  A    between atoms: C_7  and  C_8 
REMARK    4  A    between atoms: C_11  and  C_7 
REMARK    5  A    between atoms: C_19  and  C_9 
REMARK    6  A    between atoms: C_12  and  C_11 
ROOT
ATOM      1  C   UNL d   1      14.163  15.591  -4.473  0.00  0.00     0.128 C 
ATOM      2  C   UNL d   1      14.714  16.148  -4.281  0.00  0.00     0.106 C 
ATOM      3  N   UNL d   1      15.289  16.761  -4.130  0.00  0.00    -0.191 NA
ENDROOT
BRANCH   1   4
ATOM      4  C   UNL d   1      13.977  14.991  -3.915  0.00  0.00     0.289 C 
ATOM      5  N   UNL d   1      14.236  14.226  -4.074  0.00  0.00    -0.201 NA
ATOM      6  O   UNL d   1      13.565  15.158  -3.258  0.00  0.00    -0.264 OA
BRANCH   5   7
ATOM      7  C   UNL d   1      14.052  13.619  -3.516  0.00  0.00     0.160 A 
ATOM      8  C   UNL d   1      14.273  13.549  -2.724  0.00  0.00     0.298 A 
ATOM      9  N   UNL d   1      13.934  12.841  -2.446  0.00  0.00    -0.209 N 
ATOM     10  O   UNL d   1      14.720  14.044  -2.291  0.00  0.00    -0.263 OA
ATOM     11  N   UNL d   1      13.528  12.522  -3.083  0.00  0.00    -0.238 N 
ATOM     12  C   UNL d   1      13.578  12.973  -3.756  0.00  0.00     0.104 A 
ATOM     13  C   UNL d   1      13.090  11.779  -3.037  0.00  0.00     0.120 C 
ATOM     14  C   UNL d   1      13.233  12.807  -4.487  0.00  0.00     0.022 C 
BRANCH   9  15
ATOM     15  C   UNL d   1      13.967  12.488  -1.702  0.00  0.00     0.085 A 
ATOM     16  C   UNL d   1      14.698  12.434  -1.322  0.00  0.00     0.019 A 
ATOM     17  C   UNL d   1      14.739  12.077  -0.566  0.00  0.00     0.002 A 
ATOM     18  C   UNL d   1      14.059  11.785  -0.210  0.00  0.00     0.000 A 
ATOM     19  C   UNL d   1      13.321  11.843  -0.601  0.00  0.00     0.002 A 
ATOM     20  C   UNL d   1      13.288  12.196  -1.346  0.00  0.00     0.019 A 
ENDBRANCH   9  15
ENDBRANCH   5   7
ENDBRANCH   1   4
BRANCH   1  21
ATOM     21  C   UNL d   1      13.764  15.575  -5.193  0.00  0.00     0.040 C 
BRANCH  21  22
ATOM     22  C   UNL d   1      13.562  16.316  -5.598  0.00  0.00     0.101 A 
ATOM     23  O   UNL d   1      13.943  17.081  -5.503  0.00  0.00    -0.307 OA
ATOM     24  C   UNL d   1      13.553  17.608  -6.004  0.00  0.00     0.100 A 
ATOM     25  C   UNL d   1      12.965  17.192  -6.387  0.00  0.00     0.027 A 
ATOM     26  C   UNL d   1      12.993  16.402  -6.119  0.00  0.00     0.027 A 
BRANCH  24  27
ATOM     27  C   UNL d   1      13.750  18.422  -6.084  0.00  0.00     0.023 A 
ATOM     28  C   UNL d   1      13.173  18.952  -6.308  0.00  0.00     0.003 A 
ATOM     29  C   UNL d   1      13.370  19.767  -6.389  0.00  0.00     0.011 A 
ATOM     30  C   UNL d   1      14.134  20.009  -6.241  0.00  0.00     0.058 A 
ATOM     31  C   UNL d   1      14.709  19.480  -6.017  0.00  0.00     0.011 A 
ATOM     32 CL   UNL d   1      14.331  20.825  -6.321  0.00  0.00    -0.082 Cl
ATOM     33  C   UNL d   1      14.513  18.665  -5.937  0.00  0.00     0.003 A 
ENDBRANCH  24  27
ENDBRANCH  21  22
ENDBRANCH   1  21
TORSDOF 6
ENDMDL
