MODEL 1
REMARK VINA RESULT:      82.2      0.000      0.000
REMARK  5 active torsions:
REMARK  status: ('A' for Active; 'I' for Inactive)
REMARK    1  A    between atoms: N_10  and  C_4 
REMARK    2  A    between atoms: C_11  and  N_5 
REMARK    3  A    between atoms: C_14  and  N_10 
REMARK    4  A    between atoms: C_15  and  C_11 
REMARK    5  A    between atoms: C_18  and  C_14 
ROOT
ATOM      1  C   UNL d   1     -58.468 -98.971 -43.767  0.00  0.00     0.191 A 
ATOM      2  C   UNL d   1     -57.772 -98.895 -43.414  0.00  0.00     0.174 A 
ATOM      3  N   UNL d   1     -58.528 -99.028 -44.559  0.00  0.00    -0.042 NA
ATOM      4  C   UNL d   1     -57.873 -99.006 -44.989  0.00  0.00     0.722 A 
ATOM      5  N   UNL d   1     -57.150 -98.928 -44.635  0.00  0.00    -0.132 N 
ATOM      6  N   UNL d   1     -59.141 -98.994 -43.328  0.00  0.00    -0.239 N 
ATOM      7  C   UNL d   1     -59.108 -98.940 -42.540  0.00  0.00     0.358 A 
ATOM      8  N   UNL d   1     -58.401 -98.862 -42.182  0.00  0.00    -0.152 NA
ATOM      9  C   UNL d   1     -57.734 -98.839 -42.615  0.00  0.00     0.303 A 
ATOM     10  O   UNL d   1     -59.781 -98.962 -42.102  0.00  0.00    -0.244 OA
ATOM     11  O   UNL d   1     -57.009 -98.760 -42.247  0.00  0.00    -0.263 OA
ATOM     12  C   UNL d   1     -59.857 -99.073 -43.691  0.00  0.00     0.105 C 
ENDROOT
BRANCH   4  13
ATOM     13  N   UNL d   1     -57.915 -99.061 -45.780  0.00  0.00    -0.137 N 
ATOM     14  C   UNL d   1     -57.461 -98.779 -46.408  0.00  0.00     0.118 C 
BRANCH  13  15
ATOM     15  C   UNL d   1     -58.526 -99.484 -46.132  0.00  0.00     0.098 C 
BRANCH  15  16
ATOM     16  C   UNL d   1     -58.828 -99.242 -46.864  0.00  0.00     0.018 A 
ATOM     17  C   UNL d   1     -59.651 -99.191 -46.971  0.00  0.00     0.002 A 
ATOM     18  C   UNL d   1     -59.954 -98.950 -47.703  0.00  0.00     0.000 A 
ATOM     19  C   UNL d   1     -59.436 -98.762 -48.322  0.00  0.00     0.000 A 
ATOM     20  C   UNL d   1     -58.615 -98.815 -48.208  0.00  0.00     0.000 A 
ATOM     21  C   UNL d   1     -58.312 -99.056 -47.476  0.00  0.00     0.002 A 
ENDBRANCH  15  16
ENDBRANCH  13  15
ENDBRANCH   4  13
BRANCH   5  22
ATOM     22  C   UNL d   1     -56.328 -98.868 -44.684  0.00  0.00     0.098 C 
BRANCH  22  23
ATOM     23  C   UNL d   1     -55.853 -99.521 -44.511  0.00  0.00     0.018 A 
ATOM     24  C   UNL d   1     -55.847-100.154 -45.030  0.00  0.00     0.002 A 
ATOM     25  C   UNL d   1     -55.372-100.807 -44.856  0.00  0.00     0.000 A 
ATOM     26  C   UNL d   1     -55.216-101.529 -45.224  0.00  0.00     0.000 C 
ATOM     27  C   UNL d   1     -54.910-100.818 -44.166  0.00  0.00     0.000 A 
ATOM     28  C   UNL d   1     -54.931-100.168 -43.656  0.00  0.00     0.000 A 
ATOM     29  C   UNL d   1     -55.402 -99.521 -43.827  0.00  0.00     0.002 A 
ENDBRANCH  22  23
ENDBRANCH   5  22
TORSDOF 5
ENDMDL
