MODEL 1
REMARK VINA RESULT:       2.8      0.000      0.000
REMARK  6 active torsions:
REMARK  status: ('A' for Active; 'I' for Inactive)
REMARK    1  A    between atoms: C_8  and  C_6 
REMARK    2  A    between atoms: C_9  and  C_8 
REMARK       I    between atoms: N_11  and  C_9 
REMARK    3  A    between atoms: C_10  and  C_12 
REMARK    4  A    between atoms: O_20  and  C_10 
REMARK    5  A    between atoms: C_19  and  N_11 
REMARK    6  A    between atoms: C_29  and  O_20 
ROOT
ATOM      1  N   UNL d   1     -42.026-121.275 -53.417  0.00  0.00    -0.207 NA
ATOM      2  N   UNL d   1     -42.136-122.946 -53.514  0.00  0.00    -0.240 NA
ATOM      3  C   UNL d   1     -41.979-121.860 -52.853  0.00  0.00     0.297 A 
ATOM      4  C   UNL d   1     -42.147-121.335 -54.231  0.00  0.00     0.086 A 
ATOM      5  C   UNL d   1     -42.240-122.769 -54.307  0.00  0.00     0.083 A 
ATOM      6  C   UNL d   1     -42.017-122.425 -52.889  0.00  0.00     0.144 A 
ATOM      7  C   UNL d   1     -42.252-122.030 -54.682  0.00  0.00     0.035 A 
ATOM      8  O   UNL d   1     -41.853-121.599 -52.083  0.00  0.00    -0.264 OA
ATOM      9  C   UNL d   1     -42.365-121.969 -55.498  0.00  0.00     0.003 A 
ATOM     10  C   UNL d   1     -42.344-123.456 -54.754  0.00  0.00     0.019 A 
ATOM     11  C   UNL d   1     -42.158-120.595 -54.601  0.00  0.00     0.019 A 
ATOM     12  C   UNL d   1     -42.460-123.402 -55.582  0.00  0.00     0.002 A 
ATOM     13  C   UNL d   1     -42.272-120.543 -55.419  0.00  0.00     0.002 A 
ATOM     14  C   UNL d   1     -42.470-122.663 -55.949  0.00  0.00     0.000 A 
ATOM     15  C   UNL d   1     -42.376-121.230 -55.864  0.00  0.00     0.000 A 
ENDROOT
BRANCH   6  16
ATOM     16  C   UNL d   1     -41.934-122.803 -52.160  0.00  0.00     0.086 C 
BRANCH  16  17
ATOM     17  C   UNL d   1     -41.451-123.479 -52.104  0.00  0.00     0.281 C 
ATOM     18  N   UNL d   1     -41.299-123.817 -51.365  0.00  0.00    -0.208 NA
ATOM     19  O   UNL d   1     -41.123-123.816 -52.784  0.00  0.00    -0.265 OA
BRANCH  18  20
ATOM     20  C   UNL d   1     -41.625-123.484 -50.681  0.00  0.00     0.085 A 
ATOM     21  C   UNL d   1     -42.415-123.621 -50.501  0.00  0.00     0.019 A 
ATOM     22  C   UNL d   1     -42.746-123.293 -49.822  0.00  0.00     0.007 A 
ATOM     23  C   UNL d   1     -42.279-122.824 -49.320  0.00  0.00     0.064 A 
ATOM     24  C   UNL d   1     -41.486-122.689 -49.505  0.00  0.00     0.007 A 
ATOM     25  C   UNL d   1     -41.159-123.020 -50.186  0.00  0.00     0.019 A 
BRANCH  23  26
ATOM     26  C   UNL d   1     -42.600-122.499 -48.652  0.00  0.00     0.300 C 
ATOM     27  O   UNL d   1     -43.402-122.351 -48.611  0.00  0.00    -0.259 OA
BRANCH  26  28
ATOM     28  O   UNL d   1     -42.126-122.319 -48.017  0.00  0.00    -0.271 OA
BRANCH  28  29
ATOM     29  C   UNL d   1     -42.416-122.386 -47.260  0.00  0.00     0.126 C 
ATOM     30  C   UNL d   1     -41.958-122.718 -46.676  0.00  0.00     0.029 C 
ENDBRANCH  28  29
ENDBRANCH  26  28
ENDBRANCH  23  26
ENDBRANCH  18  20
ENDBRANCH  16  17
ENDBRANCH   6  16
TORSDOF 6
ENDMDL
