MODEL 1
REMARK VINA RESULT:      -7.9      0.000      0.000
REMARK  7 active torsions:
REMARK  status: ('A' for Active; 'I' for Inactive)
REMARK    1  A    between atoms: S_2  and  C_1 
REMARK    2  A    between atoms: C_8  and  S_2 
REMARK    3  A    between atoms: N_16  and  C_6 
REMARK    4  A    between atoms: N_9  and  C_22 
REMARK    5  A    between atoms: C_24  and  N_16 
REMARK    6  A    between atoms: C_22  and  C_23 
REMARK    7  A    between atoms: C_23  and  C_24 
ROOT
ATOM      1  C   UNL d   1      51.962  33.373  52.971  0.00  0.00     0.187 A 
ATOM      2  N   UNL d   1      51.190  33.440  52.712  0.00  0.00    -0.208 NA
ATOM      3  C   UNL d   1      52.280  34.130  53.038  0.00  0.00     0.118 A 
ATOM      4  S   UNL d   1      51.703  34.660  52.820  0.00  0.00    -0.035 SA
ATOM      5  C   UNL d   1      51.021  34.237  52.616  0.00  0.00     0.196 A 
ATOM      6 CL   UNL d   1      53.041  34.320  53.280  0.00  0.00    -0.073 Cl
ENDROOT
BRANCH   1   7
ATOM      7  S   UNL d   1      52.354  32.670  53.136  0.00  0.00     0.228 S 
ATOM      8  O   UNL d   1      52.231  32.762  53.940  0.00  0.00    -0.216 OA
ATOM      9  O   UNL d   1      52.478  32.576  52.323  0.00  0.00    -0.216 OA
BRANCH   7  10
ATOM     10  C   UNL d   1      52.754  31.959  53.254  0.00  0.00     0.089 A 
ATOM     11  C   UNL d   1      53.452  31.937  53.684  0.00  0.00     0.011 A 
ATOM     12  C   UNL d   1      53.853  31.226  53.802  0.00  0.00     0.001 A 
ATOM     13  C   UNL d   1      53.547  30.525  53.485  0.00  0.00     0.000 A 
ATOM     14  C   UNL d   1      52.844  30.540  53.051  0.00  0.00     0.001 A 
ATOM     15  C   UNL d   1      53.943  29.808  53.600  0.00  0.00     0.000 C 
ATOM     16  C   UNL d   1      52.443  31.251  52.933  0.00  0.00     0.011 A 
ENDBRANCH   7  10
ENDBRANCH   1   7
BRANCH   5  17
ATOM     17  N   UNL d   1      50.302  34.554  52.362  0.00  0.00    -0.220 NA
BRANCH  17  18
ATOM     18  C   UNL d   1      49.775  34.863  52.918  0.00  0.00     0.103 C 
BRANCH  18  19
ATOM     19  C   UNL d   1      49.059  35.186  52.663  0.00  0.00     0.040 C 
BRANCH  19  20
ATOM     20  C   UNL d   1      48.590  35.609  53.196  0.00  0.00     0.083 C 
BRANCH  20  21
ATOM     21  N   UNL d   1      47.903  35.971  52.930  0.00  0.00    -0.285 N 
ATOM     22  C   UNL d   1      47.571  35.895  52.187  0.00  0.00     0.183 A 
ATOM     23  N   UNL d   1      46.889  36.353  52.163  0.00  0.00    -0.222 NA
ATOM     24  C   UNL d   1      46.803  36.709  52.892  0.00  0.00     0.120 A 
ATOM     25  C   UNL d   1      47.430  36.476  53.372  0.00  0.00     0.102 A 
ENDBRANCH  20  21
ENDBRANCH  19  20
ENDBRANCH  18  19
ENDBRANCH  17  18
ENDBRANCH   5  17
TORSDOF 7
ENDMDL
MODEL 2
REMARK VINA RESULT:      -6.7      2.082      5.792
REMARK  7 active torsions:
REMARK  status: ('A' for Active; 'I' for Inactive)
REMARK    1  A    between atoms: S_2  and  C_1 
REMARK    2  A    between atoms: C_8  and  S_2 
REMARK    3  A    between atoms: N_16  and  C_6 
REMARK    4  A    between atoms: N_9  and  C_22 
REMARK    5  A    between atoms: C_24  and  N_16 
REMARK    6  A    between atoms: C_22  and  C_23 
REMARK    7  A    between atoms: C_23  and  C_24 
ROOT
ATOM      1  C   UNL d   1      52.044  33.718  53.033  0.00  0.00     0.187 A 
ATOM      2  N   UNL d   1      52.320  32.953  52.960  0.00  0.00    -0.208 NA
ATOM      3  C   UNL d   1      52.602  34.158  53.450  0.00  0.00     0.118 A 
ATOM      4  S   UNL d   1      53.221  33.661  53.631  0.00  0.00    -0.035 SA
ATOM      5  C   UNL d   1      53.051  32.910  53.329  0.00  0.00     0.196 A 
ATOM      6 CL   UNL d   1      52.549  34.953  53.647  0.00  0.00    -0.073 Cl
ENDROOT
BRANCH   1   7
ATOM      7  S   UNL d   1      51.329  34.001  52.741  0.00  0.00     0.228 S 
ATOM      8  O   UNL d   1      51.708  34.405  52.138  0.00  0.00    -0.216 OA
ATOM      9  O   UNL d   1      50.946  33.593  53.350  0.00  0.00    -0.216 OA
BRANCH   7  10
ATOM     10  C   UNL d   1      50.591  34.261  52.483  0.00  0.00     0.089 A 
ATOM     11  C   UNL d   1      50.064  34.611  53.004  0.00  0.00     0.011 A 
ATOM     12  C   UNL d   1      49.325  34.871  52.746  0.00  0.00     0.001 A 
ATOM     13  C   UNL d   1      49.112  34.778  51.951  0.00  0.00     0.000 A 
ATOM     14  C   UNL d   1      49.638  34.425  51.421  0.00  0.00     0.001 A 
ATOM     15  C   UNL d   1      48.372  35.036  51.685  0.00  0.00     0.000 C 
ATOM     16  C   UNL d   1      50.377  34.165  51.679  0.00  0.00     0.011 A 
ENDBRANCH   7  10
ENDBRANCH   1   7
BRANCH   5  17
ATOM     17  N   UNL d   1      53.527  32.237  53.387  0.00  0.00    -0.220 NA
BRANCH  17  18
ATOM     18  C   UNL d   1      53.192  31.491  53.276  0.00  0.00     0.103 C 
BRANCH  18  19
ATOM     19  C   UNL d   1      53.520  30.837  53.660  0.00  0.00     0.040 C 
BRANCH  19  20
ATOM     20  C   UNL d   1      53.212  30.084  53.516  0.00  0.00     0.083 C 
BRANCH  20  21
ATOM     21  N   UNL d   1      53.277  29.504  54.094  0.00  0.00    -0.285 N 
ATOM     22  C   UNL d   1      52.901  29.499  54.820  0.00  0.00     0.183 A 
ATOM     23  N   UNL d   1      53.124  28.816  55.219  0.00  0.00    -0.222 NA
ATOM     24  C   UNL d   1      53.637  28.403  54.737  0.00  0.00     0.120 A 
ATOM     25  C   UNL d   1      53.735  28.825  54.038  0.00  0.00     0.102 A 
ENDBRANCH  20  21
ENDBRANCH  19  20
ENDBRANCH  18  19
ENDBRANCH  17  18
ENDBRANCH   5  17
TORSDOF 7
ENDMDL
MODEL 3
REMARK VINA RESULT:      -5.6      1.794      5.984
REMARK  7 active torsions:
REMARK  status: ('A' for Active; 'I' for Inactive)
REMARK    1  A    between atoms: S_2  and  C_1 
REMARK    2  A    between atoms: C_8  and  S_2 
REMARK    3  A    between atoms: N_16  and  C_6 
REMARK    4  A    between atoms: N_9  and  C_22 
REMARK    5  A    between atoms: C_24  and  N_16 
REMARK    6  A    between atoms: C_22  and  C_23 
REMARK    7  A    between atoms: C_23  and  C_24 
ROOT
ATOM      1  C   UNL d   1      50.394  34.271  52.582  0.00  0.00     0.187 A 
ATOM      2  N   UNL d   1      50.647  33.781  53.185  0.00  0.00    -0.208 NA
ATOM      3  C   UNL d   1      50.971  34.281  51.994  0.00  0.00     0.118 A 
ATOM      4  S   UNL d   1      51.577  33.795  52.236  0.00  0.00    -0.035 SA
ATOM      5  C   UNL d   1      51.382  33.481  52.977  0.00  0.00     0.196 A 
ATOM      6 CL   UNL d   1      50.943  34.702  51.290  0.00  0.00    -0.073 Cl
ENDROOT
BRANCH   1   7
ATOM      7  S   UNL d   1      49.684  34.686  52.567  0.00  0.00     0.228 S 
ATOM      8  O   UNL d   1      49.419  34.256  51.923  0.00  0.00    -0.216 OA
ATOM      9  O   UNL d   1      49.952  35.121  53.218  0.00  0.00    -0.216 OA
BRANCH   7  10
ATOM     10  C   UNL d   1      48.988  35.127  52.589  0.00  0.00     0.089 A 
ATOM     11  C   UNL d   1      48.481  35.142  51.945  0.00  0.00     0.011 A 
ATOM     12  C   UNL d   1      47.784  35.583  51.967  0.00  0.00     0.001 A 
ATOM     13  C   UNL d   1      47.593  36.015  52.647  0.00  0.00     0.000 A 
ATOM     14  C   UNL d   1      48.100  36.004  53.299  0.00  0.00     0.001 A 
ATOM     15  C   UNL d   1      46.897  36.460  52.676  0.00  0.00     0.000 C 
ATOM     16  C   UNL d   1      48.797  35.563  53.277  0.00  0.00     0.011 A 
ENDBRANCH   7  10
ENDBRANCH   1   7
BRANCH   5  17
ATOM     17  N   UNL d   1      51.839  32.960  53.427  0.00  0.00    -0.220 NA
BRANCH  17  18
ATOM     18  C   UNL d   1      52.276  32.372  53.049  0.00  0.00     0.103 C 
BRANCH  18  19
ATOM     19  C   UNL d   1      52.539  31.719  53.481  0.00  0.00     0.040 C 
BRANCH  19  20
ATOM     20  C   UNL d   1      53.000  31.143  53.109  0.00  0.00     0.083 C 
BRANCH  20  21
ATOM     21  N   UNL d   1      53.033  30.386  53.426  0.00  0.00    -0.285 N 
ATOM     22  C   UNL d   1      52.538  29.762  53.242  0.00  0.00     0.183 A 
ATOM     23  N   UNL d   1      52.770  29.111  53.688  0.00  0.00    -0.222 NA
ATOM     24  C   UNL d   1      53.408  29.337  54.144  0.00  0.00     0.120 A 
ATOM     25  C   UNL d   1      53.575  30.127  53.985  0.00  0.00     0.102 A 
ENDBRANCH  20  21
ENDBRANCH  19  20
ENDBRANCH  18  19
ENDBRANCH  17  18
ENDBRANCH   5  17
TORSDOF 7
ENDMDL
MODEL 4
REMARK VINA RESULT:      -5.6      2.113      5.920
REMARK  7 active torsions:
REMARK  status: ('A' for Active; 'I' for Inactive)
REMARK    1  A    between atoms: S_2  and  C_1 
REMARK    2  A    between atoms: C_8  and  S_2 
REMARK    3  A    between atoms: N_16  and  C_6 
REMARK    4  A    between atoms: N_9  and  C_22 
REMARK    5  A    between atoms: C_24  and  N_16 
REMARK    6  A    between atoms: C_22  and  C_23 
REMARK    7  A    between atoms: C_23  and  C_24 
ROOT
ATOM      1  C   UNL d   1      50.172  34.369  52.590  0.00  0.00     0.187 A 
ATOM      2  N   UNL d   1      50.456  34.004  53.263  0.00  0.00    -0.208 NA
ATOM      3  C   UNL d   1      50.716  34.256  51.983  0.00  0.00     0.118 A 
ATOM      4  S   UNL d   1      51.335  33.822  52.284  0.00  0.00    -0.035 SA
ATOM      5  C   UNL d   1      51.180  33.661  53.080  0.00  0.00     0.196 A 
ATOM      6 CL   UNL d   1      50.651  34.531  51.212  0.00  0.00    -0.073 Cl
ENDROOT
BRANCH   1   7
ATOM      7  S   UNL d   1      49.462  34.779  52.530  0.00  0.00     0.228 S 
ATOM      8  O   UNL d   1      49.170  34.242  51.985  0.00  0.00    -0.216 OA
ATOM      9  O   UNL d   1      49.756  35.321  53.081  0.00  0.00    -0.216 OA
BRANCH   7  10
ATOM     10  C   UNL d   1      48.767  35.221  52.502  0.00  0.00     0.089 A 
ATOM     11  C   UNL d   1      48.565  35.724  53.117  0.00  0.00     0.011 A 
ATOM     12  C   UNL d   1      47.870  36.167  53.089  0.00  0.00     0.001 A 
ATOM     13  C   UNL d   1      47.368  36.103  52.432  0.00  0.00     0.000 A 
ATOM     14  C   UNL d   1      47.566  35.597  51.810  0.00  0.00     0.001 A 
ATOM     15  C   UNL d   1      46.670  36.544  52.397  0.00  0.00     0.000 C 
ATOM     16  C   UNL d   1      48.261  35.155  51.838  0.00  0.00     0.011 A 
ENDBRANCH   7  10
ENDBRANCH   1   7
BRANCH   5  17
ATOM     17  N   UNL d   1      51.660  33.236  53.600  0.00  0.00    -0.220 NA
BRANCH  17  18
ATOM     18  C   UNL d   1      52.481  33.290  53.531  0.00  0.00     0.103 C 
BRANCH  18  19
ATOM     19  C   UNL d   1      52.952  33.219  54.207  0.00  0.00     0.040 C 
BRANCH  19  20
ATOM     20  C   UNL d   1      53.718  32.919  54.139  0.00  0.00     0.083 C 
BRANCH  20  21
ATOM     21  N   UNL d   1      54.317  33.231  54.608  0.00  0.00    -0.285 N 
ATOM     22  C   UNL d   1      54.325  33.265  55.424  0.00  0.00     0.183 A 
ATOM     23  N   UNL d   1      55.028  33.620  55.658  0.00  0.00    -0.222 NA
ATOM     24  C   UNL d   1      55.451  33.803  54.984  0.00  0.00     0.120 A 
ATOM     25  C   UNL d   1      55.014  33.563  54.330  0.00  0.00     0.102 A 
ENDBRANCH  20  21
ENDBRANCH  19  20
ENDBRANCH  18  19
ENDBRANCH  17  18
ENDBRANCH   5  17
TORSDOF 7
ENDMDL
MODEL 5
REMARK VINA RESULT:      -5.2      9.709     11.035
REMARK  7 active torsions:
REMARK  status: ('A' for Active; 'I' for Inactive)
REMARK    1  A    between atoms: S_2  and  C_1 
REMARK    2  A    between atoms: C_8  and  S_2 
REMARK    3  A    between atoms: N_16  and  C_6 
REMARK    4  A    between atoms: N_9  and  C_22 
REMARK    5  A    between atoms: C_24  and  N_16 
REMARK    6  A    between atoms: C_22  and  C_23 
REMARK    7  A    between atoms: C_23  and  C_24 
ROOT
ATOM      1  C   UNL d   1      44.781  27.893  56.965  0.00  0.00     0.187 A 
ATOM      2  N   UNL d   1      44.361  27.416  56.453  0.00  0.00    -0.208 NA
ATOM      3  C   UNL d   1      45.285  27.417  57.411  0.00  0.00     0.118 A 
ATOM      4  S   UNL d   1      45.173  26.647  57.171  0.00  0.00    -0.035 SA
ATOM      5  C   UNL d   1      44.599  26.640  56.575  0.00  0.00     0.196 A 
ATOM      6 CL   UNL d   1      45.807  27.668  57.992  0.00  0.00    -0.073 Cl
ENDROOT
BRANCH   1   7
ATOM      7  S   UNL d   1      44.713  28.710  57.026  0.00  0.00     0.228 S 
ATOM      8  O   UNL d   1      44.314  28.648  57.738  0.00  0.00    -0.216 OA
ATOM      9  O   UNL d   1      45.116  28.773  56.306  0.00  0.00    -0.216 OA
BRANCH   7  10
ATOM     10  C   UNL d   1      44.667  29.533  57.045  0.00  0.00     0.089 A 
ATOM     11  C   UNL d   1      44.667  29.969  56.350  0.00  0.00     0.011 A 
ATOM     12  C   UNL d   1      44.622  30.792  56.369  0.00  0.00     0.001 A 
ATOM     13  C   UNL d   1      44.576  31.184  57.098  0.00  0.00     0.000 A 
ATOM     14  C   UNL d   1      44.576  30.751  57.801  0.00  0.00     0.001 A 
ATOM     15  C   UNL d   1      44.530  32.009  57.125  0.00  0.00     0.000 C 
ATOM     16  C   UNL d   1      44.621  29.927  57.782  0.00  0.00     0.011 A 
ENDBRANCH   7  10
ENDBRANCH   1   7
BRANCH   5  17
ATOM     17  N   UNL d   1      44.314  25.976  56.173  0.00  0.00    -0.220 NA
BRANCH  17  18
ATOM     18  C   UNL d   1      44.841  25.384  55.943  0.00  0.00     0.103 C 
BRANCH  18  19
ATOM     19  C   UNL d   1      44.578  24.774  55.451  0.00  0.00     0.040 C 
BRANCH  19  20
ATOM     20  C   UNL d   1      45.058  24.114  55.328  0.00  0.00     0.083 C 
BRANCH  20  21
ATOM     21  N   UNL d   1      44.809  23.523  54.815  0.00  0.00    -0.285 N 
ATOM     22  C   UNL d   1      44.842  23.545  53.999  0.00  0.00     0.183 A 
ATOM     23  N   UNL d   1      44.535  22.838  53.712  0.00  0.00    -0.222 NA
ATOM     24  C   UNL d   1      44.314  22.384  54.353  0.00  0.00     0.120 A 
ATOM     25  C   UNL d   1      44.482  22.804  55.040  0.00  0.00     0.102 A 
ENDBRANCH  20  21
ENDBRANCH  19  20
ENDBRANCH  18  19
ENDBRANCH  17  18
ENDBRANCH   5  17
TORSDOF 7
ENDMDL
