MODEL 1
REMARK VINA RESULT:      11.0      0.000      0.000
REMARK  3 active torsions:
REMARK  status: ('A' for Active; 'I' for Inactive)
REMARK    1  A    between atoms: C_5  and  C_4 
REMARK    2  A    between atoms: C_6  and  C_5 
REMARK       I    between atoms: N_9  and  C_6 
REMARK    3  A    between atoms: C_12  and  N_9 
ROOT
ATOM      1  N   UNL d   1      46.277 -19.578  43.586  0.00  0.00    -0.205 NA
ATOM      2  C   UNL d   1      46.274 -18.998  44.173  0.00  0.00     0.297 A 
ATOM      3  N   UNL d   1      46.517 -17.965  43.200  0.00  0.00    -0.239 NA
ATOM      4  C   UNL d   1      46.392 -18.205  43.983  0.00  0.00     0.144 A 
ATOM      5  C   UNL d   1      46.401 -19.346  42.799  0.00  0.00     0.102 A 
ATOM      6  C   UNL d   1      46.519 -18.553  42.609  0.00  0.00     0.099 A 
ATOM      7  O   UNL d   1      46.150 -19.232  44.955  0.00  0.00    -0.264 OA
ATOM      8  C   UNL d   1      46.405 -19.929  42.201  0.00  0.00     0.021 A 
ATOM      9  C   UNL d   1      46.645 -18.316  41.815  0.00  0.00     0.021 A 
ATOM     10  C   UNL d   1      46.529 -19.695  41.419  0.00  0.00     0.002 A 
ATOM     11  C   UNL d   1      46.647 -18.902  41.229  0.00  0.00     0.002 A 
ENDROOT
BRANCH   4  12
ATOM     12  C   UNL d   1      46.390 -17.618  44.569  0.00  0.00     0.086 C 
BRANCH  12  13
ATOM     13  C   UNL d   1      45.975 -16.915  44.437  0.00  0.00     0.281 C 
ATOM     14  N   UNL d   1      46.160 -16.270  44.877  0.00  0.00    -0.208 NA
ATOM     15  O   UNL d   1      45.391 -16.872  43.873  0.00  0.00    -0.265 OA
BRANCH  14  16
ATOM     16  C   UNL d   1      45.750 -15.546  44.758  0.00  0.00     0.085 A 
ATOM     17  C   UNL d   1      44.974 -15.477  44.953  0.00  0.00     0.019 A 
ATOM     18  C   UNL d   1      44.573 -14.759  44.834  0.00  0.00     0.002 A 
ATOM     19  C   UNL d   1      44.986 -14.133  44.516  0.00  0.00     0.000 A 
ATOM     20  C   UNL d   1      45.761 -14.195  44.320  0.00  0.00     0.002 A 
ATOM     21  C   UNL d   1      46.143 -14.901  44.440  0.00  0.00     0.019 A 
ENDBRANCH  14  16
ENDBRANCH  12  13
ENDBRANCH   4  12
TORSDOF 3
ENDMDL
