MODEL 1
REMARK VINA RESULT:      -8.8      0.000      0.000
REMARK  3 active torsions:
REMARK  status: ('A' for Active; 'I' for Inactive)
REMARK    1  A    between atoms: C_11  and  C_6 
REMARK    2  A    between atoms: O_20  and  C_11 
REMARK    3  A    between atoms: C_22  and  O_20 
ROOT
ATOM      1  C   UNL d   1     -48.586  13.552  23.029  0.00  0.00     0.155 A 
ATOM      2  C   UNL d   1     -48.185  12.853  23.203  0.00  0.00     0.091 A 
ATOM      3  N   UNL d   1     -49.407  13.577  23.067  0.00  0.00    -0.210 NA
ATOM      4  N   UNL d   1     -49.428  12.202  23.451  0.00  0.00    -0.258 N 
ATOM      5  N   UNL d   1     -48.164  14.227  22.819  0.00  0.00    -0.272 N 
ATOM      6  C   UNL d   1     -46.934  13.507  22.954  0.00  0.00     0.100 A 
ATOM      7  C   UNL d   1     -49.822  12.905  23.276  0.00  0.00     0.152 A 
ATOM      8  C   UNL d   1     -48.605  12.177  23.414  0.00  0.00     0.269 A 
ATOM      9  C   UNL d   1     -47.335  14.207  22.780  0.00  0.00     0.176 A 
ATOM     10  C   UNL d   1     -47.360  12.824  23.167  0.00  0.00     0.016 A 
ATOM     11  C   UNL d   1     -50.650  12.926  23.315  0.00  0.00     0.035 A 
ATOM     12  C   UNL d   1     -49.849  11.527  23.662  0.00  0.00     0.084 A 
ATOM     13  N   UNL d   1     -46.910  14.883  22.568  0.00  0.00    -0.128 N 
ATOM     14  O   UNL d   1     -48.205  11.477  23.588  0.00  0.00    -0.266 OA
ATOM     15  C   UNL d   1     -50.664  11.555  23.698  0.00  0.00     0.019 A 
ATOM     16  C   UNL d   1     -51.064  12.255  23.524  0.00  0.00     0.005 A 
ATOM     17  C   UNL d   1     -48.565  14.927  22.645  0.00  0.00     0.102 C 
ATOM     18  C   UNL d   1     -51.051  13.626  23.141  0.00  0.00     0.003 C 
ENDROOT
BRANCH   6  19
ATOM     19  C   UNL d   1     -46.108  13.484  22.916  0.00  0.00     0.303 C 
ATOM     20  O   UNL d   1     -45.660  13.654  23.587  0.00  0.00    -0.259 OA
BRANCH  19  21
ATOM     21  O   UNL d   1     -45.734  13.290  22.208  0.00  0.00    -0.271 OA
BRANCH  21  22
ATOM     22  C   UNL d   1     -44.968  12.990  22.219  0.00  0.00     0.126 C 
ATOM     23  C   UNL d   1     -44.540  12.932  21.517  0.00  0.00     0.029 C 
ENDBRANCH  21  22
ENDBRANCH  19  21
ENDBRANCH   6  19
TORSDOF 3
ENDMDL
MODEL 2
REMARK VINA RESULT:      -8.7      1.115      2.116
REMARK  3 active torsions:
REMARK  status: ('A' for Active; 'I' for Inactive)
REMARK    1  A    between atoms: C_11  and  C_6 
REMARK    2  A    between atoms: O_20  and  C_11 
REMARK    3  A    between atoms: C_22  and  O_20 
ROOT
ATOM      1  C   UNL d   1     -48.625  13.180  23.234  0.00  0.00     0.155 A 
ATOM      2  C   UNL d   1     -48.138  13.816  23.039  0.00  0.00     0.091 A 
ATOM      3  N   UNL d   1     -49.438  13.289  23.302  0.00  0.00    -0.210 NA
ATOM      4  N   UNL d   1     -49.277  14.670  22.978  0.00  0.00    -0.258 N 
ATOM      5  N   UNL d   1     -48.298  12.435  23.362  0.00  0.00    -0.272 N 
ATOM      6  C   UNL d   1     -46.991  12.957  23.100  0.00  0.00     0.100 A 
ATOM      7  C   UNL d   1     -49.758  14.029  23.174  0.00  0.00     0.152 A 
ATOM      8  C   UNL d   1     -48.463  14.562  22.911  0.00  0.00     0.269 A 
ATOM      9  C   UNL d   1     -47.479  12.321  23.295  0.00  0.00     0.176 A 
ATOM     10  C   UNL d   1     -47.322  13.711  22.971  0.00  0.00     0.016 A 
ATOM     11  C   UNL d   1     -50.577  14.142  23.241  0.00  0.00     0.035 A 
ATOM     12  C   UNL d   1     -49.603  15.415  22.850  0.00  0.00     0.084 A 
ATOM     13  N   UNL d   1     -47.150  11.574  23.423  0.00  0.00    -0.128 N 
ATOM     14  O   UNL d   1     -47.976  15.198  22.716  0.00  0.00    -0.266 OA
ATOM     15  C   UNL d   1     -50.409  15.518  22.918  0.00  0.00     0.019 A 
ATOM     16  C   UNL d   1     -50.897  14.882  23.113  0.00  0.00     0.005 A 
ATOM     17  C   UNL d   1     -48.786  11.798  23.557  0.00  0.00     0.102 C 
ATOM     18  C   UNL d   1     -51.064  13.506  23.436  0.00  0.00     0.003 C 
ENDROOT
BRANCH   6  19
ATOM     19  C   UNL d   1     -46.175  12.847  23.033  0.00  0.00     0.303 C 
ATOM     20  O   UNL d   1     -45.733  12.628  23.694  0.00  0.00    -0.259 OA
BRANCH  19  21
ATOM     21  O   UNL d   1     -45.804  12.956  22.305  0.00  0.00    -0.271 OA
BRANCH  21  22
ATOM     22  C   UNL d   1     -44.986  13.047  22.273  0.00  0.00     0.126 C 
ATOM     23  C   UNL d   1     -44.596  12.983  21.550  0.00  0.00     0.029 C 
ENDBRANCH  21  22
ENDBRANCH  19  21
ENDBRANCH   6  19
TORSDOF 3
ENDMDL
MODEL 3
REMARK VINA RESULT:      -7.6      1.620      4.149
REMARK  3 active torsions:
REMARK  status: ('A' for Active; 'I' for Inactive)
REMARK    1  A    between atoms: C_11  and  C_6 
REMARK    2  A    between atoms: O_20  and  C_11 
REMARK    3  A    between atoms: C_22  and  O_20 
ROOT
ATOM      1  C   UNL d   1     -48.219  12.645  23.181  0.00  0.00     0.155 A 
ATOM      2  C   UNL d   1     -48.133  13.411  22.888  0.00  0.00     0.091 A 
ATOM      3  N   UNL d   1     -47.560  12.161  23.271  0.00  0.00    -0.210 NA
ATOM      4  N   UNL d   1     -46.727  13.210  22.775  0.00  0.00    -0.258 N 
ATOM      5  N   UNL d   1     -48.966  12.363  23.384  0.00  0.00    -0.272 N 
ATOM      6  C   UNL d   1     -49.548  13.614  23.001  0.00  0.00     0.100 A 
ATOM      7  C   UNL d   1     -46.821  12.444  23.069  0.00  0.00     0.152 A 
ATOM      8  C   UNL d   1     -47.387  13.694  22.685  0.00  0.00     0.269 A 
ATOM      9  C   UNL d   1     -49.634  12.848  23.294  0.00  0.00     0.176 A 
ATOM     10  C   UNL d   1     -48.793  13.899  22.796  0.00  0.00     0.016 A 
ATOM     11  C   UNL d   1     -46.154  11.960  23.158  0.00  0.00     0.035 A 
ATOM     12  C   UNL d   1     -45.981  13.492  22.572  0.00  0.00     0.084 A 
ATOM     13  N   UNL d   1     -50.384  12.566  23.497  0.00  0.00    -0.128 N 
ATOM     14  O   UNL d   1     -47.301  14.460  22.391  0.00  0.00    -0.266 OA
ATOM     15  C   UNL d   1     -45.330  13.009  22.663  0.00  0.00     0.019 A 
ATOM     16  C   UNL d   1     -45.416  12.243  22.956  0.00  0.00     0.005 A 
ATOM     17  C   UNL d   1     -49.052  11.597  23.677  0.00  0.00     0.102 C 
ATOM     18  C   UNL d   1     -46.240  11.194  23.451  0.00  0.00     0.003 C 
ENDROOT
BRANCH   6  19
ATOM     19  C   UNL d   1     -50.211  14.099  22.911  0.00  0.00     0.303 C 
ATOM     20  O   UNL d   1     -50.750  13.952  22.304  0.00  0.00    -0.259 OA
BRANCH  19  21
ATOM     21  O   UNL d   1     -50.334  14.729  23.428  0.00  0.00    -0.271 OA
BRANCH  21  22
ATOM     22  C   UNL d   1     -51.035  15.158  23.392  0.00  0.00     0.126 C 
ATOM     23  C   UNL d   1     -51.064  15.922  23.698  0.00  0.00     0.029 C 
ENDBRANCH  21  22
ENDBRANCH  19  21
ENDBRANCH   6  19
TORSDOF 3
ENDMDL
MODEL 4
REMARK VINA RESULT:      -6.3      9.059     10.090
REMARK  3 active torsions:
REMARK  status: ('A' for Active; 'I' for Inactive)
REMARK    1  A    between atoms: C_11  and  C_6 
REMARK    2  A    between atoms: O_20  and  C_11 
REMARK    3  A    between atoms: C_22  and  O_20 
ROOT
ATOM      1  C   UNL d   1     -39.347  14.421  18.894  0.00  0.00     0.155 A 
ATOM      2  C   UNL d   1     -39.883  15.040  18.998  0.00  0.00     0.091 A 
ATOM      3  N   UNL d   1     -38.997  14.065  19.547  0.00  0.00    -0.210 NA
ATOM      4  N   UNL d   1     -39.716  14.946  20.410  0.00  0.00    -0.258 N 
ATOM      5  N   UNL d   1     -39.164  14.159  18.135  0.00  0.00    -0.272 N 
ATOM      6  C   UNL d   1     -40.050  15.135  17.577  0.00  0.00     0.100 A 
ATOM      7  C   UNL d   1     -39.182  14.327  20.298  0.00  0.00     0.152 A 
ATOM      8  C   UNL d   1     -40.067  15.303  19.756  0.00  0.00     0.269 A 
ATOM      9  C   UNL d   1     -39.515  14.516  17.473  0.00  0.00     0.176 A 
ATOM     10  C   UNL d   1     -40.236  15.400  18.344  0.00  0.00     0.016 A 
ATOM     11  C   UNL d   1     -38.830  13.970  20.959  0.00  0.00     0.035 A 
ATOM     12  C   UNL d   1     -39.901  15.209  21.168  0.00  0.00     0.084 A 
ATOM     13  N   UNL d   1     -39.332  14.254  16.711  0.00  0.00    -0.128 N 
ATOM     14  O   UNL d   1     -40.602  15.922  19.860  0.00  0.00    -0.266 OA
ATOM     15  C   UNL d   1     -39.550  14.852  21.813  0.00  0.00     0.019 A 
ATOM     16  C   UNL d   1     -39.015  14.233  21.709  0.00  0.00     0.005 A 
ATOM     17  C   UNL d   1     -38.628  13.540  18.030  0.00  0.00     0.102 C 
ATOM     18  C   UNL d   1     -38.295  13.351  20.855  0.00  0.00     0.003 C 
ENDROOT
BRANCH   6  19
ATOM     19  C   UNL d   1     -40.402  15.492  16.920  0.00  0.00     0.303 C 
ATOM     20  O   UNL d   1     -39.940  15.922  16.388  0.00  0.00    -0.259 OA
BRANCH  19  21
ATOM     21  O   UNL d   1     -41.213  15.418  16.796  0.00  0.00    -0.271 OA
BRANCH  21  22
ATOM     22  C   UNL d   1     -41.590  15.904  16.249  0.00  0.00     0.126 C 
ATOM     23  C   UNL d   1     -42.413  15.920  16.213  0.00  0.00     0.029 C 
ENDBRANCH  21  22
ENDBRANCH  19  21
ENDBRANCH   6  19
TORSDOF 3
ENDMDL
MODEL 5
REMARK VINA RESULT:      -6.1      8.527     10.189
REMARK  3 active torsions:
REMARK  status: ('A' for Active; 'I' for Inactive)
REMARK    1  A    between atoms: C_11  and  C_6 
REMARK    2  A    between atoms: O_20  and  C_11 
REMARK    3  A    between atoms: C_22  and  O_20 
ROOT
ATOM      1  C   UNL d   1     -40.165  15.558  18.623  0.00  0.00     0.155 A 
ATOM      2  C   UNL d   1     -39.376  15.318  18.659  0.00  0.00     0.091 A 
ATOM      3  N   UNL d   1     -40.591  15.679  19.316  0.00  0.00    -0.210 NA
ATOM      4  N   UNL d   1     -39.441  15.319  20.082  0.00  0.00    -0.258 N 
ATOM      5  N   UNL d   1     -40.526  15.677  17.892  0.00  0.00    -0.272 N 
ATOM      6  C   UNL d   1     -39.311  15.316  17.226  0.00  0.00     0.100 A 
ATOM      7  C   UNL d   1     -40.229  15.560  20.038  0.00  0.00     0.152 A 
ATOM      8  C   UNL d   1     -39.014  15.198  19.388  0.00  0.00     0.269 A 
ATOM      9  C   UNL d   1     -40.099  15.556  17.190  0.00  0.00     0.176 A 
ATOM     10  C   UNL d   1     -38.945  15.195  17.965  0.00  0.00     0.016 A 
ATOM     11  C   UNL d   1     -40.656  15.681  20.739  0.00  0.00     0.035 A 
ATOM     12  C   UNL d   1     -39.079  15.200  20.812  0.00  0.00     0.084 A 
ATOM     13  N   UNL d   1     -40.460  15.676  16.457  0.00  0.00    -0.128 N 
ATOM     14  O   UNL d   1     -38.226  14.957  19.425  0.00  0.00    -0.266 OA
ATOM     15  C   UNL d   1     -39.506  15.321  21.497  0.00  0.00     0.019 A 
ATOM     16  C   UNL d   1     -40.294  15.562  21.461  0.00  0.00     0.005 A 
ATOM     17  C   UNL d   1     -41.314  15.918  17.856  0.00  0.00     0.102 C 
ATOM     18  C   UNL d   1     -41.444  15.922  20.703  0.00  0.00     0.003 C 
ENDROOT
BRANCH   6  19
ATOM     19  C   UNL d   1     -38.884  15.194  16.529  0.00  0.00     0.303 C 
ATOM     20  O   UNL d   1     -38.572  15.839  16.119  0.00  0.00    -0.259 OA
BRANCH  19  21
ATOM     21  O   UNL d   1     -38.769  14.429  16.245  0.00  0.00    -0.271 OA
BRANCH  21  22
ATOM     22  C   UNL d   1     -38.184  14.285  15.684  0.00  0.00     0.126 C 
ATOM     23  C   UNL d   1     -37.950  13.511  15.528  0.00  0.00     0.029 C 
ENDBRANCH  21  22
ENDBRANCH  19  21
ENDBRANCH   6  19
TORSDOF 3
ENDMDL
MODEL 6
REMARK VINA RESULT:      -6.0      9.205      9.960
REMARK  3 active torsions:
REMARK  status: ('A' for Active; 'I' for Inactive)
REMARK    1  A    between atoms: C_11  and  C_6 
REMARK    2  A    between atoms: O_20  and  C_11 
REMARK    3  A    between atoms: C_22  and  O_20 
ROOT
ATOM      1  C   UNL d   1     -39.360  14.510  19.033  0.00  0.00     0.155 A 
ATOM      2  C   UNL d   1     -39.887  14.983  19.456  0.00  0.00     0.091 A 
ATOM      3  N   UNL d   1     -39.383  14.501  18.210  0.00  0.00    -0.210 NA
ATOM      4  N   UNL d   1     -40.459  15.439  18.234  0.00  0.00    -0.258 N 
ATOM      5  N   UNL d   1     -38.811  14.045  19.433  0.00  0.00    -0.272 N 
ATOM      6  C   UNL d   1     -39.310  14.524  20.686  0.00  0.00     0.100 A 
ATOM      7  C   UNL d   1     -39.930  14.963  17.817  0.00  0.00     0.152 A 
ATOM      8  C   UNL d   1     -40.436  15.448  19.057  0.00  0.00     0.269 A 
ATOM      9  C   UNL d   1     -38.784  14.051  20.263  0.00  0.00     0.176 A 
ATOM     10  C   UNL d   1     -39.866  14.995  20.282  0.00  0.00     0.016 A 
ATOM     11  C   UNL d   1     -39.956  14.957  16.988  0.00  0.00     0.035 A 
ATOM     12  C   UNL d   1     -41.009  15.904  17.835  0.00  0.00     0.084 A 
ATOM     13  N   UNL d   1     -38.233  13.585  20.666  0.00  0.00    -0.128 N 
ATOM     14  O   UNL d   1     -40.963  15.922  19.480  0.00  0.00    -0.266 OA
ATOM     15  C   UNL d   1     -41.029  15.893  17.019  0.00  0.00     0.019 A 
ATOM     16  C   UNL d   1     -40.502  15.419  16.595  0.00  0.00     0.005 A 
ATOM     17  C   UNL d   1     -38.284  13.572  19.010  0.00  0.00     0.102 C 
ATOM     18  C   UNL d   1     -39.430  14.484  16.565  0.00  0.00     0.003 C 
ENDROOT
BRANCH   6  19
ATOM     19  C   UNL d   1     -39.286  14.532  21.512  0.00  0.00     0.303 C 
ATOM     20  O   UNL d   1     -39.603  13.902  21.940  0.00  0.00    -0.259 OA
BRANCH  19  21
ATOM     21  O   UNL d   1     -38.946  15.170  21.908  0.00  0.00    -0.271 OA
BRANCH  21  22
ATOM     22  C   UNL d   1     -39.058  15.256  22.719  0.00  0.00     0.126 C 
ATOM     23  C   UNL d   1     -38.760  15.920  23.105  0.00  0.00     0.029 C 
ENDBRANCH  21  22
ENDBRANCH  19  21
ENDBRANCH   6  19
TORSDOF 3
ENDMDL
MODEL 7
REMARK VINA RESULT:      -5.9      8.729      9.770
REMARK  3 active torsions:
REMARK  status: ('A' for Active; 'I' for Inactive)
REMARK    1  A    between atoms: C_11  and  C_6 
REMARK    2  A    between atoms: O_20  and  C_11 
REMARK    3  A    between atoms: C_22  and  O_20 
ROOT
ATOM      1  C   UNL d   1     -39.861  14.949  19.734  0.00  0.00     0.155 A 
ATOM      2  C   UNL d   1     -39.231  14.446  19.906  0.00  0.00     0.091 A 
ATOM      3  N   UNL d   1     -40.162  14.986  18.969  0.00  0.00    -0.210 NA
ATOM      4  N   UNL d   1     -39.202  14.017  18.548  0.00  0.00    -0.258 N 
ATOM      5  N   UNL d   1     -40.191  15.415  20.328  0.00  0.00    -0.272 N 
ATOM      6  C   UNL d   1     -39.260  14.878  21.273  0.00  0.00     0.100 A 
ATOM      7  C   UNL d   1     -39.833  14.522  18.383  0.00  0.00     0.152 A 
ATOM      8  C   UNL d   1     -38.901  13.980  19.314  0.00  0.00     0.269 A 
ATOM      9  C   UNL d   1     -39.890  15.381  21.101  0.00  0.00     0.176 A 
ATOM     10  C   UNL d   1     -38.926  14.407  20.673  0.00  0.00     0.016 A 
ATOM     11  C   UNL d   1     -40.133  14.557  17.611  0.00  0.00     0.035 A 
ATOM     12  C   UNL d   1     -38.872  13.550  17.956  0.00  0.00     0.084 A 
ATOM     13  N   UNL d   1     -40.220  15.848  21.697  0.00  0.00    -0.128 N 
ATOM     14  O   UNL d   1     -38.270  13.477  19.486  0.00  0.00    -0.266 OA
ATOM     15  C   UNL d   1     -39.173  13.590  17.198  0.00  0.00     0.019 A 
ATOM     16  C   UNL d   1     -39.804  14.093  17.026  0.00  0.00     0.005 A 
ATOM     17  C   UNL d   1     -40.822  15.919  20.155  0.00  0.00     0.102 C 
ATOM     18  C   UNL d   1     -40.764  15.060  17.438  0.00  0.00     0.003 C 
ENDROOT
BRANCH   6  19
ATOM     19  C   UNL d   1     -38.958  14.842  22.042  0.00  0.00     0.303 C 
ATOM     20  O   UNL d   1     -38.517  15.471  22.342  0.00  0.00    -0.259 OA
BRANCH  19  21
ATOM     21  O   UNL d   1     -39.100  14.178  22.509  0.00  0.00    -0.271 OA
BRANCH  21  22
ATOM     22  C   UNL d   1     -38.652  14.052  23.188  0.00  0.00     0.126 C 
ATOM     23  C   UNL d   1     -38.773  13.372  23.637  0.00  0.00     0.029 C 
ENDBRANCH  21  22
ENDBRANCH  19  21
ENDBRANCH   6  19
TORSDOF 3
ENDMDL
