MODEL 1
REMARK VINA RESULT:      -2.7      0.000      0.000
REMARK  3 active torsions:
REMARK  status: ('A' for Active; 'I' for Inactive)
REMARK    1  A    between atoms: C_2  and  C_1 
REMARK       I    between atoms: N_7  and  C_2 
REMARK    2  A    between atoms: C_9  and  N_7 
REMARK    3  A    between atoms: O_13  and  C_11 
ROOT
ATOM      1  C   UNL d   1      32.545  16.251 -24.519  0.00  0.00     0.280 C 
ATOM      2  N   UNL d   1      33.194  16.701 -24.295  0.00  0.00    -0.208 NA
ATOM      3  O   UNL d   1      32.637  15.453 -24.692  0.00  0.00    -0.265 OA
ENDROOT
BRANCH   1   4
ATOM      4  C   UNL d   1      31.797  16.600 -24.571  0.00  0.00     0.065 A 
ATOM      5  C   UNL d   1      31.128  16.382 -24.148  0.00  0.00     0.011 A 
ATOM      6  C   UNL d   1      30.503  16.875 -24.369  0.00  0.00     0.030 A 
ATOM      7  C   UNL d   1      31.012  15.792 -23.585  0.00  0.00     0.001 A 
ATOM      8  C   UNL d   1      29.760  16.777 -24.027  0.00  0.00     0.006 A 
ATOM      9  S   UNL d   1      30.780  17.412 -24.940  0.00  0.00    -0.086 SA
ATOM     10  C   UNL d   1      29.642  16.186 -23.463  0.00  0.00     0.001 A 
ATOM     11  C   UNL d   1      30.267  15.694 -23.243  0.00  0.00     0.000 A 
ATOM     12  C   UNL d   1      31.581  17.250 -25.072  0.00  0.00     0.040 A 
ENDBRANCH   1   4
BRANCH   2  13
ATOM     13  C   UNL d   1      33.100  17.510 -24.120  0.00  0.00     0.087 A 
ATOM     14  C   UNL d   1      33.053  17.750 -23.333  0.00  0.00     0.043 A 
ATOM     15  C   UNL d   1      32.960  18.557 -23.162  0.00  0.00     0.096 A 
ATOM     16  C   UNL d   1      32.916  19.110 -23.776  0.00  0.00     0.024 A 
ATOM     17  C   UNL d   1      32.965  18.855 -24.563  0.00  0.00     0.004 A 
ATOM     18  C   UNL d   1      33.057  18.058 -24.736  0.00  0.00     0.019 A 
BRANCH  15  19
ATOM     19  O   UNL d   1      32.913  18.796 -22.376  0.00  0.00    -0.328 OA
ATOM     20  C   UNL d   1      32.907  19.599 -22.184  0.00  0.00     0.181 C 
ENDBRANCH  15  19
ENDBRANCH   2  13
TORSDOF 3
ENDMDL
MODEL 2
REMARK VINA RESULT:      -1.8      1.747      2.518
REMARK  3 active torsions:
REMARK  status: ('A' for Active; 'I' for Inactive)
REMARK    1  A    between atoms: C_2  and  C_1 
REMARK       I    between atoms: N_7  and  C_2 
REMARK    2  A    between atoms: C_9  and  N_7 
REMARK    3  A    between atoms: O_13  and  C_11 
ROOT
ATOM      1  C   UNL d   1      29.470  17.729 -24.826  0.00  0.00     0.280 C 
ATOM      2  N   UNL d   1      30.220  18.063 -24.833  0.00  0.00    -0.208 NA
ATOM      3  O   UNL d   1      28.819  18.171 -25.063  0.00  0.00    -0.265 OA
ENDROOT
BRANCH   1   4
ATOM      4  C   UNL d   1      29.370  16.946 -24.581  0.00  0.00     0.065 A 
ATOM      5  C   UNL d   1      28.874  16.684 -23.981  0.00  0.00     0.011 A 
ATOM      6  C   UNL d   1      28.943  15.863 -23.919  0.00  0.00     0.030 A 
ATOM      7  C   UNL d   1      28.364  17.095 -23.481  0.00  0.00     0.001 A 
ATOM      8  C   UNL d   1      28.502  15.453 -23.357  0.00  0.00     0.006 A 
ATOM      9  S   UNL d   1      29.491  15.601 -24.488  0.00  0.00    -0.086 SA
ATOM     10  C   UNL d   1      27.992  15.863 -22.856  0.00  0.00     0.001 A 
ATOM     11  C   UNL d   1      27.923  16.684 -22.918  0.00  0.00     0.000 A 
ATOM     12  C   UNL d   1      29.761  16.265 -24.903  0.00  0.00     0.040 A 
ENDBRANCH   1   4
BRANCH   2  13
ATOM     13  C   UNL d   1      30.880  17.616 -24.593  0.00  0.00     0.087 A 
ATOM     14  C   UNL d   1      31.217  17.757 -23.854  0.00  0.00     0.043 A 
ATOM     15  C   UNL d   1      31.875  17.310 -23.618  0.00  0.00     0.096 A 
ATOM     16  C   UNL d   1      32.185  16.729 -24.120  0.00  0.00     0.024 A 
ATOM     17  C   UNL d   1      31.836  16.597 -24.860  0.00  0.00     0.004 A 
ATOM     18  C   UNL d   1      31.185  17.038 -25.097  0.00  0.00     0.019 A 
BRANCH  15  19
ATOM     19  O   UNL d   1      32.211  17.452 -22.880  0.00  0.00    -0.328 OA
ATOM     20  C   UNL d   1      32.950  17.816 -22.822  0.00  0.00     0.181 C 
ENDBRANCH  15  19
ENDBRANCH   2  13
TORSDOF 3
ENDMDL
MODEL 3
REMARK VINA RESULT:      -1.5      1.393      2.106
REMARK  3 active torsions:
REMARK  status: ('A' for Active; 'I' for Inactive)
REMARK    1  A    between atoms: C_2  and  C_1 
REMARK       I    between atoms: N_7  and  C_2 
REMARK    2  A    between atoms: C_9  and  N_7 
REMARK    3  A    between atoms: O_13  and  C_11 
ROOT
ATOM      1  C   UNL d   1      30.640  15.785 -23.008  0.00  0.00     0.280 C 
ATOM      2  N   UNL d   1      31.422  15.974 -22.843  0.00  0.00    -0.208 NA
ATOM      3  O   UNL d   1      30.165  15.452 -22.426  0.00  0.00    -0.265 OA
ENDROOT
BRANCH   1   4
ATOM      4  C   UNL d   1      30.330  15.929 -23.761  0.00  0.00     0.065 A 
ATOM      5  C   UNL d   1      29.718  16.444 -23.945  0.00  0.00     0.011 A 
ATOM      6  C   UNL d   1      29.586  16.418 -24.760  0.00  0.00     0.030 A 
ATOM      7  C   UNL d   1      29.262  16.936 -23.466  0.00  0.00     0.001 A 
ATOM      8  C   UNL d   1      28.997  16.886 -25.097  0.00  0.00     0.006 A 
ATOM      9  S   UNL d   1      30.122  15.879 -25.097  0.00  0.00    -0.086 SA
ATOM     10  C   UNL d   1      28.539  17.379 -24.619  0.00  0.00     0.001 A 
ATOM     11  C   UNL d   1      28.672  17.404 -23.804  0.00  0.00     0.000 A 
ATOM     12  C   UNL d   1      30.588  15.571 -24.486  0.00  0.00     0.040 A 
ENDBRANCH   1   4
BRANCH   2  13
ATOM     13  C   UNL d   1      31.904  16.311 -23.433  0.00  0.00     0.087 A 
ATOM     14  C   UNL d   1      32.029  17.125 -23.436  0.00  0.00     0.043 A 
ATOM     15  C   UNL d   1      32.510  17.458 -24.025  0.00  0.00     0.096 A 
ATOM     16  C   UNL d   1      32.858  16.974 -24.599  0.00  0.00     0.024 A 
ATOM     17  C   UNL d   1      32.724  16.157 -24.585  0.00  0.00     0.004 A 
ATOM     18  C   UNL d   1      32.249  15.825 -24.003  0.00  0.00     0.019 A 
BRANCH  15  19
ATOM     19  O   UNL d   1      32.634  18.271 -24.028  0.00  0.00    -0.328 OA
ATOM     20  C   UNL d   1      32.689  18.682 -24.742  0.00  0.00     0.181 C 
ENDBRANCH  15  19
ENDBRANCH   2  13
TORSDOF 3
ENDMDL
