MODEL 1
REMARK VINA RESULT:      -9.4      0.000      0.000
REMARK  1 active torsions:
REMARK  status: ('A' for Active; 'I' for Inactive)
REMARK    1  A    between atoms: C_5  and  C_1 
ROOT
ATOM      1  C   UNL d   1      53.924  32.319  53.979  0.00  0.00     0.005 A 
ATOM      2  C   UNL d   1      53.752  32.452  54.775  0.00  0.00     0.001 A 
ATOM      3  C   UNL d   1      54.546  32.716  53.618  0.00  0.00     0.001 A 
ATOM      4  C   UNL d   1      54.832  33.384  54.846  0.00  0.00     0.058 A 
ATOM      5  C   UNL d   1      55.003  33.251  54.050  0.00  0.00     0.011 A 
ATOM      6  C   UNL d   1      54.203  32.982  55.209  0.00  0.00     0.011 A 
ATOM      7 CL   UNL d   1      55.289  33.922  55.287  0.00  0.00    -0.082 Cl
ENDROOT
BRANCH   1   8
ATOM      8  C   UNL d   1      53.469  31.786  53.546  0.00  0.00     0.060 A 
ATOM      9  C   UNL d   1      52.861  31.849  53.028  0.00  0.00     0.206 A 
ATOM     10  N   UNL d   1      52.540  31.203  52.701  0.00  0.00    -0.127 NA
ATOM     11  N   UNL d   1      52.565  32.598  52.834  0.00  0.00    -0.125 N 
ATOM     12  N   UNL d   1      52.830  30.492  52.894  0.00  0.00    -0.145 NA
ATOM     13  C   UNL d   1      53.435  30.425  53.409  0.00  0.00     0.125 A 
ENDBRANCH   1   8
TORSDOF 1
ENDMDL
MODEL 2
REMARK VINA RESULT:      -8.7      0.504      1.300
REMARK  1 active torsions:
REMARK  status: ('A' for Active; 'I' for Inactive)
REMARK    1  A    between atoms: C_5  and  C_1 
ROOT
ATOM      1  C   UNL d   1      53.906  32.531  53.990  0.00  0.00     0.005 A 
ATOM      2  C   UNL d   1      54.554  32.915  53.654  0.00  0.00     0.001 A 
ATOM      3  C   UNL d   1      53.760  32.593  54.797  0.00  0.00     0.001 A 
ATOM      4  C   UNL d   1      54.910  33.425  54.939  0.00  0.00     0.058 A 
ATOM      5  C   UNL d   1      54.262  33.041  55.275  0.00  0.00     0.011 A 
ATOM      6  C   UNL d   1      55.056  33.361  54.125  0.00  0.00     0.011 A 
ATOM      7 CL   UNL d   1      55.420  33.878  55.418  0.00  0.00    -0.082 Cl
ENDROOT
BRANCH   1   8
ATOM      8  C   UNL d   1      53.404  32.084  53.514  0.00  0.00     0.060 A 
ATOM      9  C   UNL d   1      53.349  31.309  53.320  0.00  0.00     0.206 A 
ATOM     10  N   UNL d   1      52.780  31.054  52.830  0.00  0.00    -0.127 NA
ATOM     11  N   UNL d   1      53.892  30.768  53.633  0.00  0.00    -0.125 N 
ATOM     12  N   UNL d   1      52.266  31.579  52.536  0.00  0.00    -0.145 NA
ATOM     13  C   UNL d   1      52.317  32.351  52.727  0.00  0.00     0.125 A 
ENDBRANCH   1   8
TORSDOF 1
ENDMDL
MODEL 3
REMARK VINA RESULT:      -8.0      2.180      3.075
REMARK  1 active torsions:
REMARK  status: ('A' for Active; 'I' for Inactive)
REMARK    1  A    between atoms: C_5  and  C_1 
ROOT
ATOM      1  C   UNL d   1      53.679  32.626  54.047  0.00  0.00     0.005 A 
ATOM      2  C   UNL d   1      53.760  31.867  54.360  0.00  0.00     0.001 A 
ATOM      3  C   UNL d   1      53.316  32.737  53.318  0.00  0.00     0.001 A 
ATOM      4  C   UNL d   1      53.110  31.329  53.208  0.00  0.00     0.058 A 
ATOM      5  C   UNL d   1      53.030  32.088  52.895  0.00  0.00     0.011 A 
ATOM      6  C   UNL d   1      53.477  31.219  53.944  0.00  0.00     0.011 A 
ATOM      7 CL   UNL d   1      52.823  30.671  52.785  0.00  0.00    -0.082 Cl
ENDROOT
BRANCH   1   8
ATOM      8  C   UNL d   1      53.964  33.275  54.468  0.00  0.00     0.060 A 
ATOM      9  C   UNL d   1      53.646  33.957  54.741  0.00  0.00     0.206 A 
ATOM     10  N   UNL d   1      54.090  34.480  55.138  0.00  0.00    -0.127 NA
ATOM     11  N   UNL d   1      52.844  34.118  54.606  0.00  0.00    -0.125 N 
ATOM     12  N   UNL d   1      54.855  34.316  55.261  0.00  0.00    -0.145 NA
ATOM     13  C   UNL d   1      55.175  33.638  54.991  0.00  0.00     0.125 A 
ENDBRANCH   1   8
TORSDOF 1
ENDMDL
MODEL 4
REMARK VINA RESULT:      -7.8      2.314      3.184
REMARK  1 active torsions:
REMARK  status: ('A' for Active; 'I' for Inactive)
REMARK    1  A    between atoms: C_5  and  C_1 
ROOT
ATOM      1  C   UNL d   1      53.541  32.722  54.042  0.00  0.00     0.005 A 
ATOM      2  C   UNL d   1      53.719  32.000  54.399  0.00  0.00     0.001 A 
ATOM      3  C   UNL d   1      53.188  32.741  53.299  0.00  0.00     0.001 A 
ATOM      4  C   UNL d   1      53.188  31.314  53.265  0.00  0.00     0.058 A 
ATOM      5  C   UNL d   1      53.010  32.036  52.907  0.00  0.00     0.011 A 
ATOM      6  C   UNL d   1      53.544  31.297  54.014  0.00  0.00     0.011 A 
ATOM      7 CL   UNL d   1      53.010  30.601  52.873  0.00  0.00    -0.082 Cl
ENDROOT
BRANCH   1   8
ATOM      8  C   UNL d   1      53.718  33.426  54.431  0.00  0.00     0.060 A 
ATOM      9  C   UNL d   1      54.379  33.746  54.751  0.00  0.00     0.206 A 
ATOM     10  N   UNL d   1      54.356  34.460  55.096  0.00  0.00    -0.127 NA
ATOM     11  N   UNL d   1      55.093  33.327  54.720  0.00  0.00    -0.125 N 
ATOM     12  N   UNL d   1      53.669  34.851  55.120  0.00  0.00    -0.145 NA
ATOM     13  C   UNL d   1      53.009  34.535  54.803  0.00  0.00     0.125 A 
ENDBRANCH   1   8
TORSDOF 1
ENDMDL
MODEL 5
REMARK VINA RESULT:      -7.7      2.534      3.272
REMARK  1 active torsions:
REMARK  status: ('A' for Active; 'I' for Inactive)
REMARK    1  A    between atoms: C_5  and  C_1 
ROOT
ATOM      1  C   UNL d   1      52.830  33.697  53.670  0.00  0.00     0.005 A 
ATOM      2  C   UNL d   1      52.760  34.426  53.290  0.00  0.00     0.001 A 
ATOM      3  C   UNL d   1      52.205  33.163  53.659  0.00  0.00     0.001 A 
ATOM      4  C   UNL d   1      51.433  34.083  52.889  0.00  0.00     0.058 A 
ATOM      5  C   UNL d   1      51.503  33.354  53.268  0.00  0.00     0.011 A 
ATOM      6  C   UNL d   1      52.065  34.621  52.900  0.00  0.00     0.011 A 
ATOM      7 CL   UNL d   1      50.728  34.281  52.493  0.00  0.00    -0.082 Cl
ENDROOT
BRANCH   1   8
ATOM      8  C   UNL d   1      53.529  33.504  54.060  0.00  0.00     0.060 A 
ATOM      9  C   UNL d   1      54.156  33.032  53.900  0.00  0.00     0.206 A 
ATOM     10  N   UNL d   1      54.757  32.970  54.413  0.00  0.00    -0.127 NA
ATOM     11  N   UNL d   1      54.175  32.603  53.192  0.00  0.00    -0.125 N 
ATOM     12  N   UNL d   1      54.728  33.385  55.087  0.00  0.00    -0.145 NA
ATOM     13  C   UNL d   1      54.106  33.856  55.250  0.00  0.00     0.125 A 
ENDBRANCH   1   8
TORSDOF 1
ENDMDL
MODEL 6
REMARK VINA RESULT:      -7.6      1.828      2.264
REMARK  1 active torsions:
REMARK  status: ('A' for Active; 'I' for Inactive)
REMARK    1  A    between atoms: C_5  and  C_1 
ROOT
ATOM      1  C   UNL d   1      52.975  33.703  53.938  0.00  0.00     0.005 A 
ATOM      2  C   UNL d   1      53.125  34.182  54.594  0.00  0.00     0.001 A 
ATOM      3  C   UNL d   1      53.508  33.114  53.725  0.00  0.00     0.001 A 
ATOM      4  C   UNL d   1      54.345  33.477  54.822  0.00  0.00     0.058 A 
ATOM      5  C   UNL d   1      54.196  32.999  54.167  0.00  0.00     0.011 A 
ATOM      6  C   UNL d   1      53.807  34.071  55.036  0.00  0.00     0.011 A 
ATOM      7 CL   UNL d   1      55.038  33.365  55.271  0.00  0.00    -0.082 Cl
ENDROOT
BRANCH   1   8
ATOM      8  C   UNL d   1      52.289  33.817  53.497  0.00  0.00     0.060 A 
ATOM      9  C   UNL d   1      52.068  34.318  52.912  0.00  0.00     0.206 A 
ATOM     10  N   UNL d   1      51.341  34.277  52.598  0.00  0.00    -0.127 NA
ATOM     11  N   UNL d   1      52.605  34.883  52.633  0.00  0.00    -0.125 N 
ATOM     12  N   UNL d   1      50.837  33.732  52.872  0.00  0.00    -0.145 NA
ATOM     13  C   UNL d   1      51.053  33.232  53.454  0.00  0.00     0.125 A 
ENDBRANCH   1   8
TORSDOF 1
ENDMDL
MODEL 7
REMARK VINA RESULT:      -7.3      1.860      2.057
REMARK  1 active torsions:
REMARK  status: ('A' for Active; 'I' for Inactive)
REMARK    1  A    between atoms: C_5  and  C_1 
ROOT
ATOM      1  C   UNL d   1      53.088  33.590  53.751  0.00  0.00     0.005 A 
ATOM      2  C   UNL d   1      52.851  34.204  53.254  0.00  0.00     0.001 A 
ATOM      3  C   UNL d   1      53.282  33.742  54.535  0.00  0.00     0.001 A 
ATOM      4  C   UNL d   1      53.003  35.127  54.333  0.00  0.00     0.058 A 
ATOM      5  C   UNL d   1      53.240  34.513  54.830  0.00  0.00     0.011 A 
ATOM      6  C   UNL d   1      52.808  34.971  53.541  0.00  0.00     0.011 A 
ATOM      7 CL   UNL d   1      52.959  35.906  54.625  0.00  0.00    -0.082 Cl
ENDROOT
BRANCH   1   8
ATOM      8  C   UNL d   1      53.130  32.820  53.459  0.00  0.00     0.060 A 
ATOM      9  C   UNL d   1      53.717  32.286  53.353  0.00  0.00     0.206 A 
ATOM     10  N   UNL d   1      53.563  31.571  53.047  0.00  0.00    -0.127 NA
ATOM     11  N   UNL d   1      54.494  32.483  53.564  0.00  0.00    -0.125 N 
ATOM     12  N   UNL d   1      52.817  31.393  52.849  0.00  0.00    -0.145 NA
ATOM     13  C   UNL d   1      52.230  31.922  52.953  0.00  0.00     0.125 A 
ENDBRANCH   1   8
TORSDOF 1
ENDMDL
