MODEL 1
REMARK VINA RESULT:      45.1      0.000      0.000
REMARK  5 active torsions:
REMARK  status: ('A' for Active; 'I' for Inactive)
REMARK    1  A    between atoms: N_2  and  S_1 
REMARK    2  A    between atoms: C_4  and  S_1 
REMARK    3  A    between atoms: C_3  and  N_2 
REMARK    4  A    between atoms: N_7  and  C_3 
REMARK    5  A    between atoms: C_14  and  N_7 
ROOT
ATOM      1  S   UNL d   1      59.208  49.508  50.708  0.00  0.00     0.287 S 
ATOM      2  O   UNL d   1      58.963  49.326  51.483  0.00  0.00    -0.198 OA
ATOM      3  O   UNL d   1      59.439  49.690  49.927  0.00  0.00    -0.198 OA
ENDROOT
BRANCH   1   4
ATOM      4  N   UNL d   1      60.004  49.460  50.940  0.00  0.00    -0.128 NA
BRANCH   4   5
ATOM      5  C   UNL d   1      60.664  49.000  51.158  0.00  0.00     0.232 C 
ATOM      6  S   UNL d   1      60.896  48.967  51.946  0.00  0.00    -0.036 SA
BRANCH   5   7
ATOM      7  N   UNL d   1      61.081  48.582  50.581  0.00  0.00    -0.217 NA
BRANCH   7   8
ATOM      8  C   UNL d   1      61.132  47.761  50.628  0.00  0.00     0.084 A 
ATOM      9  C   UNL d   1      61.241  47.319  49.941  0.00  0.00     0.019 A 
ATOM     10  C   UNL d   1      61.293  46.498  49.986  0.00  0.00     0.002 A 
ATOM     11  C   UNL d   1      61.236  46.118  50.710  0.00  0.00     0.000 A 
ATOM     12  C   UNL d   1      61.126  46.563  51.399  0.00  0.00     0.002 A 
ATOM     13  C   UNL d   1      61.074  47.384  51.359  0.00  0.00     0.019 A 
ENDBRANCH   7   8
ENDBRANCH   5   7
ENDBRANCH   4   5
ENDBRANCH   1   4
BRANCH   1  14
ATOM     14  C   UNL d   1      58.408  49.555  50.474  0.00  0.00     0.105 A 
ATOM     15  C   UNL d   1      58.213  49.621  49.670  0.00  0.00     0.013 A 
ATOM     16  C   UNL d   1      57.423  49.668  49.439  0.00  0.00     0.001 A 
ATOM     17  C   UNL d   1      56.831  49.650  50.007  0.00  0.00     0.000 A 
ATOM     18  C   UNL d   1      57.016  49.585  50.810  0.00  0.00     0.001 A 
ATOM     19  C   UNL d   1      56.038  49.697  49.775  0.00  0.00     0.000 C 
ATOM     20  C   UNL d   1      57.808  49.537  51.041  0.00  0.00     0.013 A 
ENDBRANCH   1  14
TORSDOF 5
ENDMDL
