MODEL 1
REMARK VINA RESULT:     104.1      0.000      0.000
REMARK  5 active torsions:
REMARK  status: ('A' for Active; 'I' for Inactive)
REMARK    1  A    between atoms: N_7  and  C_1 
REMARK    2  A    between atoms: C_15  and  N_2 
REMARK    3  A    between atoms: C_5  and  C_10 
REMARK       I    between atoms: C_10  and  N_7 
REMARK    4  A    between atoms: C_13  and  C_11 
REMARK    5  A    between atoms: C_24  and  C_15 
ROOT
ATOM      1  N   UNL d   1      60.916  47.652  50.676  0.00  0.00    -0.203 NA
ATOM      2  C   UNL d   1      61.238  47.523  49.912  0.00  0.00     0.299 C 
ATOM      3  O   UNL d   1      61.182  48.109  49.377  0.00  0.00    -0.263 OA
ENDROOT
BRANCH   1   4
ATOM      4  C   UNL d   1      60.546  48.390  50.860  0.00  0.00     0.121 A 
ATOM      5  C   UNL d   1      59.755  48.505  51.115  0.00  0.00     0.102 A 
ATOM      6  N   UNL d   1      59.643  49.312  51.225  0.00  0.00    -0.227 N 
ATOM      7  C   UNL d   1      59.190  47.906  51.234  0.00  0.00     0.022 C 
ATOM      8  N   UNL d   1      60.360  49.707  51.041  0.00  0.00    -0.164 NA
ATOM      9  C   UNL d   1      60.919  49.125  50.813  0.00  0.00     0.120 A 
ATOM     10  C   UNL d   1      61.716  49.248  50.578  0.00  0.00     0.024 C 
BRANCH   6  11
ATOM     11  C   UNL d   1      58.887  49.597  51.486  0.00  0.00     0.101 C 
BRANCH  11  12
ATOM     12  C   UNL d   1      58.246  49.613  50.952  0.00  0.00     0.019 A 
ATOM     13  C   UNL d   1      58.380  49.691  50.137  0.00  0.00     0.002 A 
ATOM     14  C   UNL d   1      57.743  49.708  49.598  0.00  0.00     0.000 A 
ATOM     15  C   UNL d   1      56.951  49.644  49.890  0.00  0.00     0.000 A 
ATOM     16  C   UNL d   1      56.819  49.567  50.688  0.00  0.00     0.000 A 
ATOM     17  C   UNL d   1      56.293  49.657  49.376  0.00  0.00     0.000 C 
ATOM     18  C   UNL d   1      57.461  49.550  51.233  0.00  0.00     0.002 A 
ENDBRANCH  11  12
ENDBRANCH   6  11
ENDBRANCH   1   4
BRANCH   2  19
ATOM     19  C   UNL d   1      61.916  46.141  49.610  0.00  0.00     0.168 A 
ATOM     20  N   UNL d   1      62.427  45.951  49.031  0.00  0.00    -0.121 NA
ATOM     21  O   UNL d   1      62.616  45.191  49.102  0.00  0.00    -0.211 OA
ATOM     22  C   UNL d   1      62.226  44.889  49.728  0.00  0.00     0.127 A 
ATOM     23  C   UNL d   1      61.790  45.477  50.046  0.00  0.00     0.053 A 
BRANCH  22  24
ATOM     24  C   UNL d   1      62.284  44.140  49.962  0.00  0.00     0.027 A 
ATOM     25  C   UNL d   1      62.350  43.968  50.740  0.00  0.00     0.028 A 
ATOM     26  C   UNL d   1      62.408  43.225  50.970  0.00  0.00     0.119 A 
ATOM     27  O   UNL d   1      62.479  42.896  51.689  0.00  0.00    -0.300 OA
ATOM     28  C   UNL d   1      62.403  42.627  50.447  0.00  0.00     0.119 A 
ATOM     29  C   UNL d   1      62.516  42.111  51.606  0.00  0.00     0.304 A 
ATOM     30  O   UNL d   1      62.469  41.944  50.835  0.00  0.00    -0.300 OA
ATOM     31  C   UNL d   1      62.337  42.793  49.667  0.00  0.00     0.026 A 
ATOM     32  C   UNL d   1      62.279  43.536  49.430  0.00  0.00     0.004 A 
ENDBRANCH  22  24
ENDBRANCH   2  19
TORSDOF 5
ENDMDL
