MODEL 1
REMARK VINA RESULT:      -7.2      0.000      0.000
REMARK  4 active torsions:
REMARK  status: ('A' for Active; 'I' for Inactive)
REMARK    1  A    between atoms: N_3  and  S_1 
REMARK    2  A    between atoms: C_4  and  S_1 
REMARK    3  A    between atoms: C_2  and  C_5 
REMARK    4  A    between atoms: C_8  and  N_3 
ROOT
ATOM      1  N   UNL d   1     -41.140-122.138 -52.631  0.00  0.00    -0.158 NA
ENDROOT
BRANCH   1   2
ATOM      2  S   UNL d   1     -41.446-122.319 -51.887  0.00  0.00     0.285 S 
ATOM      3  O   UNL d   1     -41.772-121.555 -51.821  0.00  0.00    -0.198 OA
ATOM      4  O   UNL d   1     -41.123-123.075 -51.952  0.00  0.00    -0.198 OA
BRANCH   2   5
ATOM      5  C   UNL d   1     -41.754-122.493 -51.142  0.00  0.00     0.105 A 
ATOM      6  C   UNL d   1     -41.365-123.016 -50.643  0.00  0.00     0.013 A 
ATOM      7  C   UNL d   1     -41.677-123.183 -49.907  0.00  0.00     0.001 A 
ATOM      8  C   UNL d   1     -42.383-122.830 -49.656  0.00  0.00     0.000 A 
ATOM      9  C   UNL d   1     -42.771-122.307 -50.159  0.00  0.00     0.001 A 
ATOM     10  C   UNL d   1     -42.698-122.999 -48.913  0.00  0.00     0.000 C 
ATOM     11  C   UNL d   1     -42.463-122.133 -50.903  0.00  0.00     0.013 A 
ENDBRANCH   2   5
ENDBRANCH   1   2
BRANCH   1  12
ATOM     12  C   UNL d   1     -41.367-122.483 -53.351  0.00  0.00     0.094 A 
ATOM     13  C   UNL d   1     -41.731-122.015 -53.934  0.00  0.00     0.024 A 
ATOM     14  C   UNL d   1     -41.956-122.362 -54.652  0.00  0.00     0.073 A 
ATOM     15  C   UNL d   1     -41.821-123.169 -54.793  0.00  0.00     0.004 A 
ATOM     16  C   UNL d   1     -41.458-123.629 -54.207  0.00  0.00     0.002 A 
ATOM     17  C   UNL d   1     -41.233-123.283 -53.488  0.00  0.00     0.020 A 
BRANCH  14  18
ATOM     18  C   UNL d   1     -42.317-121.903 -55.234  0.00  0.00     0.419 C 
ATOM     19  F   UNL d   1     -41.915-121.734 -55.935  0.00  0.00    -0.166 F 
ATOM     20  F   UNL d   1     -43.077-121.612 -55.121  0.00  0.00    -0.166 F 
ATOM     21  F   UNL d   1     -41.574-122.088 -55.542  0.00  0.00    -0.166 F 
ENDBRANCH  14  18
ENDBRANCH   1  12
TORSDOF 4
ENDMDL
MODEL 2
REMARK VINA RESULT:      -5.4      3.099      4.899
REMARK  4 active torsions:
REMARK  status: ('A' for Active; 'I' for Inactive)
REMARK    1  A    between atoms: N_3  and  S_1 
REMARK    2  A    between atoms: C_4  and  S_1 
REMARK    3  A    between atoms: C_2  and  C_5 
REMARK    4  A    between atoms: C_8  and  N_3 
ROOT
ATOM      1  N   UNL d   1     -41.189-122.566 -50.466  0.00  0.00    -0.158 NA
ENDROOT
BRANCH   1   2
ATOM      2  S   UNL d   1     -41.222-122.694 -51.279  0.00  0.00     0.285 S 
ATOM      3  O   UNL d   1     -41.123-123.514 -51.167  0.00  0.00    -0.198 OA
ATOM      4  O   UNL d   1     -41.321-121.884 -51.390  0.00  0.00    -0.198 OA
BRANCH   2   5
ATOM      5  C   UNL d   1     -41.255-122.830 -52.092  0.00  0.00     0.105 A 
ATOM      6  C   UNL d   1     -41.142-123.586 -52.391  0.00  0.00     0.013 A 
ATOM      7  C   UNL d   1     -41.175-123.712 -53.197  0.00  0.00     0.001 A 
ATOM      8  C   UNL d   1     -41.323-123.086 -53.719  0.00  0.00     0.000 A 
ATOM      9  C   UNL d   1     -41.436-122.330 -53.416  0.00  0.00     0.001 A 
ATOM     10  C   UNL d   1     -41.357-123.214 -54.533  0.00  0.00     0.000 C 
ATOM     11  C   UNL d   1     -41.403-122.194 -52.603  0.00  0.00     0.013 A 
ENDBRANCH   2   5
ENDBRANCH   1   2
BRANCH   1  12
ATOM     12  C   UNL d   1     -41.797-122.716 -49.920  0.00  0.00     0.094 A 
ATOM     13  C   UNL d   1     -41.607-122.899 -49.132  0.00  0.00     0.024 A 
ATOM     14  C   UNL d   1     -42.215-123.047 -48.590  0.00  0.00     0.073 A 
ATOM     15  C   UNL d   1     -43.010-123.015 -48.827  0.00  0.00     0.004 A 
ATOM     16  C   UNL d   1     -43.192-122.831 -49.615  0.00  0.00     0.002 A 
ATOM     17  C   UNL d   1     -42.584-122.683 -50.158  0.00  0.00     0.020 A 
BRANCH  14  18
ATOM     18  C   UNL d   1     -42.032-123.230 -47.807  0.00  0.00     0.419 C 
ATOM     19  F   UNL d   1     -42.436-122.857 -47.191  0.00  0.00    -0.166 F 
ATOM     20  F   UNL d   1     -41.449-123.782 -47.635  0.00  0.00    -0.166 F 
ATOM     21  F   UNL d   1     -42.632-122.665 -47.758  0.00  0.00    -0.166 F 
ENDBRANCH  14  18
ENDBRANCH   1  12
TORSDOF 4
ENDMDL
