MODEL 1
REMARK VINA RESULT:      63.1      0.000      0.000
REMARK  4 active torsions:
REMARK  status: ('A' for Active; 'I' for Inactive)
REMARK    1  A    between atoms: C_4  and  C_1 
REMARK    2  A    between atoms: C_9  and  N_2 
REMARK    3  A    between atoms: C_10  and  N_3 
REMARK    4  A    between atoms: O_15  and  C_12 
ROOT
ATOM      1  C   UNL d   1      43.897 -15.488  37.132  0.00  0.00     0.133 A 
ATOM      2  N   UNL d   1      44.398 -14.859  36.998  0.00  0.00    -0.290 N 
ATOM      3  N   UNL d   1      43.202 -15.348  36.720  0.00  0.00    -0.290 N 
ATOM      4  C   UNL d   1      43.286 -14.622  36.331  0.00  0.00     0.101 A 
ATOM      5  C   UNL d   1      43.997 -14.339  36.501  0.00  0.00     0.101 A 
ENDROOT
BRANCH   1   6
ATOM      6  C   UNL d   1      44.171 -16.095  37.621  0.00  0.00     0.036 A 
ATOM      7  C   UNL d   1      43.814 -16.212  38.368  0.00  0.00     0.047 A 
ATOM      8  C   UNL d   1      44.089 -16.818  38.857  0.00  0.00     0.218 A 
ATOM      9  O   UNL d   1      43.731 -16.936  39.607  0.00  0.00    -0.284 OA
ATOM     10  C   UNL d   1      44.708 -17.299  38.604  0.00  0.00     0.133 A 
ATOM     11  C   UNL d   1      45.056 -17.179  37.868  0.00  0.00     0.028 A 
ATOM     12  C   UNL d   1      44.783 -16.576  37.381  0.00  0.00     0.005 A 
BRANCH  10  13
ATOM     13  O   UNL d   1      44.990 -17.918  39.100  0.00  0.00    -0.325 OA
ATOM     14  C   UNL d   1      45.774 -17.907  39.356  0.00  0.00     0.181 C 
ENDBRANCH  10  13
ENDBRANCH   1   6
BRANCH   2  15
ATOM     15  C   UNL d   1      45.153 -14.536  37.164  0.00  0.00     0.066 A 
ATOM     16  C   UNL d   1      45.237 -13.963  37.742  0.00  0.00     0.018 A 
ATOM     17  C   UNL d   1      45.965 -13.636  37.920  0.00  0.00     0.002 A 
ATOM     18  C   UNL d   1      46.643 -13.887  37.507  0.00  0.00     0.000 A 
ATOM     19  C   UNL d   1      46.568 -14.473  36.914  0.00  0.00     0.002 A 
ATOM     20  C   UNL d   1      45.815 -14.796  36.746  0.00  0.00     0.018 A 
ENDBRANCH   2  15
BRANCH   3  21
ATOM     21  C   UNL d   1      42.490 -15.752  36.622  0.00  0.00     0.066 A 
ATOM     22  C   UNL d   1      41.765 -15.366  36.715  0.00  0.00     0.018 A 
ATOM     23  C   UNL d   1      41.070 -15.761  36.619  0.00  0.00     0.002 A 
ATOM     24  C   UNL d   1      41.058 -16.575  36.423  0.00  0.00     0.000 A 
ATOM     25  C   UNL d   1      41.788 -16.961  36.331  0.00  0.00     0.002 A 
ATOM     26  C   UNL d   1      42.498 -16.556  36.429  0.00  0.00     0.018 A 
ENDBRANCH   3  21
TORSDOF 4
ENDMDL
