MODEL 1
REMARK VINA RESULT:      -1.7      0.000      0.000
REMARK  3 active torsions:
REMARK  status: ('A' for Active; 'I' for Inactive)
REMARK    1  A    between atoms: S_3  and  N_1 
REMARK    2  A    between atoms: C_8  and  C_4 
REMARK    3  A    between atoms: C_7  and  C_5 
ROOT
ATOM      1  N   UNL d   1     -42.800-122.606 -49.723  0.00  0.00    -0.155 N 
ATOM      2  N   UNL d   1     -42.849-122.801 -48.913  0.00  0.00    -0.155 NA
ATOM      3  C   UNL d   1     -42.020-122.617 -49.936  0.00  0.00     0.096 A 
ATOM      4  C   UNL d   1     -42.081-122.928 -48.650  0.00  0.00     0.110 A 
ATOM      5  C   UNL d   1     -41.550-122.813 -49.294  0.00  0.00     0.041 A 
ENDROOT
BRANCH   3   6
ATOM      6  C   UNL d   1     -41.733-122.454 -50.692  0.00  0.00     0.018 A 
ATOM      7  C   UNL d   1     -41.409-123.050 -51.147  0.00  0.00     0.002 A 
ATOM      8  C   UNL d   1     -41.369-123.817 -50.848  0.00  0.00     0.000 C 
ATOM      9  C   UNL d   1     -41.123-122.887 -51.904  0.00  0.00     0.000 A 
ATOM     10  C   UNL d   1     -41.160-122.128 -52.205  0.00  0.00     0.000 A 
ATOM     11  C   UNL d   1     -41.487-121.519 -51.747  0.00  0.00     0.000 A 
ATOM     12  C   UNL d   1     -41.774-121.682 -50.991  0.00  0.00     0.002 A 
ENDBRANCH   3   6
BRANCH   1  13
ATOM     13  S   UNL d   1     -43.436-122.438 -50.193  0.00  0.00     0.266 S 
ATOM     14  O   UNL d   1     -43.228-121.654 -50.189  0.00  0.00    -0.203 OA
ATOM     15  O   UNL d   1     -43.667-123.248 -50.209  0.00  0.00    -0.203 OA
ATOM     16  C   UNL d   1     -44.117-122.269 -50.695  0.00  0.00     0.165 C 
ENDBRANCH   1  13
BRANCH   4  17
ATOM     17  C   UNL d   1     -41.850-123.135 -47.886  0.00  0.00     0.049 A 
ATOM     18  S   UNL d   1     -42.093-123.816 -47.507  0.00  0.00    -0.085 SA
ATOM     19  C   UNL d   1     -41.742-123.817 -46.759  0.00  0.00     0.035 A 
ATOM     20  C   UNL d   1     -41.280-123.133 -46.676  0.00  0.00     0.007 A 
ATOM     21  C   UNL d   1     -41.351-122.724 -47.365  0.00  0.00     0.009 A 
ENDBRANCH   4  17
TORSDOF 3
ENDMDL
