MODEL 1
REMARK VINA RESULT:       2.3      0.000      0.000
REMARK  3 active torsions:
REMARK  status: ('A' for Active; 'I' for Inactive)
REMARK    1  A    between atoms: C_8  and  C_1 
REMARK    2  A    between atoms: N_4  and  C_2 
REMARK       I    between atoms: C_6  and  N_4 
REMARK    3  A    between atoms: C_10  and  C_6 
ROOT
ATOM      1  C   UNL d   1     -43.302-123.031 -49.570  0.00  0.00     0.177 A 
ATOM      2  C   UNL d   1     -42.537-123.362 -49.618  0.00  0.00     0.114 A 
ATOM      3  O   UNL d   1     -43.360-122.663 -48.840  0.00  0.00    -0.301 OA
ATOM      4  C   UNL d   1     -42.141-123.191 -48.919  0.00  0.00     0.043 A 
ATOM      5  C   UNL d   1     -42.645-122.760 -48.436  0.00  0.00     0.102 A 
ATOM      6  C   UNL d   1     -41.380-123.375 -48.661  0.00  0.00     0.004 A 
ATOM      7  C   UNL d   1     -42.395-122.509 -47.691  0.00  0.00     0.025 A 
ATOM      8  C   UNL d   1     -41.123-123.125 -47.912  0.00  0.00     0.000 A 
ATOM      9  C   UNL d   1     -41.638-122.693 -47.435  0.00  0.00     0.002 A 
ENDROOT
BRANCH   2  10
ATOM     10  N   UNL d   1     -42.233-123.787 -50.259  0.00  0.00    -0.206 NA
ATOM     11  C   UNL d   1     -41.854-123.390 -50.875  0.00  0.00     0.279 C 
ATOM     12  O   UNL d   1     -41.548-123.817 -51.519  0.00  0.00    -0.265 OA
BRANCH  11  13
ATOM     13  C   UNL d   1     -41.779-122.569 -50.851  0.00  0.00     0.058 A 
ATOM     14  C   UNL d   1     -42.285-122.097 -51.300  0.00  0.00     0.005 A 
ATOM     15  C   UNL d   1     -42.210-121.276 -51.276  0.00  0.00     0.000 A 
ATOM     16  C   UNL d   1     -41.629-120.927 -50.803  0.00  0.00     0.000 A 
ATOM     17  C   UNL d   1     -41.123-121.399 -50.354  0.00  0.00     0.000 A 
ATOM     18  C   UNL d   1     -41.198-122.220 -50.378  0.00  0.00     0.005 A 
ENDBRANCH  11  13
ENDBRANCH   2  10
BRANCH   1  19
ATOM     19  C   UNL d   1     -43.908-123.059 -50.146  0.00  0.00     0.321 C 
ATOM     20  O   UNL d   1     -44.166-123.795 -50.438  0.00  0.00    -0.261 OA
ATOM     21  N   UNL d   1     -44.240-122.371 -50.418  0.00  0.00    -0.101 N 
ENDBRANCH   1  19
TORSDOF 3
ENDMDL
MODEL 2
REMARK VINA RESULT:       4.0      1.483      2.057
REMARK  3 active torsions:
REMARK  status: ('A' for Active; 'I' for Inactive)
REMARK    1  A    between atoms: C_8  and  C_1 
REMARK    2  A    between atoms: N_4  and  C_2 
REMARK       I    between atoms: C_6  and  N_4 
REMARK    3  A    between atoms: C_10  and  C_6 
ROOT
ATOM      1  C   UNL d   1     -43.151-122.285 -50.652  0.00  0.00     0.177 A 
ATOM      2  C   UNL d   1     -42.355-122.079 -50.515  0.00  0.00     0.114 A 
ATOM      3  O   UNL d   1     -43.314-122.941 -50.190  0.00  0.00    -0.301 OA
ATOM      4  C   UNL d   1     -42.044-122.611 -49.971  0.00  0.00     0.043 A 
ATOM      5  C   UNL d   1     -42.633-123.145 -49.768  0.00  0.00     0.102 A 
ATOM      6  C   UNL d   1     -41.294-122.675 -49.633  0.00  0.00     0.004 A 
ATOM      7  C   UNL d   1     -42.479-123.748 -49.226  0.00  0.00     0.025 A 
ATOM      8  C   UNL d   1     -41.134-123.281 -49.088  0.00  0.00     0.000 A 
ATOM      9  C   UNL d   1     -41.733-123.811 -48.892  0.00  0.00     0.002 A 
ENDROOT
BRANCH   2  10
ATOM     10  N   UNL d   1     -41.950-121.448 -50.865  0.00  0.00    -0.206 NA
ATOM     11  C   UNL d   1     -41.531-121.565 -51.566  0.00  0.00     0.279 C 
ATOM     12  O   UNL d   1     -41.124-120.931 -51.917  0.00  0.00    -0.265 OA
BRANCH  11  13
ATOM     13  C   UNL d   1     -41.516-122.311 -51.917  0.00  0.00     0.058 A 
ATOM     14  C   UNL d   1     -41.137-122.937 -51.536  0.00  0.00     0.005 A 
ATOM     15  C   UNL d   1     -41.123-123.684 -51.887  0.00  0.00     0.000 A 
ATOM     16  C   UNL d   1     -41.487-123.804 -52.620  0.00  0.00     0.000 A 
ATOM     17  C   UNL d   1     -41.866-123.178 -53.000  0.00  0.00     0.000 A 
ATOM     18  C   UNL d   1     -41.880-122.431 -52.649  0.00  0.00     0.005 A 
ENDBRANCH  11  13
ENDBRANCH   2  10
BRANCH   1  19
ATOM     19  C   UNL d   1     -43.695-121.907 -51.163  0.00  0.00     0.321 C 
ATOM     20  O   UNL d   1     -43.644-121.085 -51.283  0.00  0.00    -0.261 OA
ATOM     21  N   UNL d   1     -44.269-122.341 -51.536  0.00  0.00    -0.101 N 
ENDBRANCH   1  19
TORSDOF 3
ENDMDL
