MODEL 1
REMARK VINA RESULT:      -4.1      0.000      0.000
REMARK  5 active torsions:
REMARK  status: ('A' for Active; 'I' for Inactive)
REMARK    1  A    between atoms: C_13  and  C_4 
REMARK    2  A    between atoms: C_7  and  S_11 
REMARK    3  A    between atoms: O_14  and  C_7 
REMARK    4  A    between atoms: S_11  and  C_13 
REMARK    5  A    between atoms: C_16  and  O_14 
ROOT
ATOM      1  C   UNL d   1      56.647  -0.406  32.229  0.00  0.00     0.148 A 
ATOM      2  N   UNL d   1      56.962   0.344  32.402  0.00  0.00    -0.288 N 
ATOM      3  N   UNL d   1      56.895  -0.589  31.449  0.00  0.00    -0.226 NA
ATOM      4  C   UNL d   1      57.345   0.026  31.155  0.00  0.00     0.107 A 
ATOM      5  C   UNL d   1      57.388   0.613  31.750  0.00  0.00     0.101 A 
ATOM      6  C   UNL d   1      56.192  -0.810  32.785  0.00  0.00     0.035 A 
ATOM      7  C   UNL d   1      56.809   0.682  33.150  0.00  0.00     0.082 A 
ATOM      8  C   UNL d   1      56.353   0.273  33.701  0.00  0.00     0.019 A 
ATOM      9  C   UNL d   1      56.046  -0.468  33.523  0.00  0.00     0.004 A 
ATOM     10  C   UNL d   1      55.878  -1.563  32.610  0.00  0.00     0.003 C 
ENDROOT
BRANCH   4  11
ATOM     11  C   UNL d   1      57.697   0.073  30.410  0.00  0.00     0.059 C 
BRANCH  11  12
ATOM     12  S   UNL d   1      58.333  -0.406  30.226  0.00  0.00    -0.049 SA
BRANCH  12  13
ATOM     13  C   UNL d   1      58.607  -0.444  29.440  0.00  0.00     0.185 C 
ATOM     14  S   UNL d   1      58.623   0.231  28.985  0.00  0.00    -0.044 SA
BRANCH  13  15
ATOM     15  O   UNL d   1      58.860  -1.164  29.133  0.00  0.00    -0.288 OA
BRANCH  15  16
ATOM     16  C   UNL d   1      59.103  -1.886  28.825  0.00  0.00     0.124 C 
ATOM     17  C   UNL d   1      59.906  -2.025  28.679  0.00  0.00     0.029 C 
ENDBRANCH  15  16
ENDBRANCH  13  15
ENDBRANCH  12  13
ENDBRANCH  11  12
ENDBRANCH   4  11
TORSDOF 5
ENDMDL
MODEL 2
REMARK VINA RESULT:      -3.0      1.937      4.258
REMARK  5 active torsions:
REMARK  status: ('A' for Active; 'I' for Inactive)
REMARK    1  A    between atoms: C_13  and  C_4 
REMARK    2  A    between atoms: C_7  and  S_11 
REMARK    3  A    between atoms: O_14  and  C_7 
REMARK    4  A    between atoms: S_11  and  C_13 
REMARK    5  A    between atoms: C_16  and  O_14 
ROOT
ATOM      1  C   UNL d   1      58.271  -0.515  30.092  0.00  0.00     0.148 A 
ATOM      2  N   UNL d   1      58.407   0.295  30.225  0.00  0.00    -0.288 N 
ATOM      3  N   UNL d   1      57.632  -0.728  30.591  0.00  0.00    -0.226 NA
ATOM      4  C   UNL d   1      57.385  -0.075  31.014  0.00  0.00     0.107 A 
ATOM      5  C   UNL d   1      57.870   0.569  30.787  0.00  0.00     0.101 A 
ATOM      6  C   UNL d   1      58.731  -0.935  29.554  0.00  0.00     0.035 A 
ATOM      7  C   UNL d   1      59.019   0.675  29.802  0.00  0.00     0.082 A 
ATOM      8  C   UNL d   1      59.475   0.248  29.265  0.00  0.00     0.019 A 
ATOM      9  C   UNL d   1      59.334  -0.552  29.139  0.00  0.00     0.004 A 
ATOM     10  C   UNL d   1      58.593  -1.748  29.422  0.00  0.00     0.003 C 
ENDROOT
BRANCH   4  11
ATOM     11  C   UNL d   1      56.773  -0.041  31.567  0.00  0.00     0.059 C 
BRANCH  11  12
ATOM     12  S   UNL d   1      56.862  -0.391  32.299  0.00  0.00    -0.049 SA
BRANCH  12  13
ATOM     13  C   UNL d   1      56.193  -0.527  32.776  0.00  0.00     0.185 C 
ATOM     14  S   UNL d   1      55.835  -1.259  32.767  0.00  0.00    -0.044 SA
BRANCH  13  15
ATOM     15  O   UNL d   1      55.901   0.077  33.251  0.00  0.00    -0.288 OA
BRANCH  15  16
ATOM     16  C   UNL d   1      55.602   0.679  33.724  0.00  0.00     0.124 C 
ATOM     17  C   UNL d   1      55.159   0.494  34.399  0.00  0.00     0.029 C 
ENDBRANCH  15  16
ENDBRANCH  13  15
ENDBRANCH  12  13
ENDBRANCH  11  12
ENDBRANCH   4  11
TORSDOF 5
ENDMDL
MODEL 3
REMARK VINA RESULT:      -2.8      1.809      4.630
REMARK  5 active torsions:
REMARK  status: ('A' for Active; 'I' for Inactive)
REMARK    1  A    between atoms: C_13  and  C_4 
REMARK    2  A    between atoms: C_7  and  S_11 
REMARK    3  A    between atoms: O_14  and  C_7 
REMARK    4  A    between atoms: S_11  and  C_13 
REMARK    5  A    between atoms: C_16  and  O_14 
ROOT
ATOM      1  C   UNL d   1      59.276  -2.683  28.838  0.00  0.00     0.148 A 
ATOM      2  N   UNL d   1      60.003  -2.300  28.966  0.00  0.00    -0.288 N 
ATOM      3  N   UNL d   1      58.681  -2.119  29.016  0.00  0.00    -0.226 NA
ATOM      4  C   UNL d   1      59.030  -1.417  29.246  0.00  0.00     0.107 A 
ATOM      5  C   UNL d   1      59.859  -1.528  29.216  0.00  0.00     0.101 A 
ATOM      6  C   UNL d   1      59.252  -3.466  28.584  0.00  0.00     0.035 A 
ATOM      7  C   UNL d   1      60.710  -2.724  28.834  0.00  0.00     0.082 A 
ATOM      8  C   UNL d   1      60.679  -3.507  28.580  0.00  0.00     0.019 A 
ATOM      9  C   UNL d   1      59.956  -3.879  28.455  0.00  0.00     0.004 A 
ATOM     10  C   UNL d   1      58.522  -3.849  28.455  0.00  0.00     0.003 C 
ENDROOT
BRANCH   4  11
ATOM     11  C   UNL d   1      58.648  -0.721  29.469  0.00  0.00     0.059 C 
BRANCH  11  12
ATOM     12  S   UNL d   1      58.193  -0.702  30.147  0.00  0.00    -0.049 SA
BRANCH  12  13
ATOM     13  C   UNL d   1      57.850   0.016  30.394  0.00  0.00     0.185 C 
ATOM     14  S   UNL d   1      57.931   0.682  29.932  0.00  0.00    -0.044 SA
BRANCH  13  15
ATOM     15  O   UNL d   1      57.433   0.044  31.103  0.00  0.00    -0.288 OA
BRANCH  15  16
ATOM     16  C   UNL d   1      57.022   0.078  31.814  0.00  0.00     0.124 C 
ATOM     17  C   UNL d   1      56.613  -0.587  32.089  0.00  0.00     0.029 C 
ENDBRANCH  15  16
ENDBRANCH  13  15
ENDBRANCH  12  13
ENDBRANCH  11  12
ENDBRANCH   4  11
TORSDOF 5
ENDMDL
MODEL 4
REMARK VINA RESULT:      -2.7      1.483      2.092
REMARK  5 active torsions:
REMARK  status: ('A' for Active; 'I' for Inactive)
REMARK    1  A    between atoms: C_13  and  C_4 
REMARK    2  A    between atoms: C_7  and  S_11 
REMARK    3  A    between atoms: O_14  and  C_7 
REMARK    4  A    between atoms: S_11  and  C_13 
REMARK    5  A    between atoms: C_16  and  O_14 
ROOT
ATOM      1  C   UNL d   1      55.536   0.608  33.790  0.00  0.00     0.148 A 
ATOM      2  N   UNL d   1      56.297   0.659  34.122  0.00  0.00    -0.288 N 
ATOM      3  N   UNL d   1      55.644   0.601  32.959  0.00  0.00    -0.226 NA
ATOM      4  C   UNL d   1      56.441   0.646  32.787  0.00  0.00     0.107 A 
ATOM      5  C   UNL d   1      56.853   0.682  33.515  0.00  0.00     0.101 A 
ATOM      6  C   UNL d   1      54.869   0.576  34.273  0.00  0.00     0.035 A 
ATOM      7  C   UNL d   1      56.373   0.676  34.953  0.00  0.00     0.082 A 
ATOM      8  C   UNL d   1      55.702   0.644  35.429  0.00  0.00     0.019 A 
ATOM      9  C   UNL d   1      54.953   0.594  35.094  0.00  0.00     0.004 A 
ATOM     10  C   UNL d   1      54.105   0.525  33.938  0.00  0.00     0.003 C 
ENDROOT
BRANCH   4  11
ATOM     11  C   UNL d   1      56.789   0.654  32.039  0.00  0.00     0.059 C 
BRANCH  11  12
ATOM     12  S   UNL d   1      56.930  -0.047  31.644  0.00  0.00    -0.049 SA
BRANCH  12  13
ATOM     13  C   UNL d   1      57.368  -0.041  30.935  0.00  0.00     0.185 C 
ATOM     14  S   UNL d   1      57.508   0.666  30.553  0.00  0.00    -0.044 SA
BRANCH  13  15
ATOM     15  O   UNL d   1      57.655  -0.748  30.629  0.00  0.00    -0.288 OA
BRANCH  15  16
ATOM     16  C   UNL d   1      57.950  -1.452  30.324  0.00  0.00     0.124 C 
ATOM     17  C   UNL d   1      58.599  -1.442  29.810  0.00  0.00     0.029 C 
ENDBRANCH  15  16
ENDBRANCH  13  15
ENDBRANCH  12  13
ENDBRANCH  11  12
ENDBRANCH   4  11
TORSDOF 5
ENDMDL
MODEL 5
REMARK VINA RESULT:      -1.8      9.408      9.521
REMARK  5 active torsions:
REMARK  status: ('A' for Active; 'I' for Inactive)
REMARK    1  A    between atoms: C_13  and  C_4 
REMARK    2  A    between atoms: C_7  and  S_11 
REMARK    3  A    between atoms: O_14  and  C_7 
REMARK    4  A    between atoms: S_11  and  C_13 
REMARK    5  A    between atoms: C_16  and  O_14 
ROOT
ATOM      1  C   UNL d   1      59.730  -8.822  34.923  0.00  0.00     0.148 A 
ATOM      2  N   UNL d   1      60.487  -8.741  34.587  0.00  0.00    -0.288 N 
ATOM      3  N   UNL d   1      59.262  -9.219  34.352  0.00  0.00    -0.226 NA
ATOM      4  C   UNL d   1      59.713  -9.376  33.690  0.00  0.00     0.107 A 
ATOM      5  C   UNL d   1      60.482  -9.077  33.834  0.00  0.00     0.101 A 
ATOM      6  C   UNL d   1      59.574  -8.534  35.679  0.00  0.00     0.035 A 
ATOM      7  C   UNL d   1      61.085  -8.362  35.028  0.00  0.00     0.082 A 
ATOM      8  C   UNL d   1      60.922  -8.076  35.783  0.00  0.00     0.019 A 
ATOM      9  C   UNL d   1      60.172  -8.160  36.109  0.00  0.00     0.004 A 
ATOM     10  C   UNL d   1      58.814  -8.616  36.016  0.00  0.00     0.003 C 
ENDROOT
BRANCH   4  11
ATOM     11  C   UNL d   1      59.469  -9.757  33.000  0.00  0.00     0.059 C 
BRANCH  11  12
ATOM     12  S   UNL d   1      58.714  -9.639  32.711  0.00  0.00    -0.049 SA
BRANCH  12  13
ATOM     13  C   UNL d   1      58.561  -9.745  31.899  0.00  0.00     0.185 C 
ATOM     14  S   UNL d   1      59.184  -9.818  31.378  0.00  0.00    -0.044 SA
BRANCH  13  15
ATOM     15  O   UNL d   1      57.784  -9.774  31.632  0.00  0.00    -0.288 OA
BRANCH  15  16
ATOM     16  C   UNL d   1      57.008  -9.794  31.363  0.00  0.00     0.124 C 
ATOM     17  C   UNL d   1      56.850  -9.818  30.551  0.00  0.00     0.029 C 
ENDBRANCH  15  16
ENDBRANCH  13  15
ENDBRANCH  12  13
ENDBRANCH  11  12
ENDBRANCH   4  11
TORSDOF 5
ENDMDL
