MODEL 1
REMARK VINA RESULT:       4.6      0.000      0.000
REMARK  4 active torsions:
REMARK  status: ('A' for Active; 'I' for Inactive)
REMARK    1  A    between atoms: C_7  and  C_1 
REMARK    2  A    between atoms: C_8  and  C_2 
REMARK    3  A    between atoms: C_10  and  C_4 
REMARK    4  A    between atoms: O_13  and  C_7 
ROOT
ATOM      1  C   UNL d   1     -41.689-122.104 -52.694  0.00  0.00     0.086 A 
ATOM      2  C   UNL d   1     -41.388-121.194 -51.646  0.00  0.00     0.064 A 
ATOM      3  C   UNL d   1     -41.316-120.573 -52.207  0.00  0.00     0.205 A 
ATOM      4  C   UNL d   1     -41.575-121.951 -51.904  0.00  0.00     0.012 A 
ATOM      5  C   UNL d   1     -41.617-121.482 -53.255  0.00  0.00     0.107 A 
ATOM      6  O   UNL d   1     -41.432-120.727 -53.008  0.00  0.00    -0.288 OA
ATOM      7  N   UNL d   1     -41.124-119.780 -51.966  0.00  0.00    -0.121 N 
ATOM      8  C   UNL d   1     -41.736-121.630 -54.098  0.00  0.00     0.027 C 
ENDROOT
BRANCH   4   9
ATOM      9  C   UNL d   1     -41.645-122.551 -51.364  0.00  0.00     0.000 A 
ATOM     10  C   UNL d   1     -42.196-122.501 -50.765  0.00  0.00     0.000 A 
ATOM     11  C   UNL d   1     -42.267-123.104 -50.221  0.00  0.00     0.000 A 
ATOM     12  C   UNL d   1     -41.787-123.767 -50.267  0.00  0.00     0.000 A 
ATOM     13  C   UNL d   1     -41.227-123.816 -50.876  0.00  0.00     0.000 A 
ATOM     14  C   UNL d   1     -41.156-123.213 -51.419  0.00  0.00     0.000 A 
ENDBRANCH   4   9
BRANCH   2  15
ATOM     15  C   UNL d   1     -41.269-121.028 -50.841  0.00  0.00     0.126 C 
ATOM     16  N   UNL d   1     -41.123-120.248 -50.596  0.00  0.00    -0.146 N 
ENDBRANCH   2  15
BRANCH   1  17
ATOM     17  C   UNL d   1     -41.881-122.878 -52.972  0.00  0.00     0.298 C 
ATOM     18  O   UNL d   1     -42.661-123.129 -52.980  0.00  0.00    -0.259 OA
BRANCH  17  19
ATOM     19  O   UNL d   1     -41.272-123.371 -53.233  0.00  0.00    -0.296 OA
ATOM     20  C   UNL d   1     -41.146-123.499 -54.048  0.00  0.00     0.185 C 
ENDBRANCH  17  19
ENDBRANCH   1  17
TORSDOF 4
ENDMDL
MODEL 2
REMARK VINA RESULT:       5.0      1.324      2.551
REMARK  4 active torsions:
REMARK  status: ('A' for Active; 'I' for Inactive)
REMARK    1  A    between atoms: C_7  and  C_1 
REMARK    2  A    between atoms: C_8  and  C_2 
REMARK    3  A    between atoms: C_10  and  C_4 
REMARK    4  A    between atoms: O_13  and  C_7 
ROOT
ATOM      1  C   UNL d   1     -41.679-121.530 -52.341  0.00  0.00     0.086 A 
ATOM      2  C   UNL d   1     -41.548-122.665 -51.498  0.00  0.00     0.064 A 
ATOM      3  C   UNL d   1     -41.477-122.160 -50.830  0.00  0.00     0.205 A 
ATOM      4  C   UNL d   1     -41.648-122.336 -52.243  0.00  0.00     0.012 A 
ATOM      5  C   UNL d   1     -41.609-121.025 -51.673  0.00  0.00     0.107 A 
ATOM      6  O   UNL d   1     -41.509-121.342 -50.927  0.00  0.00    -0.288 OA
ATOM      7  N   UNL d   1     -41.373-122.475 -50.046  0.00  0.00    -0.121 N 
ATOM      8  C   UNL d   1     -41.641-120.166 -51.761  0.00  0.00     0.027 C 
ENDROOT
BRANCH   4   9
ATOM      9  C   UNL d   1     -41.715-122.822 -52.888  0.00  0.00     0.000 A 
ATOM     10  C   UNL d   1     -42.368-123.304 -52.972  0.00  0.00     0.000 A 
ATOM     11  C   UNL d   1     -42.437-123.794 -53.620  0.00  0.00     0.000 A 
ATOM     12  C   UNL d   1     -41.853-123.809 -54.195  0.00  0.00     0.000 A 
ATOM     13  C   UNL d   1     -41.191-123.319 -54.109  0.00  0.00     0.000 A 
ATOM     14  C   UNL d   1     -41.123-122.830 -53.461  0.00  0.00     0.000 A 
ENDBRANCH   4   9
BRANCH   2  15
ATOM     15  C   UNL d   1     -41.514-123.487 -51.388  0.00  0.00     0.126 C 
ATOM     16  N   UNL d   1     -41.198-123.800 -50.687  0.00  0.00    -0.146 N 
ENDBRANCH   2  15
BRANCH   1  17
ATOM     17  C   UNL d   1     -41.782-121.179 -53.103  0.00  0.00     0.298 C 
ATOM     18  O   UNL d   1     -41.140-120.854 -53.494  0.00  0.00    -0.259 OA
BRANCH  17  19
ATOM     19  O   UNL d   1     -42.536-121.171 -53.440  0.00  0.00    -0.296 OA
ATOM     20  C   UNL d   1     -42.693-120.718 -54.122  0.00  0.00     0.185 C 
ENDBRANCH  17  19
ENDBRANCH   1  17
TORSDOF 4
ENDMDL
MODEL 3
REMARK VINA RESULT:       5.5      2.522      4.012
REMARK  4 active torsions:
REMARK  status: ('A' for Active; 'I' for Inactive)
REMARK    1  A    between atoms: C_7  and  C_1 
REMARK    2  A    between atoms: C_8  and  C_2 
REMARK    3  A    between atoms: C_10  and  C_4 
REMARK    4  A    between atoms: O_13  and  C_7 
ROOT
ATOM      1  C   UNL d   1     -42.445-123.258 -49.143  0.00  0.00     0.086 A 
ATOM      2  C   UNL d   1     -43.523-122.951 -50.014  0.00  0.00     0.064 A 
ATOM      3  C   UNL d   1     -44.068-123.211 -49.431  0.00  0.00     0.205 A 
ATOM      4  C   UNL d   1     -42.718-122.980 -49.856  0.00  0.00     0.012 A 
ATOM      5  C   UNL d   1     -42.990-123.519 -48.560  0.00  0.00     0.107 A 
ATOM      6  O   UNL d   1     -43.792-123.494 -48.707  0.00  0.00    -0.288 OA
ATOM      7  N   UNL d   1     -44.907-123.192 -49.569  0.00  0.00    -0.121 N 
ATOM      8  C   UNL d   1     -42.714-123.817 -47.797  0.00  0.00     0.027 C 
ENDROOT
BRANCH   4   9
ATOM      9  C   UNL d   1     -42.191-122.729 -50.419  0.00  0.00     0.000 A 
ATOM     10  C   UNL d   1     -42.037-121.933 -50.510  0.00  0.00     0.000 A 
ATOM     11  C   UNL d   1     -41.507-121.680 -51.076  0.00  0.00     0.000 A 
ATOM     12  C   UNL d   1     -41.124-122.219 -51.560  0.00  0.00     0.000 A 
ATOM     13  C   UNL d   1     -41.282-123.027 -51.466  0.00  0.00     0.000 A 
ATOM     14  C   UNL d   1     -41.811-123.280 -50.900  0.00  0.00     0.000 A 
ENDBRANCH   4   9
BRANCH   2  15
ATOM     15  C   UNL d   1     -43.812-122.668 -50.740  0.00  0.00     0.126 C 
ATOM     16  N   UNL d   1     -44.344-122.031 -50.755  0.00  0.00    -0.146 N 
ENDBRANCH   2  15
BRANCH   1  17
ATOM     17  C   UNL d   1     -41.619-123.294 -48.968  0.00  0.00     0.298 C 
ATOM     18  O   UNL d   1     -41.128-123.785 -49.403  0.00  0.00    -0.259 OA
BRANCH  17  19
ATOM     19  O   UNL d   1     -41.320-122.827 -48.356  0.00  0.00    -0.296 OA
ATOM     20  C   UNL d   1     -41.158-123.158 -47.608  0.00  0.00     0.185 C 
ENDBRANCH  17  19
ENDBRANCH   1  17
TORSDOF 4
ENDMDL
