MODEL 1
REMARK VINA RESULT:       1.6      0.000      0.000
REMARK  0 active torsions:
REMARK  status: ('A' for Active; 'I' for Inactive)
ROOT
ATOM      1  C   UNL d   1     -54.803-101.280 -36.101  0.00  0.00     0.221 A 
ATOM      2  N   UNL d   1     -54.714-101.544 -36.877  0.00  0.00    -0.217 NA
ATOM      3  N   UNL d   1     -54.992-101.812 -35.495  0.00  0.00    -0.216 NA
ATOM      4  S   UNL d   1     -54.711-100.487 -35.895  0.00  0.00    -0.037 SA
ATOM      5  C   UNL d   1     -54.812-102.342 -37.054  0.00  0.00     0.085 A 
ATOM      6  C   UNL d   1     -55.090-102.615 -35.679  0.00  0.00     0.103 A 
ATOM      7  C   UNL d   1     -55.000-102.879 -36.456  0.00  0.00     0.040 A 
ATOM      8  C   UNL d   1     -54.718-102.587 -37.837  0.00  0.00     0.021 C 
ENDROOT
TORSDOF 0
ENDMDL
MODEL 2
REMARK VINA RESULT:       2.8      8.659      9.276
REMARK  0 active torsions:
REMARK  status: ('A' for Active; 'I' for Inactive)
ROOT
ATOM      1  C   UNL d   1     -59.467 -98.757 -43.203  0.00  0.00     0.221 A 
ATOM      2  N   UNL d   1     -59.805 -98.757 -43.956  0.00  0.00    -0.217 NA
ATOM      3  N   UNL d   1     -58.644 -98.757 -43.113  0.00  0.00    -0.216 NA
ATOM      4  S   UNL d   1     -59.925 -98.758 -42.518  0.00  0.00    -0.037 SA
ATOM      5  C   UNL d   1     -59.324 -98.757 -44.624  0.00  0.00     0.085 A 
ATOM      6  C   UNL d   1     -58.164 -98.756 -43.790  0.00  0.00     0.103 A 
ATOM      7  C   UNL d   1     -58.502 -98.756 -44.542  0.00  0.00     0.040 A 
ATOM      8  C   UNL d   1     -59.682 -98.756 -45.368  0.00  0.00     0.021 C 
ENDROOT
TORSDOF 0
ENDMDL
MODEL 3
REMARK VINA RESULT:       3.0      8.952      9.449
REMARK  0 active torsions:
REMARK  status: ('A' for Active; 'I' for Inactive)
ROOT
ATOM      1  C   UNL d   1     -59.355 -98.789 -43.680  0.00  0.00     0.221 A 
ATOM      2  N   UNL d   1     -58.531 -98.783 -43.713  0.00  0.00    -0.217 NA
ATOM      3  N   UNL d   1     -59.803 -98.778 -44.376  0.00  0.00    -0.216 NA
ATOM      4  S   UNL d   1     -59.764 -98.805 -42.965  0.00  0.00    -0.037 SA
ATOM      5  C   UNL d   1     -58.147 -98.766 -44.441  0.00  0.00     0.085 A 
ATOM      6  C   UNL d   1     -59.411 -98.762 -45.108  0.00  0.00     0.103 A 
ATOM      7  C   UNL d   1     -58.587 -98.755 -45.140  0.00  0.00     0.040 A 
ATOM      8  C   UNL d   1     -57.322 -98.760 -44.452  0.00  0.00     0.021 C 
ENDROOT
TORSDOF 0
ENDMDL
MODEL 4
REMARK VINA RESULT:       3.4      8.917      9.538
REMARK  0 active torsions:
REMARK  status: ('A' for Active; 'I' for Inactive)
ROOT
ATOM      1  C   UNL d   1     -57.993 -98.763 -44.499  0.00  0.00     0.221 A 
ATOM      2  N   UNL d   1     -58.427 -98.758 -43.798  0.00  0.00    -0.217 NA
ATOM      3  N   UNL d   1     -58.377 -98.770 -45.232  0.00  0.00    -0.216 NA
ATOM      4  S   UNL d   1     -57.168 -98.761 -44.502  0.00  0.00    -0.037 SA
ATOM      5  C   UNL d   1     -59.250 -98.761 -43.824  0.00  0.00     0.085 A 
ATOM      6  C   UNL d   1     -59.207 -98.772 -45.252  0.00  0.00     0.103 A 
ATOM      7  C   UNL d   1     -59.642 -98.768 -44.551  0.00  0.00     0.040 A 
ATOM      8  C   UNL d   1     -59.667 -98.756 -43.112  0.00  0.00     0.021 C 
ENDROOT
TORSDOF 0
ENDMDL
