MODEL 1
REMARK VINA RESULT:      -1.9      0.000      0.000
REMARK  5 active torsions:
REMARK  status: ('A' for Active; 'I' for Inactive)
REMARK    1  A    between atoms: C_16  and  N_5 
REMARK    2  A    between atoms: S_12  and  C_6 
REMARK    3  A    between atoms: C_10  and  C_14 
REMARK       I    between atoms: N_11  and  C_10 
REMARK    4  A    between atoms: C_14  and  S_12 
REMARK    5  A    between atoms: C_18  and  C_16 
ROOT
ATOM      1  C   UNL d   1      58.025  -9.818  30.607  0.00  0.00     0.081 A 
ATOM      2  C   UNL d   1      57.825  -9.818  31.407  0.00  0.00     0.117 A 
ATOM      3  N   UNL d   1      58.404  -9.818  31.979  0.00  0.00    -0.215 NA
ATOM      4  C   UNL d   1      58.814  -9.818  30.384  0.00  0.00     0.268 A 
ATOM      5  N   UNL d   1      59.400  -9.818  30.956  0.00  0.00    -0.253 N 
ATOM      6  C   UNL d   1      59.215  -9.818  31.777  0.00  0.00     0.182 A 
ATOM      7  S   UNL d   1      56.971  -9.818  31.454  0.00  0.00    -0.068 SA
ATOM      8  C   UNL d   1      57.315  -9.817  30.181  0.00  0.00     0.013 A 
ATOM      9  C   UNL d   1      56.690  -9.817  30.721  0.00  0.00     0.031 A 
ATOM     10  O   UNL d   1      59.052  -9.818  29.589  0.00  0.00    -0.267 OA
ATOM     11  C   UNL d   1      57.163  -9.817  29.365  0.00  0.00     0.001 A 
ATOM     12  C   UNL d   1      55.914  -9.817  30.437  0.00  0.00     0.006 A 
ATOM     13  C   UNL d   1      56.387  -9.817  29.110  0.00  0.00     0.000 A 
ATOM     14  C   UNL d   1      55.777  -9.817  29.628  0.00  0.00     0.001 A 
ENDROOT
BRANCH   6  15
ATOM     15  S   UNL d   1      59.801  -9.818  32.349  0.00  0.00    -0.044 SA
BRANCH  15  16
ATOM     16  C   UNL d   1      59.666  -9.456  33.072  0.00  0.00     0.099 C 
BRANCH  16  17
ATOM     17  C   UNL d   1      60.266  -9.459  33.644  0.00  0.00     0.272 C 
ATOM     18  N   UNL d   1      60.163  -9.194  34.420  0.00  0.00    -0.267 N 
ATOM     19  C   UNL d   1      60.782  -9.215  34.952  0.00  0.00     0.110 A 
ATOM     20  C   UNL d   1      59.428  -8.905  34.664  0.00  0.00     0.110 A 
ATOM     21  C   UNL d   1      60.710  -8.952  35.752  0.00  0.00     0.142 A 
ATOM     22  O   UNL d   1      59.972  -8.665  35.986  0.00  0.00    -0.300 OA
ATOM     23  C   UNL d   1      59.312  -8.638  35.432  0.00  0.00     0.142 A 
ATOM     24  O   UNL d   1      60.988  -9.763  33.341  0.00  0.00    -0.266 OA
ENDBRANCH  16  17
ENDBRANCH  15  16
ENDBRANCH   6  15
BRANCH   5  25
ATOM     25  C   UNL d   1      60.218  -9.818  30.732  0.00  0.00     0.085 C 
BRANCH  25  26
ATOM     26  C   UNL d   1      60.469  -9.682  29.936  0.00  0.00     0.019 C 
ATOM     27  C   UNL d   1      61.133  -9.232  29.757  0.00  0.00     0.002 C 
ENDBRANCH  25  26
ENDBRANCH   5  25
TORSDOF 5
ENDMDL
MODEL 2
REMARK VINA RESULT:      -1.3      9.133      9.968
REMARK  5 active torsions:
REMARK  status: ('A' for Active; 'I' for Inactive)
REMARK    1  A    between atoms: C_16  and  N_5 
REMARK    2  A    between atoms: S_12  and  C_6 
REMARK    3  A    between atoms: C_10  and  C_14 
REMARK       I    between atoms: N_11  and  C_10 
REMARK    4  A    between atoms: C_14  and  S_12 
REMARK    5  A    between atoms: C_18  and  C_16 
ROOT
ATOM      1  C   UNL d   1      57.366   0.101  32.180  0.00  0.00     0.081 A 
ATOM      2  C   UNL d   1      57.008  -0.189  31.496  0.00  0.00     0.117 A 
ATOM      3  N   UNL d   1      57.411  -0.199  30.789  0.00  0.00    -0.215 NA
ATOM      4  C   UNL d   1      58.135   0.383  32.149  0.00  0.00     0.268 A 
ATOM      5  N   UNL d   1      58.545   0.375  31.440  0.00  0.00    -0.253 N 
ATOM      6  C   UNL d   1      58.196   0.082  30.733  0.00  0.00     0.182 A 
ATOM      7  S   UNL d   1      56.217  -0.437  31.709  0.00  0.00    -0.068 SA
ATOM      8  C   UNL d   1      56.810   0.032  32.790  0.00  0.00     0.013 A 
ATOM      9  C   UNL d   1      56.122  -0.298  32.477  0.00  0.00     0.031 A 
ATOM     10  O   UNL d   1      58.527   0.682  32.817  0.00  0.00    -0.267 OA
ATOM     11  C   UNL d   1      56.851   0.231  33.595  0.00  0.00     0.001 A 
ATOM     12  C   UNL d   1      55.475  -0.426  32.975  0.00  0.00     0.006 A 
ATOM     13  C   UNL d   1      56.197   0.093  34.067  0.00  0.00     0.000 A 
ATOM     14  C   UNL d   1      55.526  -0.226  33.769  0.00  0.00     0.001 A 
ENDROOT
BRANCH   6  15
ATOM     15  S   UNL d   1      58.606   0.074  30.023  0.00  0.00    -0.044 SA
BRANCH  15  16
ATOM     16  C   UNL d   1      58.478  -0.530  29.485  0.00  0.00     0.099 C 
BRANCH  16  17
ATOM     17  C   UNL d   1      59.124  -0.849  29.075  0.00  0.00     0.272 C 
ATOM     18  N   UNL d   1      59.255  -1.659  28.982  0.00  0.00    -0.267 N 
ATOM     19  C   UNL d   1      59.906  -1.931  28.570  0.00  0.00     0.110 A 
ATOM     20  C   UNL d   1      58.726  -2.204  29.308  0.00  0.00     0.110 A 
ATOM     21  C   UNL d   1      60.069  -2.753  28.456  0.00  0.00     0.142 A 
ATOM     22  O   UNL d   1      59.534  -3.289  28.786  0.00  0.00    -0.300 OA
ATOM     23  C   UNL d   1      58.844  -3.013  29.223  0.00  0.00     0.142 A 
ATOM     24  O   UNL d   1      59.627  -0.252  28.766  0.00  0.00    -0.266 OA
ENDBRANCH  16  17
ENDBRANCH  15  16
ENDBRANCH   6  15
BRANCH   5  25
ATOM     25  C   UNL d   1      59.341   0.664  31.402  0.00  0.00     0.085 C 
BRANCH  25  26
ATOM     26  C   UNL d   1      59.950   0.385  31.918  0.00  0.00     0.019 C 
ATOM     27  C   UNL d   1      60.716   0.682  31.893  0.00  0.00     0.002 C 
ENDBRANCH  25  26
ENDBRANCH   5  25
TORSDOF 5
ENDMDL
