MODEL 1
REMARK VINA RESULT:      -5.4      0.000      0.000
REMARK  1 active torsions:
REMARK  status: ('A' for Active; 'I' for Inactive)
REMARK    1  A    between atoms: C_14  and  C_6 
ROOT
ATOM      1  C   UNL d   1      58.049  -1.420  30.146  0.00  0.00     0.174 A 
ATOM      2  N   UNL d   1      58.555  -1.077  29.592  0.00  0.00    -0.250 N 
ATOM      3  C   UNL d   1      57.649  -0.960  30.709  0.00  0.00     0.061 A 
ATOM      4  C   UNL d   1      57.761  -0.142  30.713  0.00  0.00     0.115 A 
ATOM      5  N   UNL d   1      58.268   0.184  30.155  0.00  0.00    -0.221 NA
ATOM      6  C   UNL d   1      58.667  -0.260  29.597  0.00  0.00     0.151 A 
ATOM      7  N   UNL d   1      58.050  -2.283  29.996  0.00  0.00    -0.128 NA
ATOM      8  C   UNL d   1      58.895  -1.701  29.074  0.00  0.00     0.228 A 
ATOM      9  S   UNL d   1      57.366   0.301  31.267  0.00  0.00    -0.068 SA
ATOM     10  C   UNL d   1      56.760  -0.845  31.804  0.00  0.00     0.011 A 
ATOM     11  C   UNL d   1      56.872  -0.027  31.809  0.00  0.00     0.031 A 
ATOM     12  N   UNL d   1      58.560  -2.436  29.353  0.00  0.00    -0.117 NA
ATOM     13  S   UNL d   1      59.368  -1.526  28.531  0.00  0.00    -0.036 SA
ATOM     14  C   UNL d   1      56.244  -1.186  32.370  0.00  0.00     0.001 A 
ATOM     15  C   UNL d   1      56.463   0.418  32.380  0.00  0.00     0.006 A 
ATOM     16  C   UNL d   1      55.854  -0.727  32.921  0.00  0.00     0.000 A 
ATOM     17  C   UNL d   1      55.966   0.090  32.925  0.00  0.00     0.001 A 
ENDROOT
BRANCH   6  18
ATOM     18  C   UNL d   1      59.066   0.049  29.166  0.00  0.00     0.037 C 
ATOM     19  C   UNL d   1      59.228   0.682  29.073  0.00  0.00     0.003 C 
ENDBRANCH   6  18
TORSDOF 1
ENDMDL
MODEL 2
REMARK VINA RESULT:      -3.9      1.700      1.912
REMARK  1 active torsions:
REMARK  status: ('A' for Active; 'I' for Inactive)
REMARK    1  A    between atoms: C_14  and  C_6 
ROOT
ATOM      1  C   UNL d   1      57.943   0.673  30.291  0.00  0.00     0.174 A 
ATOM      2  N   UNL d   1      58.732   0.676  30.049  0.00  0.00    -0.250 N 
ATOM      3  C   UNL d   1      57.738   0.673  31.095  0.00  0.00     0.061 A 
ATOM      4  C   UNL d   1      58.336   0.676  31.663  0.00  0.00     0.115 A 
ATOM      5  N   UNL d   1      59.116   0.679  31.407  0.00  0.00    -0.221 NA
ATOM      6  C   UNL d   1      59.330   0.679  30.618  0.00  0.00     0.151 A 
ATOM      7  N   UNL d   1      57.452   0.670  29.565  0.00  0.00    -0.128 NA
ATOM      8  C   UNL d   1      58.774   0.675  29.171  0.00  0.00     0.228 A 
ATOM      9  S   UNL d   1      58.126   0.676  32.448  0.00  0.00    -0.068 SA
ATOM     10  C   UNL d   1      56.762   0.670  32.120  0.00  0.00     0.011 A 
ATOM     11  C   UNL d   1      57.360   0.673  32.689  0.00  0.00     0.031 A 
ATOM     12  N   UNL d   1      57.962   0.672  28.905  0.00  0.00    -0.117 NA
ATOM     13  S   UNL d   1      59.428   0.678  28.823  0.00  0.00    -0.036 SA
ATOM     14  C   UNL d   1      55.962   0.667  32.373  0.00  0.00     0.001 A 
ATOM     15  C   UNL d   1      57.135   0.673  33.489  0.00  0.00     0.006 A 
ATOM     16  C   UNL d   1      55.768   0.667  33.165  0.00  0.00     0.000 A 
ATOM     17  C   UNL d   1      56.366   0.670  33.734  0.00  0.00     0.001 A 
ENDROOT
BRANCH   6  18
ATOM     18  C   UNL d   1      59.974   0.682  30.459  0.00  0.00     0.037 C 
ATOM     19  C   UNL d   1      60.527   0.591  30.809  0.00  0.00     0.003 C 
ENDBRANCH   6  18
TORSDOF 1
ENDMDL
MODEL 3
REMARK VINA RESULT:      -3.9      1.576      3.675
REMARK  1 active torsions:
REMARK  status: ('A' for Active; 'I' for Inactive)
REMARK    1  A    between atoms: C_14  and  C_6 
ROOT
ATOM      1  C   UNL d   1      56.984  -0.762  31.629  0.00  0.00     0.174 A 
ATOM      2  N   UNL d   1      56.782  -0.450  32.366  0.00  0.00    -0.250 N 
ATOM      3  C   UNL d   1      57.555  -0.401  31.149  0.00  0.00     0.061 A 
ATOM      4  C   UNL d   1      57.930   0.285  31.415  0.00  0.00     0.115 A 
ATOM      5  N   UNL d   1      57.718   0.583  32.151  0.00  0.00    -0.221 NA
ATOM      6  C   UNL d   1      57.156   0.235  32.632  0.00  0.00     0.151 A 
ATOM      7  N   UNL d   1      56.495  -1.480  31.512  0.00  0.00    -0.128 NA
ATOM      8  C   UNL d   1      56.164  -0.951  32.742  0.00  0.00     0.228 A 
ATOM      9  S   UNL d   1      58.488   0.632  30.939  0.00  0.00    -0.068 SA
ATOM     10  C   UNL d   1      58.314  -0.353  29.956  0.00  0.00     0.011 A 
ATOM     11  C   UNL d   1      58.688   0.333  30.221  0.00  0.00     0.031 A 
ATOM     12  N   UNL d   1      56.011  -1.580  32.184  0.00  0.00    -0.117 NA
ATOM     13  S   UNL d   1      55.894  -0.780  33.410  0.00  0.00    -0.036 SA
ATOM     14  C   UNL d   1      58.524  -0.664  29.205  0.00  0.00     0.001 A 
ATOM     15  C   UNL d   1      59.259   0.681  29.727  0.00  0.00     0.006 A 
ATOM     16  C   UNL d   1      59.087  -0.303  28.739  0.00  0.00     0.000 A 
ATOM     17  C   UNL d   1      59.462   0.382  29.004  0.00  0.00     0.001 A 
ENDROOT
BRANCH   6  18
ATOM     18  C   UNL d   1      57.018   0.513  33.218  0.00  0.00     0.037 C 
ATOM     19  C   UNL d   1      57.390   0.681  33.737  0.00  0.00     0.003 C 
ENDBRANCH   6  18
TORSDOF 1
ENDMDL
MODEL 4
REMARK VINA RESULT:      -3.5      1.776      2.054
REMARK  1 active torsions:
REMARK  status: ('A' for Active; 'I' for Inactive)
REMARK    1  A    between atoms: C_14  and  C_6 
ROOT
ATOM      1  C   UNL d   1      58.790   0.680  31.321  0.00  0.00     0.174 A 
ATOM      2  N   UNL d   1      58.867   0.679  30.500  0.00  0.00    -0.250 N 
ATOM      3  C   UNL d   1      58.045   0.679  31.685  0.00  0.00     0.061 A 
ATOM      4  C   UNL d   1      57.367   0.677  31.215  0.00  0.00     0.115 A 
ATOM      5  N   UNL d   1      57.460   0.676  30.399  0.00  0.00    -0.221 NA
ATOM      6  C   UNL d   1      58.189   0.677  30.030  0.00  0.00     0.151 A 
ATOM      7  N   UNL d   1      59.600   0.682  31.656  0.00  0.00    -0.128 NA
ATOM      8  C   UNL d   1      59.719   0.680  30.281  0.00  0.00     0.228 A 
ATOM      9  S   UNL d   1      56.641   0.676  31.580  0.00  0.00    -0.068 SA
ATOM     10  C   UNL d   1      57.238   0.679  32.848  0.00  0.00     0.011 A 
ATOM     11  C   UNL d   1      56.560   0.677  32.378  0.00  0.00     0.031 A 
ATOM     12  N   UNL d   1      60.144   0.682  31.023  0.00  0.00    -0.117 NA
ATOM     13  S   UNL d   1      59.927   0.680  29.570  0.00  0.00    -0.036 SA
ATOM     14  C   UNL d   1      57.152   0.679  33.683  0.00  0.00     0.001 A 
ATOM     15  C   UNL d   1      55.822   0.676  32.760  0.00  0.00     0.006 A 
ATOM     16  C   UNL d   1      56.416   0.679  34.034  0.00  0.00     0.000 A 
ATOM     17  C   UNL d   1      55.738   0.677  33.564  0.00  0.00     0.001 A 
ENDROOT
BRANCH   6  18
ATOM     18  C   UNL d   1      58.214   0.676  29.367  0.00  0.00     0.037 C 
ATOM     19  C   UNL d   1      57.751   0.681  28.897  0.00  0.00     0.003 C 
ENDBRANCH   6  18
TORSDOF 1
ENDMDL
MODEL 5
REMARK VINA RESULT:      -3.0      2.547      4.508
REMARK  1 active torsions:
REMARK  status: ('A' for Active; 'I' for Inactive)
REMARK    1  A    between atoms: C_14  and  C_6 
ROOT
ATOM      1  C   UNL d   1      57.321   0.679  33.460  0.00  0.00     0.174 A 
ATOM      2  N   UNL d   1      56.579   0.678  33.821  0.00  0.00    -0.250 N 
ATOM      3  C   UNL d   1      57.399   0.678  32.634  0.00  0.00     0.061 A 
ATOM      4  C   UNL d   1      56.721   0.677  32.165  0.00  0.00     0.115 A 
ATOM      5  N   UNL d   1      55.989   0.676  32.539  0.00  0.00    -0.221 NA
ATOM      6  C   UNL d   1      55.900   0.676  33.352  0.00  0.00     0.151 A 
ATOM      7  N   UNL d   1      57.918   0.680  34.100  0.00  0.00    -0.128 NA
ATOM      8  C   UNL d   1      56.674   0.678  34.695  0.00  0.00     0.228 A 
ATOM      9  S   UNL d   1      56.806   0.676  31.357  0.00  0.00    -0.068 SA
ATOM     10  C   UNL d   1      58.204   0.679  31.470  0.00  0.00     0.011 A 
ATOM     11  C   UNL d   1      57.525   0.677  31.001  0.00  0.00     0.031 A 
ATOM     12  N   UNL d   1      57.517   0.680  34.832  0.00  0.00    -0.117 NA
ATOM     13  S   UNL d   1      56.081   0.678  35.140  0.00  0.00    -0.036 SA
ATOM     14  C   UNL d   1      58.955   0.680  31.096  0.00  0.00     0.001 A 
ATOM     15  C   UNL d   1      57.623   0.677  30.175  0.00  0.00     0.006 A 
ATOM     16  C   UNL d   1      59.024   0.680  30.283  0.00  0.00     0.000 A 
ATOM     17  C   UNL d   1      58.346   0.678  29.814  0.00  0.00     0.001 A 
ENDROOT
BRANCH   6  18
ATOM     18  C   UNL d   1      55.289   0.675  33.609  0.00  0.00     0.037 C 
ATOM     19  C   UNL d   1      54.689   0.579  33.349  0.00  0.00     0.003 C 
ENDBRANCH   6  18
TORSDOF 1
ENDMDL
MODEL 6
REMARK VINA RESULT:      -3.0      9.423      9.876
REMARK  1 active torsions:
REMARK  status: ('A' for Active; 'I' for Inactive)
REMARK    1  A    between atoms: C_14  and  C_6 
ROOT
ATOM      1  C   UNL d   1      58.817  -9.806  32.809  0.00  0.00     0.174 A 
ATOM      2  N   UNL d   1      59.113  -9.811  32.038  0.00  0.00    -0.250 N 
ATOM      3  C   UNL d   1      59.323  -9.803  33.466  0.00  0.00     0.061 A 
ATOM      4  C   UNL d   1      60.140  -9.805  33.346  0.00  0.00     0.115 A 
ATOM      5  N   UNL d   1      60.419  -9.810  32.573  0.00  0.00    -0.221 NA
ATOM      6  C   UNL d   1      59.929  -9.813  31.918  0.00  0.00     0.151 A 
ATOM      7  N   UNL d   1      57.943  -9.805  32.748  0.00  0.00    -0.128 NA
ATOM      8  C   UNL d   1      58.447  -9.813  31.464  0.00  0.00     0.228 A 
ATOM      9  S   UNL d   1      60.628  -9.802  33.994  0.00  0.00    -0.068 SA
ATOM     10  C   UNL d   1      59.530  -9.795  34.866  0.00  0.00     0.011 A 
ATOM     11  C   UNL d   1      60.346  -9.797  34.746  0.00  0.00     0.031 A 
ATOM     12  N   UNL d   1      57.737  -9.809  31.940  0.00  0.00    -0.117 NA
ATOM     13  S   UNL d   1      58.576  -9.817  30.735  0.00  0.00    -0.036 SA
ATOM     14  C   UNL d   1      59.236  -9.790  35.652  0.00  0.00     0.001 A 
ATOM     15  C   UNL d   1      60.838  -9.794  35.416  0.00  0.00     0.006 A 
ATOM     16  C   UNL d   1      59.740  -9.787  36.293  0.00  0.00     0.000 A 
ATOM     17  C   UNL d   1      60.556  -9.789  36.173  0.00  0.00     0.001 A 
ENDROOT
BRANCH   6  18
ATOM     18  C   UNL d   1      60.201  -9.816  31.313  0.00  0.00     0.037 C 
ATOM     19  C   UNL d   1      60.825  -9.807  31.098  0.00  0.00     0.003 C 
ENDBRANCH   6  18
TORSDOF 1
ENDMDL
MODEL 7
REMARK VINA RESULT:      -2.9      9.374      9.760
REMARK  1 active torsions:
REMARK  status: ('A' for Active; 'I' for Inactive)
REMARK    1  A    between atoms: C_14  and  C_6 
ROOT
ATOM      1  C   UNL d   1      59.769  -9.774  32.100  0.00  0.00     0.174 A 
ATOM      2  N   UNL d   1      59.875  -9.771  32.919  0.00  0.00    -0.250 N 
ATOM      3  C   UNL d   1      59.011  -9.784  31.763  0.00  0.00     0.061 A 
ATOM      4  C   UNL d   1      58.351  -9.792  32.257  0.00  0.00     0.115 A 
ATOM      5  N   UNL d   1      58.473  -9.789  33.070  0.00  0.00    -0.221 NA
ATOM      6  C   UNL d   1      59.215  -9.779  33.413  0.00  0.00     0.151 A 
ATOM      7  N   UNL d   1      60.567  -9.764  31.737  0.00  0.00    -0.128 NA
ATOM      8  C   UNL d   1      60.734  -9.760  33.107  0.00  0.00     0.228 A 
ATOM      9  S   UNL d   1      57.612  -9.802  31.919  0.00  0.00    -0.068 SA
ATOM     10  C   UNL d   1      58.164  -9.797  30.630  0.00  0.00     0.011 A 
ATOM     11  C   UNL d   1      57.503  -9.805  31.124  0.00  0.00     0.031 A 
ATOM     12  N   UNL d   1      61.132  -9.756  32.351  0.00  0.00    -0.117 NA
ATOM     13  S   UNL d   1      60.967  -9.756  33.810  0.00  0.00    -0.036 SA
ATOM     14  C   UNL d   1      58.048  -9.800  29.798  0.00  0.00     0.001 A 
ATOM     15  C   UNL d   1      56.752  -9.815  30.768  0.00  0.00     0.006 A 
ATOM     16  C   UNL d   1      57.300  -9.810  29.474  0.00  0.00     0.000 A 
ATOM     17  C   UNL d   1      56.640  -9.818  29.968  0.00  0.00     0.001 A 
ENDROOT
BRANCH   6  18
ATOM     18  C   UNL d   1      59.263  -9.777  34.074  0.00  0.00     0.037 C 
ATOM     19  C   UNL d   1      58.818  -9.741  34.560  0.00  0.00     0.003 C 
ENDBRANCH   6  18
TORSDOF 1
ENDMDL
