MODEL 1
REMARK VINA RESULT:      -3.4      0.000      0.000
REMARK  4 active torsions:
REMARK  status: ('A' for Active; 'I' for Inactive)
REMARK    1  A    between atoms: C_15  and  C_2 
REMARK    2  A    between atoms: C_6  and  S_16 
REMARK    3  A    between atoms: N_8  and  C_11 
REMARK    4  A    between atoms: S_16  and  C_15 
ROOT
ATOM      1  C   UNL d   1      33.123  20.029 -22.237  0.00  0.00     0.141 A 
ATOM      2  N   UNL d   1      32.890  20.207 -21.482  0.00  0.00    -0.232 NA
ATOM      3  S   UNL d   1      33.241  20.735 -22.652  0.00  0.00    -0.060 SA
ATOM      4  C   UNL d   1      32.858  21.035 -21.409  0.00  0.00     0.090 A 
ATOM      5  C   UNL d   1      32.676  22.357 -20.866  0.00  0.00     0.128 A 
ATOM      6  C   UNL d   1      33.072  21.367 -22.123  0.00  0.00     0.049 A 
ATOM      7  C   UNL d   1      32.656  21.521 -20.768  0.00  0.00     0.043 A 
ATOM      8  C   UNL d   1      32.890  22.680 -21.579  0.00  0.00     0.024 A 
ATOM      9  C   UNL d   1      33.089  22.191 -22.212  0.00  0.00     0.010 A 
ENDROOT
BRANCH   1  10
ATOM     10  S   UNL d   1      33.224  19.260 -22.537  0.00  0.00    -0.059 SA
BRANCH  10  11
ATOM     11  C   UNL d   1      32.676  18.950 -23.061  0.00  0.00     0.059 C 
BRANCH  11  12
ATOM     12  C   UNL d   1      32.685  18.136 -23.240  0.00  0.00     0.112 A 
ATOM     13  C   UNL d   1      32.238  17.781 -23.857  0.00  0.00     0.119 A 
ATOM     14  N   UNL d   1      32.425  16.972 -23.823  0.00  0.00    -0.284 N 
ATOM     15 BR   UNL d   1      31.726  18.169 -24.377  0.00  0.00    -0.028 Br
ATOM     16  C   UNL d   1      32.959  16.844 -23.215  0.00  0.00     0.148 A 
ATOM     17  C   UNL d   1      32.161  16.348 -24.283  0.00  0.00     0.082 A 
ATOM     18  N   UNL d   1      33.115  17.571 -22.858  0.00  0.00    -0.226 NA
ATOM     19  C   UNL d   1      33.241  16.090 -23.054  0.00  0.00     0.037 A 
ATOM     20  C   UNL d   1      32.974  15.463 -23.519  0.00  0.00     0.005 A 
ATOM     21  C   UNL d   1      32.440  15.591 -24.126  0.00  0.00     0.019 A 
ENDBRANCH  11  12
ENDBRANCH  10  11
ENDBRANCH   1  10
BRANCH   5  22
ATOM     22  N   UNL d   1      32.468  22.850 -20.203  0.00  0.00    -0.114 N 
ATOM     23  O   UNL d   1      31.810  23.349 -20.243  0.00  0.00    -0.532 OA
ATOM     24  O   UNL d   1      32.928  22.828 -19.517  0.00  0.00    -0.532 OA
ENDBRANCH   5  22
TORSDOF 4
ENDMDL
MODEL 2
REMARK VINA RESULT:      -1.7      1.171      1.663
REMARK  4 active torsions:
REMARK  status: ('A' for Active; 'I' for Inactive)
REMARK    1  A    between atoms: C_15  and  C_2 
REMARK    2  A    between atoms: C_6  and  S_16 
REMARK    3  A    between atoms: N_8  and  C_11 
REMARK    4  A    between atoms: S_16  and  C_15 
ROOT
ATOM      1  C   UNL d   1      33.026  21.162 -21.993  0.00  0.00     0.141 A 
ATOM      2  N   UNL d   1      33.072  20.990 -21.203  0.00  0.00    -0.232 NA
ATOM      3  S   UNL d   1      33.021  21.983 -22.086  0.00  0.00    -0.060 SA
ATOM      4  C   UNL d   1      33.097  21.708 -20.782  0.00  0.00     0.090 A 
ATOM      5  C   UNL d   1      33.161  22.665 -19.708  0.00  0.00     0.128 A 
ATOM      6  C   UNL d   1      33.066  22.322 -21.317  0.00  0.00     0.049 A 
ATOM      7  C   UNL d   1      33.145  21.865 -19.970  0.00  0.00     0.043 A 
ATOM      8  C   UNL d   1      33.130  23.272 -20.245  0.00  0.00     0.024 A 
ATOM      9  C   UNL d   1      33.082  23.109 -21.052  0.00  0.00     0.010 A 
ENDROOT
BRANCH   1  10
ATOM     10  S   UNL d   1      32.989  20.598 -22.603  0.00  0.00    -0.059 SA
BRANCH  10  11
ATOM     11  C   UNL d   1      33.236  19.830 -22.465  0.00  0.00     0.059 C 
BRANCH  11  12
ATOM     12  C   UNL d   1      33.067  19.232 -23.021  0.00  0.00     0.112 A 
ATOM     13  C   UNL d   1      33.072  18.409 -22.849  0.00  0.00     0.119 A 
ATOM     14  N   UNL d   1      32.872  18.036 -23.564  0.00  0.00    -0.284 N 
ATOM     15 BR   UNL d   1      33.241  18.063 -22.118  0.00  0.00    -0.028 Br
ATOM     16  C   UNL d   1      32.753  18.605 -24.140  0.00  0.00     0.148 A 
ATOM     17  C   UNL d   1      32.790  17.240 -23.740  0.00  0.00     0.082 A 
ATOM     18  N   UNL d   1      32.875  19.345 -23.796  0.00  0.00    -0.226 NA
ATOM     19  C   UNL d   1      32.548  18.392 -24.906  0.00  0.00     0.037 A 
ATOM     20  C   UNL d   1      32.465  17.591 -25.083  0.00  0.00     0.005 A 
ATOM     21  C   UNL d   1      32.585  17.022 -24.506  0.00  0.00     0.019 A 
ENDBRANCH  11  12
ENDBRANCH  10  11
ENDBRANCH   1  10
BRANCH   5  22
ATOM     22  N   UNL d   1      33.211  22.820 -18.871  0.00  0.00    -0.114 N 
ATOM     23  O   UNL d   1      33.229  23.596 -18.590  0.00  0.00    -0.532 OA
ATOM     24  O   UNL d   1      33.241  22.187 -18.341  0.00  0.00    -0.532 OA
ENDBRANCH   5  22
TORSDOF 4
ENDMDL
