MODEL 1
REMARK VINA RESULT:      40.5      0.000      0.000
REMARK  2 active torsions:
REMARK  status: ('A' for Active; 'I' for Inactive)
REMARK    1  A    between atoms: C_8  and  C_2 
REMARK    2  A    between atoms: C_9  and  C_4 
ROOT
ATOM      1  N   UNL d   1      13.644  12.044  -2.803  0.00  0.00    -0.246 NA
ATOM      2  C   UNL d   1      13.855  13.628  -3.218  0.00  0.00     0.003 A 
ATOM      3  C   UNL d   1      13.525  13.100  -3.759  0.00  0.00     0.018 A 
ATOM      4  C   UNL d   1      13.974  12.572  -2.261  0.00  0.00     0.081 A 
ATOM      5  C   UNL d   1      14.079  13.365  -2.469  0.00  0.00     0.019 A 
ATOM      6  C   UNL d   1      13.420  12.308  -3.552  0.00  0.00     0.081 A 
ATOM      7  C   UNL d   1      13.301  13.363  -4.508  0.00  0.00     0.002 A 
ATOM      8  C   UNL d   1      13.091  11.780  -4.093  0.00  0.00     0.019 A 
ATOM      9  C   UNL d   1      12.971  12.836  -5.050  0.00  0.00     0.000 A 
ATOM     10  C   UNL d   1      12.866  12.043  -4.842  0.00  0.00     0.002 A 
ATOM     11  C   UNL d   1      12.769  13.110  -5.747  0.00  0.00     0.000 C 
ENDROOT
BRANCH   2  12
ATOM     12  C   UNL d   1      13.959  14.414  -3.424  0.00  0.00     0.000 A 
ATOM     13  C   UNL d   1      13.429  14.779  -3.941  0.00  0.00     0.000 A 
ATOM     14  C   UNL d   1      13.534  15.571  -4.149  0.00  0.00     0.000 A 
ATOM     15  C   UNL d   1      14.169  15.998  -3.839  0.00  0.00     0.000 A 
ATOM     16  C   UNL d   1      14.699  15.633  -3.322  0.00  0.00     0.000 A 
ATOM     17  C   UNL d   1      14.593  14.841  -3.115  0.00  0.00     0.000 A 
ENDBRANCH   2  12
BRANCH   4  18
ATOM     18  C   UNL d   1      14.198  12.309  -1.513  0.00  0.00     0.021 A 
ATOM     19  C   UNL d   1      13.628  12.194  -0.927  0.00  0.00     0.022 A 
ATOM     20  C   UNL d   1      13.853  11.931  -0.179  0.00  0.00     0.099 A 
ATOM     21  N   UNL d   1      14.647  11.782  -0.015  0.00  0.00    -0.242 NA
ATOM     22  C   UNL d   1      15.165  11.906  -0.611  0.00  0.00     0.099 A 
ATOM     23  C   UNL d   1      14.993  12.159  -1.350  0.00  0.00     0.022 A 
ENDBRANCH   4  18
TORSDOF 2
ENDMDL
MODEL 2
REMARK VINA RESULT:      42.7      0.796      2.451
REMARK  2 active torsions:
REMARK  status: ('A' for Active; 'I' for Inactive)
REMARK    1  A    between atoms: C_8  and  C_2 
REMARK    2  A    between atoms: C_9  and  C_4 
ROOT
ATOM      1  N   UNL d   1      14.225  13.996  -2.171  0.00  0.00    -0.246 NA
ATOM      2  C   UNL d   1      13.842  13.114  -3.512  0.00  0.00     0.003 A 
ATOM      3  C   UNL d   1      13.847  13.937  -3.548  0.00  0.00     0.018 A 
ATOM      4  C   UNL d   1      14.221  13.171  -2.135  0.00  0.00     0.081 A 
ATOM      5  C   UNL d   1      14.029  12.730  -2.806  0.00  0.00     0.019 A 
ATOM      6  C   UNL d   1      14.039  14.379  -2.877  0.00  0.00     0.081 A 
ATOM      7  C   UNL d   1      13.660  14.320  -4.254  0.00  0.00     0.002 A 
ATOM      8  C   UNL d   1      14.044  15.202  -2.913  0.00  0.00     0.019 A 
ATOM      9  C   UNL d   1      13.665  15.144  -4.291  0.00  0.00     0.000 A 
ATOM     10  C   UNL d   1      13.857  15.586  -3.619  0.00  0.00     0.002 A 
ATOM     11  C   UNL d   1      13.486  15.480  -4.967  0.00  0.00     0.000 C 
ENDROOT
BRANCH   2  12
ATOM     12  C   UNL d   1      13.651  12.675  -4.178  0.00  0.00     0.000 A 
ATOM     13  C   UNL d   1      14.149  12.688  -4.836  0.00  0.00     0.000 A 
ATOM     14  C   UNL d   1      13.957  12.247  -5.508  0.00  0.00     0.000 A 
ATOM     15  C   UNL d   1      13.268  11.793  -5.519  0.00  0.00     0.000 A 
ATOM     16  C   UNL d   1      12.771  11.780  -4.861  0.00  0.00     0.000 A 
ATOM     17  C   UNL d   1      12.963  12.222  -4.190  0.00  0.00     0.000 A 
ENDBRANCH   2  12
BRANCH   4  18
ATOM     18  C   UNL d   1      14.407  12.788  -1.429  0.00  0.00     0.021 A 
ATOM     19  C   UNL d   1      15.056  13.036  -0.983  0.00  0.00     0.022 A 
ATOM     20  C   UNL d   1      15.242  12.653  -0.277  0.00  0.00     0.099 A 
ATOM     21  N   UNL d   1      14.780  12.021  -0.016  0.00  0.00    -0.242 NA
ATOM     22  C   UNL d   1      14.162  11.815  -0.479  0.00  0.00     0.099 A 
ATOM     23  C   UNL d   1      13.945  12.157  -1.168  0.00  0.00     0.022 A 
ENDBRANCH   4  18
TORSDOF 2
ENDMDL
