MODEL 1
REMARK VINA RESULT:       2.3      0.000      0.000
REMARK  8 active torsions:
REMARK  status: ('A' for Active; 'I' for Inactive)
REMARK    1  A    between atoms: C_11  and  C_1 
REMARK    2  A    between atoms: C_10  and  C_2 
REMARK    3  A    between atoms: C_4  and  C_3 
REMARK    4  A    between atoms: C_14  and  C_9 
REMARK    5  A    between atoms: O_17  and  C_10 
REMARK    6  A    between atoms: O_18  and  C_11 
REMARK    7  A    between atoms: C_24  and  O_17 
REMARK    8  A    between atoms: C_23  and  O_18 
ROOT
ATOM      1  C   UNL d   1      59.137  -2.260  29.141  0.00  0.00     0.083 A 
ATOM      2  C   UNL d   1      59.762  -0.947  29.131  0.00  0.00     0.083 A 
ATOM      3  C   UNL d   1      59.132  -1.450  29.303  0.00  0.00     0.036 A 
ATOM      4  C   UNL d   1      60.429  -1.270  28.782  0.00  0.00     0.087 A 
ATOM      5  C   UNL d   1      59.851  -2.588  28.771  0.00  0.00     0.087 A 
ATOM      6  N   UNL d   1      60.489  -2.074  28.598  0.00  0.00    -0.245 NA
ATOM      7  C   UNL d   1      61.110  -0.758  28.591  0.00  0.00     0.021 C 
ATOM      8  C   UNL d   1      59.907  -3.389  28.590  0.00  0.00     0.021 C 
ENDROOT
BRANCH   3   9
ATOM      9  C   UNL d   1      58.445  -1.145  29.657  0.00  0.00     0.100 A 
ATOM     10  O   UNL d   1      58.262  -1.142  30.475  0.00  0.00    -0.307 OA
ATOM     11  C   UNL d   1      57.520  -0.778  30.542  0.00  0.00     0.100 A 
ATOM     12  C   UNL d   1      57.271  -0.571  29.784  0.00  0.00     0.027 A 
ATOM     13  C   UNL d   1      57.829  -0.792  29.249  0.00  0.00     0.027 A 
BRANCH  11  14
ATOM     14  C   UNL d   1      57.243  -0.724  31.323  0.00  0.00     0.023 A 
ATOM     15  C   UNL d   1      56.661  -1.249  31.564  0.00  0.00     0.002 A 
ATOM     16  C   UNL d   1      56.371  -1.221  32.320  0.00  0.00     0.000 A 
ATOM     17  C   UNL d   1      56.691  -0.625  32.864  0.00  0.00     0.000 A 
ATOM     18  C   UNL d   1      57.273  -0.109  32.603  0.00  0.00     0.000 A 
ATOM     19  C   UNL d   1      57.537  -0.176  31.823  0.00  0.00     0.002 A 
ENDBRANCH  11  14
ENDBRANCH   3   9
BRANCH   2  20
ATOM     20  C   UNL d   1      59.752  -0.135  29.295  0.00  0.00     0.302 C 
ATOM     21  O   UNL d   1      59.144   0.331  29.031  0.00  0.00    -0.259 OA
BRANCH  20  22
ATOM     22  O   UNL d   1      60.358   0.220  29.728  0.00  0.00    -0.271 OA
BRANCH  22  23
ATOM     23  C   UNL d   1      60.298   0.673  30.585  0.00  0.00     0.126 C 
ATOM     24  C   UNL d   1      60.993   0.647  31.022  0.00  0.00     0.029 C 
ENDBRANCH  22  23
ENDBRANCH  20  22
ENDBRANCH   2  20
BRANCH   1  25
ATOM     25  C   UNL d   1      58.487  -2.788  29.316  0.00  0.00     0.302 C 
ATOM     26  O   UNL d   1      58.274  -2.938  30.076  0.00  0.00    -0.259 OA
BRANCH  25  27
ATOM     27  O   UNL d   1      58.086  -3.137  28.674  0.00  0.00    -0.271 OA
BRANCH  27  28
ATOM     28  C   UNL d   1      57.935  -3.953  28.623  0.00  0.00     0.126 C 
ATOM     29  C   UNL d   1      57.089  -3.965  28.458  0.00  0.00     0.029 C 
ENDBRANCH  27  28
ENDBRANCH  25  27
ENDBRANCH   1  25
TORSDOF 8
ENDMDL
MODEL 2
REMARK VINA RESULT:       4.1      0.540      2.983
REMARK  8 active torsions:
REMARK  status: ('A' for Active; 'I' for Inactive)
REMARK    1  A    between atoms: C_11  and  C_1 
REMARK    2  A    between atoms: C_10  and  C_2 
REMARK    3  A    between atoms: C_4  and  C_3 
REMARK    4  A    between atoms: C_14  and  C_9 
REMARK    5  A    between atoms: O_17  and  C_10 
REMARK    6  A    between atoms: O_18  and  C_11 
REMARK    7  A    between atoms: C_24  and  O_17 
REMARK    8  A    between atoms: C_23  and  O_18 
ROOT
ATOM      1  C   UNL d   1      59.709  -0.903  29.610  0.00  0.00     0.083 A 
ATOM      2  C   UNL d   1      58.911  -2.050  29.210  0.00  0.00     0.083 A 
ATOM      3  C   UNL d   1      58.997  -1.318  29.579  0.00  0.00     0.036 A 
ATOM      4  C   UNL d   1      59.571  -2.382  28.855  0.00  0.00     0.087 A 
ATOM      5  C   UNL d   1      60.400  -1.266  29.230  0.00  0.00     0.087 A 
ATOM      6  N   UNL d   1      60.310  -2.010  28.855  0.00  0.00    -0.245 NA
ATOM      7  C   UNL d   1      59.506  -3.156  28.457  0.00  0.00     0.021 C 
ATOM      8  C   UNL d   1      61.133  -0.893  29.233  0.00  0.00     0.021 C 
ENDROOT
BRANCH   3   9
ATOM      9  C   UNL d   1      58.341  -0.962  29.947  0.00  0.00     0.100 A 
ATOM     10  O   UNL d   1      58.098  -1.060  30.742  0.00  0.00    -0.307 OA
ATOM     11  C   UNL d   1      57.420  -0.591  30.834  0.00  0.00     0.100 A 
ATOM     12  C   UNL d   1      57.267  -0.226  30.111  0.00  0.00     0.027 A 
ATOM     13  C   UNL d   1      57.822  -0.449  29.574  0.00  0.00     0.027 A 
BRANCH  11  14
ATOM     14  C   UNL d   1      57.095  -0.618  31.598  0.00  0.00     0.023 A 
ATOM     15  C   UNL d   1      57.314  -0.036  32.131  0.00  0.00     0.002 A 
ATOM     16  C   UNL d   1      57.014  -0.036  32.884  0.00  0.00     0.000 A 
ATOM     17  C   UNL d   1      56.458  -0.665  33.108  0.00  0.00     0.000 A 
ATOM     18  C   UNL d   1      56.253  -1.238  32.559  0.00  0.00     0.000 A 
ATOM     19  C   UNL d   1      56.585  -1.196  31.803  0.00  0.00     0.002 A 
ENDBRANCH  11  14
ENDBRANCH   3   9
BRANCH   2  20
ATOM     20  C   UNL d   1      58.193  -2.463  29.181  0.00  0.00     0.302 C 
ATOM     21  O   UNL d   1      57.491  -2.064  29.126  0.00  0.00    -0.259 OA
BRANCH  20  22
ATOM     22  O   UNL d   1      58.175  -3.287  29.209  0.00  0.00    -0.271 OA
BRANCH  22  23
ATOM     23  C   UNL d   1      57.785  -3.901  28.565  0.00  0.00     0.126 C 
ATOM     24  C   UNL d   1      57.977  -4.688  28.701  0.00  0.00     0.029 C 
ENDBRANCH  22  23
ENDBRANCH  20  22
ENDBRANCH   2  20
BRANCH   1  25
ATOM     25  C   UNL d   1      59.805  -0.142  29.992  0.00  0.00     0.302 C 
ATOM     26  O   UNL d   1      59.207   0.393  29.996  0.00  0.00    -0.259 OA
BRANCH  25  27
ATOM     27  O   UNL d   1      60.538   0.020  30.356  0.00  0.00    -0.271 OA
BRANCH  27  28
ATOM     28  C   UNL d   1      60.665   0.682  30.843  0.00  0.00     0.126 C 
ATOM     29  C   UNL d   1      60.677   0.323  31.627  0.00  0.00     0.029 C 
ENDBRANCH  27  28
ENDBRANCH  25  27
ENDBRANCH   1  25
TORSDOF 8
ENDMDL
MODEL 3
REMARK VINA RESULT:       4.2      1.322      3.274
REMARK  8 active torsions:
REMARK  status: ('A' for Active; 'I' for Inactive)
REMARK    1  A    between atoms: C_11  and  C_1 
REMARK    2  A    between atoms: C_10  and  C_2 
REMARK    3  A    between atoms: C_4  and  C_3 
REMARK    4  A    between atoms: C_14  and  C_9 
REMARK    5  A    between atoms: O_17  and  C_10 
REMARK    6  A    between atoms: O_18  and  C_11 
REMARK    7  A    between atoms: C_24  and  O_17 
REMARK    8  A    between atoms: C_23  and  O_18 
ROOT
ATOM      1  C   UNL d   1      59.580   0.237  31.084  0.00  0.00     0.083 A 
ATOM      2  C   UNL d   1      59.107  -0.299  29.818  0.00  0.00     0.083 A 
ATOM      3  C   UNL d   1      58.977  -0.021  30.583  0.00  0.00     0.036 A 
ATOM      4  C   UNL d   1      59.879  -0.320  29.542  0.00  0.00     0.087 A 
ATOM      5  C   UNL d   1      60.392   0.210  30.778  0.00  0.00     0.087 A 
ATOM      6  N   UNL d   1      60.521  -0.074  30.000  0.00  0.00    -0.245 NA
ATOM      7  C   UNL d   1      60.043  -0.611  28.736  0.00  0.00     0.021 C 
ATOM      8  C   UNL d   1      61.029   0.455  31.237  0.00  0.00     0.021 C 
ENDROOT
BRANCH   3   9
ATOM      9  C   UNL d   1      58.202   0.009  30.885  0.00  0.00     0.100 A 
ATOM     10  O   UNL d   1      57.872  -0.495  31.467  0.00  0.00    -0.307 OA
ATOM     11  C   UNL d   1      57.090  -0.239  31.573  0.00  0.00     0.100 A 
ATOM     12  C   UNL d   1      56.963   0.400  31.068  0.00  0.00     0.027 A 
ATOM     13  C   UNL d   1      57.634   0.551  30.651  0.00  0.00     0.027 A 
BRANCH  11  14
ATOM     14  C   UNL d   1      56.668  -0.678  32.137  0.00  0.00     0.023 A 
ATOM     15  C   UNL d   1      56.657  -0.406  32.910  0.00  0.00     0.002 A 
ATOM     16  C   UNL d   1      56.254  -0.814  33.483  0.00  0.00     0.000 A 
ATOM     17  C   UNL d   1      55.837  -1.541  33.257  0.00  0.00     0.000 A 
ATOM     18  C   UNL d   1      55.861  -1.796  32.478  0.00  0.00     0.000 A 
ATOM     19  C   UNL d   1      56.285  -1.347  31.930  0.00  0.00     0.002 A 
ENDBRANCH  11  14
ENDBRANCH   3   9
BRANCH   2  20
ATOM     20  C   UNL d   1      58.498  -0.557  29.319  0.00  0.00     0.302 C 
ATOM     21  O   UNL d   1      58.183  -0.060  28.763  0.00  0.00    -0.259 OA
BRANCH  20  22
ATOM     22  O   UNL d   1      58.199  -1.324  29.374  0.00  0.00    -0.271 OA
BRANCH  22  23
ATOM     23  C   UNL d   1      58.560  -2.139  28.990  0.00  0.00     0.126 C 
ATOM     24  C   UNL d   1      57.990  -2.627  28.655  0.00  0.00     0.029 C 
ENDBRANCH  22  23
ENDBRANCH  20  22
ENDBRANCH   2  20
BRANCH   1  25
ATOM     25  C   UNL d   1      59.452   0.527  31.879  0.00  0.00     0.302 C 
ATOM     26  O   UNL d   1      58.708   0.656  32.153  0.00  0.00    -0.259 OA
BRANCH  25  27
ATOM     27  O   UNL d   1      60.123   0.670  32.353  0.00  0.00    -0.271 OA
BRANCH  27  28
ATOM     28  C   UNL d   1      60.097   0.680  33.185  0.00  0.00     0.126 C 
ATOM     29  C   UNL d   1      60.934   0.677  33.387  0.00  0.00     0.029 C 
ENDBRANCH  27  28
ENDBRANCH  25  27
ENDBRANCH   1  25
TORSDOF 8
ENDMDL
