MODEL 1
REMARK VINA RESULT:      -9.0      0.000      0.000
REMARK  5 active torsions:
REMARK  status: ('A' for Active; 'I' for Inactive)
REMARK    1  A    between atoms: C_2  and  C_1 
REMARK    2  A    between atoms: C_3  and  C_1 
REMARK    3  A    between atoms: C_4  and  C_2 
REMARK    4  A    between atoms: C_6  and  C_3 
REMARK    5  A    between atoms: P_5  and  C_4 
ROOT
ATOM      1  C   UNL d   1      53.842  32.202  54.020  0.00  0.00     0.389 C 
ATOM      2  F   UNL d   1      53.119  32.393  54.358  0.00  0.00    -0.191 F 
ATOM      3  F   UNL d   1      54.581  32.004  53.671  0.00  0.00    -0.191 F 
ENDROOT
BRANCH   1   4
ATOM      4  C   UNL d   1      53.458  31.642  53.511  0.00  0.00     0.387 C 
ATOM      5  F   UNL d   1      52.748  32.051  53.611  0.00  0.00    -0.190 F 
ATOM      6  F   UNL d   1      54.188  31.229  53.413  0.00  0.00    -0.190 F 
BRANCH   4   7
ATOM      7  C   UNL d   1      53.078  31.104  53.019  0.00  0.00     0.329 C 
ATOM      8  O   UNL d   1      52.892  31.303  52.238  0.00  0.00    -0.275 OA
BRANCH   7   9
ATOM      9  P   UNL d   1      52.872  30.341  53.303  0.00  0.00     0.339 P 
ATOM     10  O   UNL d   1      53.643  30.083  53.196  0.00  0.00    -0.634 OA
ATOM     11  O   UNL d   1      52.089  30.598  53.414  0.00  0.00    -0.634 OA
ATOM     12  O   UNL d   1      52.654  29.605  53.582  0.00  0.00    -0.634 OA
ENDBRANCH   7   9
ENDBRANCH   4   7
ENDBRANCH   1   4
BRANCH   1  13
ATOM     13  C   UNL d   1      54.222  32.742  54.509  0.00  0.00     0.393 C 
ATOM     14  F   UNL d   1      54.544  33.115  53.846  0.00  0.00    -0.188 F 
ATOM     15  F   UNL d   1      53.898  32.368  55.188  0.00  0.00    -0.188 F 
BRANCH  13  16
ATOM     16  C   UNL d   1      54.606  33.287  54.996  0.00  0.00     0.322 C 
ATOM     17  F   UNL d   1      54.871  33.052  55.742  0.00  0.00    -0.171 F 
ATOM     18  F   UNL d   1      54.727  34.064  54.742  0.00  0.00    -0.171 F 
ENDBRANCH  13  16
ENDBRANCH   1  13
TORSDOF 5
ENDMDL
MODEL 2
REMARK VINA RESULT:      -8.7      2.128      3.162
REMARK  5 active torsions:
REMARK  status: ('A' for Active; 'I' for Inactive)
REMARK    1  A    between atoms: C_2  and  C_1 
REMARK    2  A    between atoms: C_3  and  C_1 
REMARK    3  A    between atoms: C_4  and  C_2 
REMARK    4  A    between atoms: C_6  and  C_3 
REMARK    5  A    between atoms: P_5  and  C_4 
ROOT
ATOM      1  C   UNL d   1      53.570  31.629  53.587  0.00  0.00     0.389 C 
ATOM      2  F   UNL d   1      53.374  32.064  52.920  0.00  0.00    -0.191 F 
ATOM      3  F   UNL d   1      53.773  31.185  54.273  0.00  0.00    -0.191 F 
ENDROOT
BRANCH   1   4
ATOM      4  C   UNL d   1      53.992  32.295  53.900  0.00  0.00     0.387 C 
ATOM      5  F   UNL d   1      54.158  32.541  53.130  0.00  0.00    -0.190 F 
ATOM      6  F   UNL d   1      53.818  32.037  54.686  0.00  0.00    -0.190 F 
BRANCH   4   7
ATOM      7  C   UNL d   1      54.403  32.943  54.195  0.00  0.00     0.329 C 
ATOM      8  O   UNL d   1      55.194  33.072  53.990  0.00  0.00    -0.275 OA
BRANCH   7   9
ATOM      9  P   UNL d   1      54.025  33.487  54.711  0.00  0.00     0.339 P 
ATOM     10  O   UNL d   1      53.701  33.884  54.070  0.00  0.00    -0.634 OA
ATOM     11  O   UNL d   1      54.350  33.088  55.363  0.00  0.00    -0.634 OA
ATOM     12  O   UNL d   1      53.664  34.007  55.226  0.00  0.00    -0.634 OA
ENDBRANCH   7   9
ENDBRANCH   4   7
ENDBRANCH   1   4
BRANCH   1  13
ATOM     13  C   UNL d   1      53.163  30.978  53.292  0.00  0.00     0.393 C 
ATOM     14  F   UNL d   1      52.551  31.474  53.046  0.00  0.00    -0.188 F 
ATOM     15  F   UNL d   1      53.784  30.468  53.539  0.00  0.00    -0.188 F 
BRANCH  13  16
ATOM     16  C   UNL d   1      52.752  30.329  52.994  0.00  0.00     0.322 C 
ATOM     17  F   UNL d   1      53.088  29.872  52.393  0.00  0.00    -0.171 F 
ATOM     18  F   UNL d   1      52.007  30.131  53.292  0.00  0.00    -0.171 F 
ENDBRANCH  13  16
ENDBRANCH   1  13
TORSDOF 5
ENDMDL
MODEL 3
REMARK VINA RESULT:      -8.2      1.856      2.375
REMARK  5 active torsions:
REMARK  status: ('A' for Active; 'I' for Inactive)
REMARK    1  A    between atoms: C_2  and  C_1 
REMARK    2  A    between atoms: C_3  and  C_1 
REMARK    3  A    between atoms: C_4  and  C_2 
REMARK    4  A    between atoms: C_6  and  C_3 
REMARK    5  A    between atoms: P_5  and  C_4 
ROOT
ATOM      1  C   UNL d   1      53.561  33.364  54.131  0.00  0.00     0.389 C 
ATOM      2  F   UNL d   1      53.025  33.438  54.748  0.00  0.00    -0.191 F 
ATOM      3  F   UNL d   1      54.107  33.287  53.496  0.00  0.00    -0.191 F 
ENDROOT
BRANCH   1   4
ATOM      4  C   UNL d   1      52.919  33.313  53.578  0.00  0.00     0.387 C 
ATOM      5  F   UNL d   1      53.466  33.245  52.963  0.00  0.00    -0.190 F 
ATOM      6  F   UNL d   1      52.366  33.382  54.212  0.00  0.00    -0.190 F 
BRANCH   4   7
ATOM      7  C   UNL d   1      52.304  33.262  53.035  0.00  0.00     0.329 C 
ATOM      8  O   UNL d   1      52.251  32.622  52.513  0.00  0.00    -0.275 OA
BRANCH   7   9
ATOM      9  P   UNL d   1      51.717  33.862  53.001  0.00  0.00     0.339 P 
ATOM     10  O   UNL d   1      52.223  34.345  52.572  0.00  0.00    -0.634 OA
ATOM     11  O   UNL d   1      51.202  33.377  53.436  0.00  0.00    -0.634 OA
ATOM     12  O   UNL d   1      51.136  34.435  52.978  0.00  0.00    -0.634 OA
ENDBRANCH   7   9
ENDBRANCH   4   7
ENDBRANCH   1   4
BRANCH   1  13
ATOM     13  C   UNL d   1      54.188  33.413  54.659  0.00  0.00     0.393 C 
ATOM     14  F   UNL d   1      54.152  32.596  54.777  0.00  0.00    -0.188 F 
ATOM     15  F   UNL d   1      54.231  34.244  54.544  0.00  0.00    -0.188 F 
BRANCH  13  16
ATOM     16  C   UNL d   1      54.818  33.457  55.190  0.00  0.00     0.322 C 
ATOM     17  F   UNL d   1      54.850  32.938  55.832  0.00  0.00    -0.171 F 
ATOM     18  F   UNL d   1      55.417  34.016  55.085  0.00  0.00    -0.171 F 
ENDBRANCH  13  16
ENDBRANCH   1  13
TORSDOF 5
ENDMDL
