MODEL 1
REMARK VINA RESULT:      51.3      0.000      0.000
REMARK  6 active torsions:
REMARK  status: ('A' for Active; 'I' for Inactive)
REMARK    1  A    between atoms: C_6  and  C_1 
REMARK    2  A    between atoms: C_8  and  C_6 
REMARK    3  A    between atoms: O_14  and  C_10 
REMARK    4  A    between atoms: C_12  and  C_20 
REMARK    5  A    between atoms: O_21  and  C_12 
REMARK    6  A    between atoms: C_20  and  O_14 
ROOT
ATOM      1  C   UNL d   1      58.094  49.690  50.212  0.00  0.00     0.141 A 
ATOM      2  C   UNL d   1      59.241  49.694  50.907  0.00  0.00     0.105 A 
ATOM      3  O   UNL d   1      58.408  49.691  50.978  0.00  0.00    -0.304 OA
ATOM      4  C   UNL d   1      59.434  49.696  50.110  0.00  0.00     0.064 A 
ATOM      5  C   UNL d   1      58.726  49.693  49.664  0.00  0.00     0.220 A 
ATOM      6  C   UNL d   1      59.841  49.697  51.479  0.00  0.00     0.046 A 
ATOM      7  C   UNL d   1      60.230  49.699  49.875  0.00  0.00     0.007 A 
ATOM      8  C   UNL d   1      60.627  49.700  51.242  0.00  0.00     0.102 A 
ATOM      9  O   UNL d   1      58.662  49.693  48.843  0.00  0.00    -0.284 OA
ATOM     10  C   UNL d   1      60.820  49.701  50.445  0.00  0.00     0.025 A 
ATOM     11  C   UNL d   1      59.647  49.696  52.281  0.00  0.00     0.004 C 
ENDROOT
BRANCH   1  12
ATOM     12  C   UNL d   1      57.288  49.686  50.017  0.00  0.00     0.053 C 
BRANCH  12  13
ATOM     13  C   UNL d   1      56.907  48.979  49.860  0.00  0.00     0.102 A 
ATOM     14  O   UNL d   1      56.898  48.588  49.138  0.00  0.00    -0.305 OA
ATOM     15  C   UNL d   1      56.451  47.899  49.225  0.00  0.00     0.123 A 
ATOM     16  C   UNL d   1      56.182  47.869  50.009  0.00  0.00     0.029 A 
ATOM     17  C   UNL d   1      56.464  48.533  50.394  0.00  0.00     0.027 A 
ENDBRANCH  12  13
ENDBRANCH   1  12
BRANCH   8  18
ATOM     18  O   UNL d   1      61.225  49.703  51.808  0.00  0.00    -0.300 OA
BRANCH  18  19
ATOM     19  C   UNL d   1      61.743  49.062  51.874  0.00  0.00     0.191 C 
BRANCH  19  20
ATOM     20  C   UNL d   1      61.749  48.597  52.562  0.00  0.00     0.321 C 
ATOM     21  O   UNL d   1      61.385  47.857  52.563  0.00  0.00    -0.257 OA
BRANCH  20  22
ATOM     22  O   UNL d   1      62.116  48.870  53.238  0.00  0.00    -0.294 OA
ATOM     23  C   UNL d   1      62.450  49.618  53.259  0.00  0.00     0.185 C 
ENDBRANCH  20  22
ENDBRANCH  19  20
ENDBRANCH  18  19
ENDBRANCH   8  18
TORSDOF 6
ENDMDL
