MODEL 1
REMARK VINA RESULT:      -2.9      0.000      0.000
REMARK  5 active torsions:
REMARK  status: ('A' for Active; 'I' for Inactive)
REMARK    1  A    between atoms: C_2  and  C_1 
REMARK    2  A    between atoms: C_5  and  C_2 
REMARK    3  A    between atoms: C_11  and  C_5 
REMARK    4  A    between atoms: C_10  and  C_12 
REMARK    5  A    between atoms: O_19  and  C_10 
ROOT
ATOM      1  C   UNL d   1      32.315  17.466 -23.915  0.00  0.00     0.131 C 
ATOM      2  C   UNL d   1      32.793  16.782 -23.872  0.00  0.00     0.106 C 
ATOM      3  N   UNL d   1      33.241  16.131 -23.837  0.00  0.00    -0.191 NA
ENDROOT
BRANCH   1   4
ATOM      4  C   UNL d   1      32.527  18.129 -23.502  0.00  0.00     0.123 A 
ATOM      5  N   UNL d   1      32.672  18.153 -22.692  0.00  0.00    -0.238 NA
ATOM      6  C   UNL d   1      32.875  18.949 -22.499  0.00  0.00     0.088 A 
ATOM      7  C   UNL d   1      33.068  19.298 -21.804  0.00  0.00     0.020 A 
ATOM      8  C   UNL d   1      32.848  19.390 -23.195  0.00  0.00     0.049 A 
ATOM      9  C   UNL d   1      33.240  20.092 -21.789  0.00  0.00     0.002 A 
ATOM     10  C   UNL d   1      33.213  20.545 -22.504  0.00  0.00     0.001 A 
ATOM     11  C   UNL d   1      33.016  20.184 -23.204  0.00  0.00     0.008 A 
ATOM     12  S   UNL d   1      32.630  18.868 -23.821  0.00  0.00    -0.066 SA
ENDBRANCH   1   4
BRANCH   1  13
ATOM     13  C   UNL d   1      31.632  17.465 -24.372  0.00  0.00     0.207 C 
ATOM     14  O   UNL d   1      31.615  17.877 -25.092  0.00  0.00    -0.286 OA
BRANCH  13  15
ATOM     15  C   UNL d   1      30.939  17.040 -24.109  0.00  0.00     0.040 A 
ATOM     16  C   UNL d   1      30.208  17.221 -24.428  0.00  0.00     0.003 A 
ATOM     17  C   UNL d   1      29.538  16.810 -24.173  0.00  0.00     0.005 A 
ATOM     18  C   UNL d   1      29.613  16.226 -23.605  0.00  0.00     0.063 A 
ATOM     19  C   UNL d   1      30.349  16.041 -23.281  0.00  0.00     0.005 A 
ATOM     20  C   UNL d   1      31.019  16.452 -23.536  0.00  0.00     0.003 A 
BRANCH  18  21
ATOM     21  C   UNL d   1      28.920  15.802 -23.341  0.00  0.00     0.296 C 
ATOM     22  O   UNL d   1      28.871  15.540 -22.557  0.00  0.00    -0.259 OA
BRANCH  21  23
ATOM     23  O   UNL d   1      28.304  15.653 -23.864  0.00  0.00    -0.296 OA
ATOM     24  C   UNL d   1      27.548  15.484 -23.577  0.00  0.00     0.185 C 
ENDBRANCH  21  23
ENDBRANCH  18  21
ENDBRANCH  13  15
ENDBRANCH   1  13
TORSDOF 5
ENDMDL
MODEL 2
REMARK VINA RESULT:      -2.8      1.952      4.769
REMARK  5 active torsions:
REMARK  status: ('A' for Active; 'I' for Inactive)
REMARK    1  A    between atoms: C_2  and  C_1 
REMARK    2  A    between atoms: C_5  and  C_2 
REMARK    3  A    between atoms: C_11  and  C_5 
REMARK    4  A    between atoms: C_10  and  C_12 
REMARK    5  A    between atoms: O_19  and  C_10 
ROOT
ATOM      1  C   UNL d   1      32.553  17.988 -23.736  0.00  0.00     0.131 C 
ATOM      2  C   UNL d   1      32.903  18.277 -24.437  0.00  0.00     0.106 C 
ATOM      3  N   UNL d   1      33.241  18.553 -25.097  0.00  0.00    -0.191 NA
ENDROOT
BRANCH   1   4
ATOM      4  C   UNL d   1      31.858  17.576 -23.775  0.00  0.00     0.123 A 
ATOM      5  N   UNL d   1      31.128  17.902 -23.973  0.00  0.00    -0.238 NA
ATOM      6  C   UNL d   1      30.561  17.278 -23.946  0.00  0.00     0.088 A 
ATOM      7  C   UNL d   1      29.772  17.266 -24.085  0.00  0.00     0.020 A 
ATOM      8  C   UNL d   1      30.958  16.587 -23.733  0.00  0.00     0.049 A 
ATOM      9  C   UNL d   1      29.363  16.568 -24.015  0.00  0.00     0.002 A 
ATOM     10  C   UNL d   1      29.771  15.859 -23.795  0.00  0.00     0.001 A 
ATOM     11  C   UNL d   1      30.571  15.878 -23.656  0.00  0.00     0.008 A 
ATOM     12  S   UNL d   1      31.772  16.783 -23.627  0.00  0.00    -0.066 SA
ENDBRANCH   1   4
BRANCH   1  13
ATOM     13  C   UNL d   1      32.913  18.122 -23.009  0.00  0.00     0.207 C 
ATOM     14  O   UNL d   1      33.230  17.487 -22.580  0.00  0.00    -0.286 OA
BRANCH  13  15
ATOM     15  C   UNL d   1      32.962  18.915 -22.694  0.00  0.00     0.040 A 
ATOM     16  C   UNL d   1      32.808  19.046 -21.901  0.00  0.00     0.003 A 
ATOM     17  C   UNL d   1      32.855  19.812 -21.597  0.00  0.00     0.005 A 
ATOM     18  C   UNL d   1      33.056  20.433 -22.091  0.00  0.00     0.063 A 
ATOM     19  C   UNL d   1      33.212  20.304 -22.891  0.00  0.00     0.005 A 
ATOM     20  C   UNL d   1      33.164  19.538 -23.196  0.00  0.00     0.003 A 
BRANCH  18  21
ATOM     21  C   UNL d   1      33.104  21.225 -21.776  0.00  0.00     0.296 C 
ATOM     22  O   UNL d   1      33.030  21.350 -20.960  0.00  0.00    -0.259 OA
BRANCH  21  23
ATOM     23  O   UNL d   1      33.225  21.862 -22.281  0.00  0.00    -0.296 OA
ATOM     24  C   UNL d   1      33.077  22.632 -22.020  0.00  0.00     0.185 C 
ENDBRANCH  21  23
ENDBRANCH  18  21
ENDBRANCH  13  15
ENDBRANCH   1  13
TORSDOF 5
ENDMDL
MODEL 3
REMARK VINA RESULT:      -2.5      1.752      4.527
REMARK  5 active torsions:
REMARK  status: ('A' for Active; 'I' for Inactive)
REMARK    1  A    between atoms: C_2  and  C_1 
REMARK    2  A    between atoms: C_5  and  C_2 
REMARK    3  A    between atoms: C_11  and  C_5 
REMARK    4  A    between atoms: C_10  and  C_12 
REMARK    5  A    between atoms: O_19  and  C_10 
ROOT
ATOM      1  C   UNL d   1      31.424  16.233 -23.691  0.00  0.00     0.131 C 
ATOM      2  C   UNL d   1      31.729  15.831 -23.026  0.00  0.00     0.106 C 
ATOM      3  N   UNL d   1      32.026  15.453 -22.398  0.00  0.00    -0.191 NA
ENDROOT
BRANCH   1   4
ATOM      4  C   UNL d   1      30.631  16.193 -23.855  0.00  0.00     0.123 A 
ATOM      5  N   UNL d   1      30.036  16.501 -23.377  0.00  0.00    -0.238 NA
ATOM      6  C   UNL d   1      29.301  16.335 -23.757  0.00  0.00     0.088 A 
ATOM      7  C   UNL d   1      28.545  16.500 -23.552  0.00  0.00     0.020 A 
ATOM      8  C   UNL d   1      29.467  15.930 -24.456  0.00  0.00     0.049 A 
ATOM      9  C   UNL d   1      27.938  16.265 -24.039  0.00  0.00     0.002 A 
ATOM     10  C   UNL d   1      28.108  15.849 -24.757  0.00  0.00     0.001 A 
ATOM     11  C   UNL d   1      28.878  15.686 -24.958  0.00  0.00     0.008 A 
ATOM     12  S   UNL d   1      30.304  15.845 -24.511  0.00  0.00    -0.066 SA
ENDBRANCH   1   4
BRANCH   1  13
ATOM     13  C   UNL d   1      31.924  16.669 -24.177  0.00  0.00     0.207 C 
ATOM     14  O   UNL d   1      32.159  16.362 -24.911  0.00  0.00    -0.286 OA
BRANCH  13  15
ATOM     15  C   UNL d   1      32.203  17.436 -23.927  0.00  0.00     0.040 A 
ATOM     16  C   UNL d   1      31.780  18.107 -24.130  0.00  0.00     0.003 A 
ATOM     17  C   UNL d   1      32.050  18.849 -23.889  0.00  0.00     0.005 A 
ATOM     18  C   UNL d   1      32.738  18.907 -23.450  0.00  0.00     0.063 A 
ATOM     19  C   UNL d   1      33.168  18.233 -23.244  0.00  0.00     0.005 A 
ATOM     20  C   UNL d   1      32.898  17.491 -23.485  0.00  0.00     0.003 A 
BRANCH  18  21
ATOM     21  C   UNL d   1      33.017  19.674 -23.200  0.00  0.00     0.296 C 
ATOM     22  O   UNL d   1      33.241  20.236 -23.768  0.00  0.00    -0.259 OA
BRANCH  21  23
ATOM     23  O   UNL d   1      33.064  19.856 -22.400  0.00  0.00    -0.296 OA
ATOM     24  C   UNL d   1      33.233  20.628 -22.160  0.00  0.00     0.185 C 
ENDBRANCH  21  23
ENDBRANCH  18  21
ENDBRANCH  13  15
ENDBRANCH   1  13
TORSDOF 5
ENDMDL
MODEL 4
REMARK VINA RESULT:      -0.4      2.530      5.281
REMARK  5 active torsions:
REMARK  status: ('A' for Active; 'I' for Inactive)
REMARK    1  A    between atoms: C_2  and  C_1 
REMARK    2  A    between atoms: C_5  and  C_2 
REMARK    3  A    between atoms: C_11  and  C_5 
REMARK    4  A    between atoms: C_10  and  C_12 
REMARK    5  A    between atoms: O_19  and  C_10 
ROOT
ATOM      1  C   UNL d   1      32.915  19.519 -23.205  0.00  0.00     0.131 C 
ATOM      2  C   UNL d   1      33.081  20.154 -23.722  0.00  0.00     0.106 C 
ATOM      3  N   UNL d   1      33.241  20.761 -24.204  0.00  0.00    -0.191 NA
ENDROOT
BRANCH   1   4
ATOM      4  C   UNL d   1      32.640  18.819 -23.506  0.00  0.00     0.123 A 
ATOM      5  N   UNL d   1      32.044  18.752 -24.070  0.00  0.00    -0.238 NA
ATOM      6  C   UNL d   1      31.936  17.929 -24.221  0.00  0.00     0.088 A 
ATOM      7  C   UNL d   1      31.440  17.536 -24.712  0.00  0.00     0.020 A 
ATOM      8  C   UNL d   1      32.469  17.515 -23.746  0.00  0.00     0.049 A 
ATOM      9  C   UNL d   1      31.464  16.724 -24.739  0.00  0.00     0.002 A 
ATOM     10  C   UNL d   1      32.011  16.300 -24.252  0.00  0.00     0.001 A 
ATOM     11  C   UNL d   1      32.511  16.705 -23.757  0.00  0.00     0.008 A 
ATOM     12  S   UNL d   1      32.907  18.082 -23.300  0.00  0.00    -0.066 SA
ENDBRANCH   1   4
BRANCH   1  13
ATOM     13  C   UNL d   1      33.029  19.604 -22.395  0.00  0.00     0.207 C 
ATOM     14  O   UNL d   1      33.241  18.947 -21.936  0.00  0.00    -0.286 OA
BRANCH  13  15
ATOM     15  C   UNL d   1      32.931  20.368 -22.026  0.00  0.00     0.040 A 
ATOM     16  C   UNL d   1      32.569  20.420 -21.294  0.00  0.00     0.003 A 
ATOM     17  C   UNL d   1      32.474  21.159 -20.936  0.00  0.00     0.005 A 
ATOM     18  C   UNL d   1      32.744  21.831 -21.318  0.00  0.00     0.063 A 
ATOM     19  C   UNL d   1      33.109  21.782 -22.056  0.00  0.00     0.005 A 
ATOM     20  C   UNL d   1      33.204  21.043 -22.413  0.00  0.00     0.003 A 
BRANCH  18  21
ATOM     21  C   UNL d   1      32.646  22.594 -20.948  0.00  0.00     0.296 C 
ATOM     22  O   UNL d   1      32.635  23.279 -21.414  0.00  0.00    -0.259 OA
BRANCH  21  23
ATOM     23  O   UNL d   1      32.561  22.649 -20.133  0.00  0.00    -0.296 OA
ATOM     24  C   UNL d   1      32.443  23.386 -19.778  0.00  0.00     0.185 C 
ENDBRANCH  21  23
ENDBRANCH  18  21
ENDBRANCH  13  15
ENDBRANCH   1  13
TORSDOF 5
ENDMDL
MODEL 5
REMARK VINA RESULT:      -0.1      2.205      3.401
REMARK  5 active torsions:
REMARK  status: ('A' for Active; 'I' for Inactive)
REMARK    1  A    between atoms: C_2  and  C_1 
REMARK    2  A    between atoms: C_5  and  C_2 
REMARK    3  A    between atoms: C_11  and  C_5 
REMARK    4  A    between atoms: C_10  and  C_12 
REMARK    5  A    between atoms: O_19  and  C_10 
ROOT
ATOM      1  C   UNL d   1      32.961  20.191 -22.570  0.00  0.00     0.131 C 
ATOM      2  C   UNL d   1      33.104  19.564 -22.038  0.00  0.00     0.106 C 
ATOM      3  N   UNL d   1      33.241  18.964 -21.541  0.00  0.00    -0.191 NA
ENDROOT
BRANCH   1   4
ATOM      4  C   UNL d   1      32.816  20.935 -22.284  0.00  0.00     0.123 A 
ATOM      5  N   UNL d   1      32.941  21.632 -22.702  0.00  0.00    -0.238 NA
ATOM      6  C   UNL d   1      32.718  22.270 -22.196  0.00  0.00     0.088 A 
ATOM      7  C   UNL d   1      32.720  23.063 -22.303  0.00  0.00     0.020 A 
ATOM      8  C   UNL d   1      32.464  21.945 -21.482  0.00  0.00     0.049 A 
ATOM      9  C   UNL d   1      32.469  23.549 -21.702  0.00  0.00     0.002 A 
ATOM     10  C   UNL d   1      32.208  23.216 -20.969  0.00  0.00     0.001 A 
ATOM     11  C   UNL d   1      32.209  22.410 -20.868  0.00  0.00     0.008 A 
ATOM     12  S   UNL d   1      32.529  21.106 -21.545  0.00  0.00    -0.066 SA
ENDBRANCH   1   4
BRANCH   1  13
ATOM     13  C   UNL d   1      32.967  20.055 -23.381  0.00  0.00     0.207 C 
ATOM     14  O   UNL d   1      33.241  20.643 -23.898  0.00  0.00    -0.286 OA
BRANCH  13  15
ATOM     15  C   UNL d   1      32.691  19.310 -23.693  0.00  0.00     0.040 A 
ATOM     16  C   UNL d   1      31.891  19.135 -23.678  0.00  0.00     0.003 A 
ATOM     17  C   UNL d   1      31.624  18.414 -23.980  0.00  0.00     0.005 A 
ATOM     18  C   UNL d   1      32.162  17.881 -24.291  0.00  0.00     0.063 A 
ATOM     19  C   UNL d   1      32.969  18.054 -24.308  0.00  0.00     0.005 A 
ATOM     20  C   UNL d   1      33.236  18.775 -24.006  0.00  0.00     0.003 A 
BRANCH  18  21
ATOM     21  C   UNL d   1      31.886  17.136 -24.603  0.00  0.00     0.296 C 
ATOM     22  O   UNL d   1      31.209  17.114 -25.080  0.00  0.00    -0.259 OA
BRANCH  21  23
ATOM     23  O   UNL d   1      32.291  16.442 -24.430  0.00  0.00    -0.296 OA
ATOM     24  C   UNL d   1      32.169  15.766 -24.890  0.00  0.00     0.185 C 
ENDBRANCH  21  23
ENDBRANCH  18  21
ENDBRANCH  13  15
ENDBRANCH   1  13
TORSDOF 5
ENDMDL
