MODEL 1
REMARK VINA RESULT:      60.1      0.000      0.000
REMARK  2 active torsions:
REMARK  status: ('A' for Active; 'I' for Inactive)
REMARK    1  A    between atoms: N_2  and  N_1 
REMARK    2  A    between atoms: N_8  and  C_10 
ROOT
ATOM      1  N   UNL d   1     -47.656  31.707  34.734  0.00  0.00    -0.171 N 
ATOM      2  C   UNL d   1     -47.838  30.912  34.688  0.00  0.00     0.283 A 
ATOM      3  C   UNL d   1     -47.516  30.540  35.364  0.00  0.00     0.085 A 
ATOM      4  C   UNL d   1     -47.227  31.847  35.425  0.00  0.00     0.282 A 
ATOM      5  C   UNL d   1     -47.134  31.124  35.825  0.00  0.00     0.064 A 
ATOM      6  C   UNL d   1     -47.520  29.758  35.619  0.00  0.00     0.131 A 
ATOM      7  O   UNL d   1     -48.264  30.566  34.070  0.00  0.00    -0.265 OA
ATOM      8  O   UNL d   1     -46.936  32.599  35.673  0.00  0.00    -0.265 OA
ATOM      9  C   UNL d   1     -46.764  30.916  36.532  0.00  0.00     0.005 A 
ATOM     10  C   UNL d   1     -47.153  29.549  36.320  0.00  0.00     0.024 A 
ATOM     11  C   UNL d   1     -46.779  30.120  36.771  0.00  0.00     0.002 A 
ENDROOT
BRANCH   1  12
ATOM     12  N   UNL d   1     -47.824  32.339  34.235  0.00  0.00    -0.189 N 
ATOM     13  C   UNL d   1     -48.491  32.788  34.095  0.00  0.00     0.169 A 
ATOM     14  S   UNL d   1     -48.303  33.346  33.522  0.00  0.00    -0.051 SA
ATOM     15  S   UNL d   1     -49.252  32.696  34.476  0.00  0.00    -0.050 SA
ATOM     16  C   UNL d   1     -47.516  33.244  33.306  0.00  0.00     0.100 A 
ATOM     17  C   UNL d   1     -47.215  32.627  33.739  0.00  0.00     0.287 A 
ATOM     18  O   UNL d   1     -46.448  32.344  33.691  0.00  0.00    -0.265 OA
ENDBRANCH   1  12
BRANCH   6  19
ATOM     19  N   UNL d   1     -47.906  29.168  35.153  0.00  0.00    -0.114 N 
ATOM     20  O   UNL d   1     -47.469  28.715  34.623  0.00  0.00    -0.532 OA
ATOM     21  O   UNL d   1     -48.713  29.048  35.231  0.00  0.00    -0.532 OA
ENDBRANCH   6  19
TORSDOF 2
ENDMDL
MODEL 2
REMARK VINA RESULT:      62.0      1.119      1.733
REMARK  2 active torsions:
REMARK  status: ('A' for Active; 'I' for Inactive)
REMARK    1  A    between atoms: N_2  and  N_1 
REMARK    2  A    between atoms: N_8  and  C_10 
ROOT
ATOM      1  N   UNL d   1     -47.809  31.821  34.485  0.00  0.00    -0.171 N 
ATOM      2  C   UNL d   1     -47.442  31.624  35.188  0.00  0.00     0.283 A 
ATOM      3  C   UNL d   1     -47.563  30.807  35.316  0.00  0.00     0.085 A 
ATOM      4  C   UNL d   1     -48.160  31.146  34.166  0.00  0.00     0.282 A 
ATOM      5  C   UNL d   1     -48.013  30.508  34.677  0.00  0.00     0.064 A 
ATOM      6  C   UNL d   1     -47.328  30.302  35.921  0.00  0.00     0.131 A 
ATOM      7  O   UNL d   1     -47.031  32.160  35.666  0.00  0.00    -0.265 OA
ATOM      8  O   UNL d   1     -48.594  31.120  33.442  0.00  0.00    -0.265 OA
ATOM      9  C   UNL d   1     -48.218  29.710  34.655  0.00  0.00     0.005 A 
ATOM     10  C   UNL d   1     -47.532  29.509  35.900  0.00  0.00     0.024 A 
ATOM     11  C   UNL d   1     -47.971  29.216  35.275  0.00  0.00     0.002 A 
ENDROOT
BRANCH   1  12
ATOM     12  N   UNL d   1     -47.876  32.535  34.081  0.00  0.00    -0.189 N 
ATOM     13  C   UNL d   1     -48.477  33.079  33.990  0.00  0.00     0.169 A 
ATOM     14  S   UNL d   1     -48.196  33.686  33.512  0.00  0.00    -0.051 SA
ATOM     15  S   UNL d   1     -49.261  33.030  34.330  0.00  0.00    -0.050 SA
ATOM     16  C   UNL d   1     -47.418  33.517  33.306  0.00  0.00     0.100 A 
ATOM     17  C   UNL d   1     -47.214  32.812  33.652  0.00  0.00     0.287 A 
ATOM     18  O   UNL d   1     -46.484  32.445  33.585  0.00  0.00    -0.265 OA
ENDBRANCH   1  12
BRANCH   6  19
ATOM     19  N   UNL d   1     -46.874  30.603  36.566  0.00  0.00    -0.114 N 
ATOM     20  O   UNL d   1     -47.060  30.381  37.336  0.00  0.00    -0.532 OA
ATOM     21  O   UNL d   1     -46.252  31.117  36.424  0.00  0.00    -0.532 OA
ENDBRANCH   6  19
TORSDOF 2
ENDMDL
