MODEL 1
REMARK VINA RESULT:      -2.5      0.000      0.000
REMARK  4 active torsions:
REMARK  status: ('A' for Active; 'I' for Inactive)
REMARK    1  A    between atoms: N_2  and  S_1 
REMARK    2  A    between atoms: C_8  and  S_1 
REMARK    3  A    between atoms: C_4  and  C_3 
REMARK       I    between atoms: N_5  and  C_4 
REMARK    4  A    between atoms: C_6  and  N_5 
ROOT
ATOM      1  N   UNL d   1      59.980   0.173  29.314  0.00  0.00    -0.226 N 
ATOM      2  C   UNL d   1      60.100  -0.505  28.855  0.00  0.00     0.133 A 
ATOM      3  C   UNL d   1      60.618   0.680  29.199  0.00  0.00     0.092 A 
ATOM      4  C   UNL d   1      60.817  -0.415  28.455  0.00  0.00     0.025 A 
ATOM      5  C   UNL d   1      61.132   0.317  28.670  0.00  0.00     0.021 A 
ENDROOT
BRANCH   1   6
ATOM      6  S   UNL d   1      59.305   0.255  29.785  0.00  0.00     0.271 S 
ATOM      7  O   UNL d   1      58.825   0.464  29.148  0.00  0.00    -0.200 OA
ATOM      8  O   UNL d   1      59.795   0.045  30.415  0.00  0.00    -0.200 OA
BRANCH   6   9
ATOM      9  C   UNL d   1      58.666   0.323  30.296  0.00  0.00     0.104 A 
ATOM     10  C   UNL d   1      57.903   0.395  29.989  0.00  0.00     0.013 A 
ATOM     11  C   UNL d   1      57.258   0.464  30.499  0.00  0.00     0.001 A 
ATOM     12  C   UNL d   1      57.378   0.461  31.318  0.00  0.00     0.000 A 
ATOM     13  C   UNL d   1      58.144   0.388  31.622  0.00  0.00     0.001 A 
ATOM     14  C   UNL d   1      56.733   0.529  31.828  0.00  0.00     0.000 C 
ATOM     15  C   UNL d   1      58.787   0.320  31.110  0.00  0.00     0.013 A 
ENDBRANCH   6   9
ENDBRANCH   1   6
BRANCH   2  16
ATOM     16  C   UNL d   1      59.593  -1.159  28.805  0.00  0.00     0.298 C 
ATOM     17  N   UNL d   1      59.887  -1.915  28.979  0.00  0.00    -0.181 NA
ATOM     18  O   UNL d   1      58.809  -1.053  28.584  0.00  0.00    -0.264 OA
BRANCH  17  19
ATOM     19  C   UNL d   1      59.380  -2.565  28.928  0.00  0.00     0.197 A 
ATOM     20  N   UNL d   1      58.671  -2.650  29.344  0.00  0.00    -0.219 NA
ATOM     21  C   UNL d   1      58.345  -3.375  29.130  0.00  0.00     0.108 A 
ATOM     22  C   UNL d   1      58.844  -3.737  28.587  0.00  0.00     0.059 A 
ATOM     23  S   UNL d   1      59.490  -3.232  28.461  0.00  0.00    -0.046 SA
ENDBRANCH  17  19
ENDBRANCH   2  16
TORSDOF 4
ENDMDL
MODEL 2
REMARK VINA RESULT:      -2.5      1.108      3.340
REMARK  4 active torsions:
REMARK  status: ('A' for Active; 'I' for Inactive)
REMARK    1  A    between atoms: N_2  and  S_1 
REMARK    2  A    between atoms: C_8  and  S_1 
REMARK    3  A    between atoms: C_4  and  C_3 
REMARK       I    between atoms: N_5  and  C_4 
REMARK    4  A    between atoms: C_6  and  N_5 
ROOT
ATOM      1  N   UNL d   1      60.299  -0.511  28.939  0.00  0.00    -0.226 N 
ATOM      2  C   UNL d   1      60.096   0.033  29.528  0.00  0.00     0.133 A 
ATOM      3  C   UNL d   1      60.934  -0.208  28.514  0.00  0.00     0.092 A 
ATOM      4  C   UNL d   1      60.610   0.676  29.465  0.00  0.00     0.025 A 
ATOM      5  C   UNL d   1      61.125   0.523  28.839  0.00  0.00     0.021 A 
ENDROOT
BRANCH   1   6
ATOM      6  S   UNL d   1      59.884  -1.222  28.854  0.00  0.00     0.271 S 
ATOM      7  O   UNL d   1      59.251  -0.864  28.465  0.00  0.00    -0.200 OA
ATOM      8  O   UNL d   1      60.523  -1.570  29.244  0.00  0.00    -0.200 OA
BRANCH   6   9
ATOM      9  C   UNL d   1      59.514  -1.952  28.794  0.00  0.00     0.104 A 
ATOM     10  C   UNL d   1      58.735  -1.996  28.524  0.00  0.00     0.013 A 
ATOM     11  C   UNL d   1      58.359  -2.728  28.463  0.00  0.00     0.001 A 
ATOM     12  C   UNL d   1      58.766  -3.418  28.674  0.00  0.00     0.000 A 
ATOM     13  C   UNL d   1      59.546  -3.371  28.944  0.00  0.00     0.001 A 
ATOM     14  C   UNL d   1      58.390  -4.150  28.612  0.00  0.00     0.000 C 
ATOM     15  C   UNL d   1      59.919  -2.637  29.004  0.00  0.00     0.013 A 
ENDBRANCH   6   9
ENDBRANCH   1   6
BRANCH   2  16
ATOM     16  C   UNL d   1      59.485  -0.050  30.084  0.00  0.00     0.298 C 
ATOM     17  N   UNL d   1      58.878   0.513  30.106  0.00  0.00    -0.181 NA
ATOM     18  O   UNL d   1      59.489  -0.687  30.603  0.00  0.00    -0.264 OA
BRANCH  17  19
ATOM     19  C   UNL d   1      58.271   0.428  30.660  0.00  0.00     0.197 A 
ATOM     20  N   UNL d   1      57.508   0.157  30.493  0.00  0.00    -0.219 NA
ATOM     21  C   UNL d   1      57.087   0.159  31.200  0.00  0.00     0.108 A 
ATOM     22  C   UNL d   1      57.580   0.428  31.800  0.00  0.00     0.059 A 
ATOM     23  S   UNL d   1      58.318   0.596  31.463  0.00  0.00    -0.046 SA
ENDBRANCH  17  19
ENDBRANCH   2  16
TORSDOF 4
ENDMDL
MODEL 3
REMARK VINA RESULT:      -1.8      0.885      1.021
REMARK  4 active torsions:
REMARK  status: ('A' for Active; 'I' for Inactive)
REMARK    1  A    between atoms: N_2  and  S_1 
REMARK    2  A    between atoms: C_8  and  S_1 
REMARK    3  A    between atoms: C_4  and  C_3 
REMARK       I    between atoms: N_5  and  C_4 
REMARK    4  A    between atoms: C_6  and  N_5 
ROOT
ATOM      1  N   UNL d   1      59.174   0.059  29.812  0.00  0.00    -0.226 N 
ATOM      2  C   UNL d   1      59.393  -0.495  29.237  0.00  0.00     0.133 A 
ATOM      3  C   UNL d   1      59.714   0.680  29.791  0.00  0.00     0.092 A 
ATOM      4  C   UNL d   1      60.072  -0.213  28.861  0.00  0.00     0.025 A 
ATOM      5  C   UNL d   1      60.266   0.511  29.206  0.00  0.00     0.021 A 
ENDROOT
BRANCH   1   6
ATOM      6  S   UNL d   1      58.510  -0.061  30.289  0.00  0.00     0.271 S 
ATOM      7  O   UNL d   1      57.981   0.159  29.695  0.00  0.00    -0.200 OA
ATOM      8  O   UNL d   1      59.047  -0.279  30.876  0.00  0.00    -0.200 OA
BRANCH   6   9
ATOM      9  C   UNL d   1      57.883  -0.195  30.803  0.00  0.00     0.104 A 
ATOM     10  C   UNL d   1      57.366   0.421  30.987  0.00  0.00     0.013 A 
ATOM     11  C   UNL d   1      56.735   0.290  31.503  0.00  0.00     0.001 A 
ATOM     12  C   UNL d   1      56.623  -0.461  31.834  0.00  0.00     0.000 A 
ATOM     13  C   UNL d   1      57.144  -1.076  31.647  0.00  0.00     0.001 A 
ATOM     14  C   UNL d   1      55.992  -0.591  32.350  0.00  0.00     0.000 C 
ATOM     15  C   UNL d   1      57.773  -0.941  31.131  0.00  0.00     0.013 A 
ENDBRANCH   6   9
ENDBRANCH   1   6
BRANCH   2  16
ATOM     16  C   UNL d   1      59.002  -1.207  29.068  0.00  0.00     0.298 C 
ATOM     17  N   UNL d   1      59.429  -1.917  29.079  0.00  0.00    -0.181 NA
ATOM     18  O   UNL d   1      58.200  -1.200  28.893  0.00  0.00    -0.264 OA
BRANCH  17  19
ATOM     19  C   UNL d   1      59.038  -2.624  28.910  0.00  0.00     0.197 A 
ATOM     20  N   UNL d   1      58.319  -2.687  28.506  0.00  0.00    -0.219 NA
ATOM     21  C   UNL d   1      58.132  -3.487  28.461  0.00  0.00     0.108 A 
ATOM     22  C   UNL d   1      58.725  -3.918  28.831  0.00  0.00     0.059 A 
ATOM     23  S   UNL d   1      59.291  -3.380  29.111  0.00  0.00    -0.046 SA
ENDBRANCH  17  19
ENDBRANCH   2  16
TORSDOF 4
ENDMDL
