MODEL 1
REMARK VINA RESULT:      -6.3      0.000      0.000
REMARK  3 active torsions:
REMARK  status: ('A' for Active; 'I' for Inactive)
REMARK    1  A    between atoms: C_2  and  C_1 
REMARK    2  A    between atoms: C_14  and  O_17 
REMARK    3  A    between atoms: O_17  and  C_16 
ROOT
ATOM      1  C   UNL d   1     -41.563-123.147 -50.713  0.00  0.00     0.087 A 
ATOM      2  C   UNL d   1     -41.717-122.462 -51.153  0.00  0.00     0.201 A 
ATOM      3  C   UNL d   1     -41.587-122.437 -51.967  0.00  0.00     0.062 A 
ATOM      4  C   UNL d   1     -41.274-123.817 -51.104  0.00  0.00     0.128 A 
ATOM      5  C   UNL d   1     -41.296-123.111 -52.361  0.00  0.00     0.105 A 
ATOM      6  O   UNL d   1     -41.139-123.799 -51.933  0.00  0.00    -0.305 OA
ATOM      7  C   UNL d   1     -41.166-123.086 -53.175  0.00  0.00     0.050 A 
ATOM      8  C   UNL d   1     -41.738-121.759 -52.406  0.00  0.00     0.007 A 
ATOM      9  O   UNL d   1     -42.006-121.785 -50.774  0.00  0.00    -0.286 OA
ATOM     10  C   UNL d   1     -41.323-122.403 -53.595  0.00  0.00     0.105 A 
ATOM     11  C   UNL d   1     -41.614-121.729 -53.201  0.00  0.00     0.025 A 
ENDROOT
BRANCH   1  12
ATOM     12  C   UNL d   1     -41.693-123.168 -49.906  0.00  0.00     0.116 A 
ATOM     13  N   UNL d   1     -41.123-123.052 -49.320  0.00  0.00    -0.238 NA
ATOM     14  C   UNL d   1     -41.501-123.123 -48.590  0.00  0.00     0.088 A 
ATOM     15  C   UNL d   1     -41.216-123.062 -47.824  0.00  0.00     0.020 A 
ATOM     16  C   UNL d   1     -42.295-123.281 -48.720  0.00  0.00     0.049 A 
ATOM     17  C   UNL d   1     -41.721-123.158 -47.175  0.00  0.00     0.002 A 
ATOM     18  C   UNL d   1     -42.526-123.319 -47.317  0.00  0.00     0.001 A 
ATOM     19  C   UNL d   1     -42.810-123.380 -48.083  0.00  0.00     0.008 A 
ATOM     20  S   UNL d   1     -42.432-123.313 -49.542  0.00  0.00    -0.066 SA
ENDBRANCH   1  12
BRANCH  10  21
ATOM     21  O   UNL d   1     -41.188-122.389 -54.416  0.00  0.00    -0.273 OA
BRANCH  21  22
ATOM     22  C   UNL d   1     -41.819-122.384 -54.944  0.00  0.00     0.300 C 
ATOM     23  O   UNL d   1     -42.335-123.027 -54.989  0.00  0.00    -0.259 OA
ATOM     24  C   UNL d   1     -41.944-121.726 -55.442  0.00  0.00     0.074 C 
ENDBRANCH  21  22
ENDBRANCH  10  21
TORSDOF 3
ENDMDL
MODEL 2
REMARK VINA RESULT:      -5.6      1.644      5.161
REMARK  3 active torsions:
REMARK  status: ('A' for Active; 'I' for Inactive)
REMARK    1  A    between atoms: C_2  and  C_1 
REMARK    2  A    between atoms: C_14  and  O_17 
REMARK    3  A    between atoms: O_17  and  C_16 
ROOT
ATOM      1  C   UNL d   1     -41.514-122.336 -52.025  0.00  0.00     0.087 A 
ATOM      2  C   UNL d   1     -41.576-123.049 -51.606  0.00  0.00     0.201 A 
ATOM      3  C   UNL d   1     -41.469-123.077 -50.788  0.00  0.00     0.062 A 
ATOM      4  C   UNL d   1     -41.341-121.642 -51.608  0.00  0.00     0.128 A 
ATOM      5  C   UNL d   1     -41.295-122.378 -50.369  0.00  0.00     0.105 A 
ATOM      6  O   UNL d   1     -41.231-121.663 -50.775  0.00  0.00    -0.305 OA
ATOM      7  C   UNL d   1     -41.188-122.407 -49.552  0.00  0.00     0.050 A 
ATOM      8  C   UNL d   1     -41.531-123.783 -50.371  0.00  0.00     0.007 A 
ATOM      9  O   UNL d   1     -41.749-123.751 -52.010  0.00  0.00    -0.286 OA
ATOM     10  C   UNL d   1     -41.253-123.117 -49.154  0.00  0.00     0.105 A 
ATOM     11  C   UNL d   1     -41.427-123.816 -49.573  0.00  0.00     0.025 A 
ENDROOT
BRANCH   1  12
ATOM     12  C   UNL d   1     -41.620-122.312 -52.834  0.00  0.00     0.116 A 
ATOM     13  N   UNL d   1     -42.173-121.849 -53.237  0.00  0.00    -0.238 NA
ATOM     14  C   UNL d   1     -42.083-122.002 -54.043  0.00  0.00     0.088 A 
ATOM     15  C   UNL d   1     -42.475-121.706 -54.698  0.00  0.00     0.020 A 
ATOM     16  C   UNL d   1     -41.483-122.553 -54.141  0.00  0.00     0.049 A 
ATOM     17  C   UNL d   1     -42.274-121.955 -55.462  0.00  0.00     0.002 A 
ATOM     18  C   UNL d   1     -41.664-122.514 -55.551  0.00  0.00     0.001 A 
ATOM     19  C   UNL d   1     -41.271-122.811 -54.896  0.00  0.00     0.008 A 
ATOM     20  S   UNL d   1     -41.182-122.758 -53.390  0.00  0.00    -0.066 SA
ENDBRANCH   1  12
BRANCH  10  21
ATOM     21  O   UNL d   1     -41.143-123.133 -48.329  0.00  0.00    -0.273 OA
BRANCH  21  22
ATOM     22  C   UNL d   1     -41.783-123.240 -47.823  0.00  0.00     0.300 C 
ATOM     23  O   UNL d   1     -42.361-123.806 -47.990  0.00  0.00    -0.259 OA
ATOM     24  C   UNL d   1     -41.855-122.777 -47.133  0.00  0.00     0.074 C 
ENDBRANCH  21  22
ENDBRANCH  10  21
TORSDOF 3
ENDMDL
