MODEL 1
REMARK VINA RESULT:      48.7      0.000      0.000
REMARK  4 active torsions:
REMARK  status: ('A' for Active; 'I' for Inactive)
REMARK    1  A    between atoms: C_16  and  C_4 
REMARK    2  A    between atoms: C_8  and  S_14 
REMARK    3  A    between atoms: C_18  and  C_9 
REMARK    4  A    between atoms: S_14  and  C_16 
ROOT
ATOM      1  N   UNL d   1     -50.493  26.023  33.436  0.00  0.00    -0.218 NA
ATOM      2  C   UNL d   1     -50.392  26.848  33.456  0.00  0.00     0.215 A 
ATOM      3  C   UNL d   1     -51.222  25.692  33.363  0.00  0.00     0.104 A 
ATOM      4  N   UNL d   1     -51.055  27.343  33.399  0.00  0.00    -0.121 NA
ATOM      5  N   UNL d   1     -51.809  27.006  33.324  0.00  0.00    -0.143 NA
ATOM      6  C   UNL d   1     -51.896  26.198  33.306  0.00  0.00     0.141 A 
ENDROOT
BRANCH   2   7
ATOM      7  S   UNL d   1     -49.647  27.173  33.531  0.00  0.00    -0.045 SA
BRANCH   7   8
ATOM      8  C   UNL d   1     -49.279  27.165  34.260  0.00  0.00     0.060 C 
BRANCH   8   9
ATOM      9  C   UNL d   1     -48.892  27.861  34.549  0.00  0.00     0.124 A 
ATOM     10  N   UNL d   1     -48.735  28.531  34.145  0.00  0.00    -0.059 NA
ATOM     11  C   UNL d   1     -48.353  29.054  34.650  0.00  0.00     0.735 A 
ATOM     12  N   UNL d   1     -48.283  28.676  35.379  0.00  0.00    -0.136 N 
ATOM     13  N   UNL d   1     -48.057  29.822  34.553  0.00  0.00    -0.059 NA
ATOM     14  C   UNL d   1     -48.620  27.933  35.312  0.00  0.00     0.118 A 
ATOM     15  C   UNL d   1     -47.921  29.058  36.009  0.00  0.00     0.100 A 
ATOM     16  C   UNL d   1     -47.626  29.826  35.912  0.00  0.00     0.041 A 
ATOM     17  C   UNL d   1     -47.693  30.209  35.187  0.00  0.00     0.119 A 
ENDBRANCH   8   9
ENDBRANCH   7   8
ENDBRANCH   2   7
BRANCH   3  18
ATOM     18  C   UNL d   1     -51.318  24.860  33.344  0.00  0.00     0.019 A 
ATOM     19  C   UNL d   1     -50.646  24.391  33.342  0.00  0.00     0.002 A 
ATOM     20  C   UNL d   1     -50.742  23.559  33.323  0.00  0.00     0.000 A 
ATOM     21  C   UNL d   1     -51.498  23.230  33.306  0.00  0.00     0.000 A 
ATOM     22  C   UNL d   1     -52.164  23.733  33.309  0.00  0.00     0.000 A 
ATOM     23  C   UNL d   1     -52.058  24.543  33.328  0.00  0.00     0.002 A 
ENDBRANCH   3  18
TORSDOF 4
ENDMDL
