MODEL 1
REMARK VINA RESULT:      22.8      0.000      0.000
REMARK  2 active torsions:
REMARK  status: ('A' for Active; 'I' for Inactive)
REMARK    1  A    between atoms: C_6  and  C_1 
REMARK    2  A    between atoms: C_10  and  C_6 
ROOT
ATOM      1  C   UNL d   1      13.719  12.113  -2.379  0.00  0.00     0.139 A 
ATOM      2  C   UNL d   1      14.091  12.425  -1.133  0.00  0.00     0.064 A 
ATOM      3  C   UNL d   1      13.488  12.090  -1.588  0.00  0.00     0.220 A 
ATOM      4  C   UNL d   1      14.695  12.656  -1.643  0.00  0.00     0.106 A 
ATOM      5  O   UNL d   1      14.462  12.462  -2.410  0.00  0.00    -0.304 OA
ATOM      6  C   UNL d   1      15.377  13.010  -1.355  0.00  0.00     0.067 A 
ATOM      7  C   UNL d   1      14.166  12.548  -0.323  0.00  0.00     0.009 A 
ATOM      8  O   UNL d   1      12.773  11.782  -1.305  0.00  0.00    -0.284 OA
ATOM      9  C   UNL d   1      15.455  13.135  -0.548  0.00  0.00     0.198 A 
ATOM     10  C   UNL d   1      14.852  12.905  -0.029  0.00  0.00     0.042 A 
ATOM     11  O   UNL d   1      16.147  13.495  -0.250  0.00  0.00    -0.286 OA
ENDROOT
BRANCH   1  12
ATOM     12  C   UNL d   1      13.282  11.837  -3.021  0.00  0.00     0.028 C 
BRANCH  12  13
ATOM     13  C   UNL d   1      13.240  12.292  -3.718  0.00  0.00     0.002 A 
ATOM     14  C   UNL d   1      13.537  11.987  -4.423  0.00  0.00     0.001 A 
ATOM     15  C   UNL d   1      13.498  12.432  -5.113  0.00  0.00     0.007 A 
ATOM     16  C   UNL d   1      13.159  13.189  -5.103  0.00  0.00     0.035 A 
ATOM     17  C   UNL d   1      12.860  13.496  -4.394  0.00  0.00     0.007 A 
ATOM     18 BR   UNL d   1      13.115  13.642  -5.785  0.00  0.00    -0.049 Br
ATOM     19  C   UNL d   1      12.902  13.044  -3.699  0.00  0.00     0.001 A 
ENDBRANCH  12  13
ENDBRANCH   1  12
TORSDOF 2
ENDMDL
