MODEL 1
REMARK VINA RESULT:      -7.3      0.000      0.000
REMARK  5 active torsions:
REMARK  status: ('A' for Active; 'I' for Inactive)
REMARK    1  A    between atoms: C_6  and  C_1 
REMARK    2  A    between atoms: C_7  and  C_5 
REMARK       I    between atoms: N_13  and  C_6 
REMARK    3  A    between atoms: C_8  and  C_12 
REMARK    4  A    between atoms: N_9  and  N_13 
REMARK    5  A    between atoms: C_12  and  N_9 
ROOT
ATOM      1  C   UNL d   1     -44.715  12.746  22.260  0.00  0.00     0.164 A 
ATOM      2  C   UNL d   1     -45.214  13.250  21.833  0.00  0.00     0.047 A 
ATOM      3  N   UNL d   1     -45.777  12.467  23.166  0.00  0.00    -0.148 NA
ATOM      4  N   UNL d   1     -44.993  12.354  22.926  0.00  0.00    -0.143 NA
ATOM      5  C   UNL d   1     -46.276  12.972  22.738  0.00  0.00     0.105 A 
ENDROOT
BRANCH   1   6
ATOM      6  C   UNL d   1     -43.933  12.639  22.012  0.00  0.00     0.316 C 
ATOM      7  N   UNL d   1     -43.369  13.346  21.644  0.00  0.00    -0.104 NA
ATOM      8  O   UNL d   1     -43.588  11.888  22.073  0.00  0.00    -0.262 OA
BRANCH   7   9
ATOM      9  N   UNL d   1     -42.414  13.344  21.310  0.00  0.00    -0.143 NA
BRANCH   9  10
ATOM     10  C   UNL d   1     -42.102  14.018  20.866  0.00  0.00     0.129 C 
BRANCH  10  11
ATOM     11  C   UNL d   1     -41.265  14.242  20.945  0.00  0.00     0.050 A 
ATOM     12  S   UNL d   1     -41.050  14.957  20.815  0.00  0.00    -0.085 SA
ATOM     13  C   UNL d   1     -40.318  15.152  20.884  0.00  0.00     0.035 A 
ATOM     14  C   UNL d   1     -39.800  14.633  21.083  0.00  0.00     0.007 A 
ATOM     15  C   UNL d   1     -40.747  13.722  21.144  0.00  0.00     0.009 A 
ENDBRANCH  10  11
ENDBRANCH   9  10
ENDBRANCH   7   9
ENDBRANCH   1   6
BRANCH   5  16
ATOM     16  C   UNL d   1     -47.061  13.213  22.807  0.00  0.00     0.019 A 
ATOM     17  C   UNL d   1     -47.257  14.003  22.676  0.00  0.00     0.002 A 
ATOM     18  C   UNL d   1     -48.045  14.248  22.744  0.00  0.00     0.000 A 
ATOM     19  C   UNL d   1     -48.245  15.036  22.614  0.00  0.00     0.000 A 
ATOM     20  C   UNL d   1     -48.634  13.696  22.945  0.00  0.00     0.000 A 
ATOM     21  C   UNL d   1     -49.027  15.280  22.682  0.00  0.00     0.000 A 
ATOM     22  C   UNL d   1     -49.619  14.735  22.882  0.00  0.00     0.000 A 
ATOM     23  C   UNL d   1     -49.423  13.945  23.013  0.00  0.00     0.000 A 
ATOM     24  C   UNL d   1     -48.428  12.917  23.073  0.00  0.00     0.000 A 
ATOM     25  C   UNL d   1     -47.642  12.676  23.004  0.00  0.00     0.002 A 
ENDBRANCH   5  16
TORSDOF 5
ENDMDL
MODEL 2
REMARK VINA RESULT:      -6.9      0.675      1.091
REMARK  5 active torsions:
REMARK  status: ('A' for Active; 'I' for Inactive)
REMARK    1  A    between atoms: C_6  and  C_1 
REMARK    2  A    between atoms: C_7  and  C_5 
REMARK       I    between atoms: N_13  and  C_6 
REMARK    3  A    between atoms: C_8  and  C_12 
REMARK    4  A    between atoms: N_9  and  N_13 
REMARK    5  A    between atoms: C_12  and  N_9 
ROOT
ATOM      1  C   UNL d   1     -44.319  12.856  21.971  0.00  0.00     0.164 A 
ATOM      2  C   UNL d   1     -44.751  13.504  21.690  0.00  0.00     0.047 A 
ATOM      3  N   UNL d   1     -45.457  12.420  22.707  0.00  0.00    -0.148 NA
ATOM      4  N   UNL d   1     -44.668  12.313  22.479  0.00  0.00    -0.143 NA
ATOM      5  C   UNL d   1     -45.889  13.068  22.426  0.00  0.00     0.105 A 
ENDROOT
BRANCH   1   6
ATOM      6  C   UNL d   1     -43.531  12.758  21.738  0.00  0.00     0.316 C 
ATOM      7  N   UNL d   1     -42.946  13.485  21.453  0.00  0.00    -0.104 NA
ATOM      8  O   UNL d   1     -43.201  11.999  21.739  0.00  0.00    -0.262 OA
BRANCH   7   9
ATOM      9  N   UNL d   1     -41.981  13.497  21.149  0.00  0.00    -0.143 NA
BRANCH   9  10
ATOM     10  C   UNL d   1     -41.587  14.245  20.964  0.00  0.00     0.129 C 
BRANCH  10  11
ATOM     11  C   UNL d   1     -40.735  14.255  20.783  0.00  0.00     0.050 A 
ATOM     12  S   UNL d   1     -40.501  14.363  20.070  0.00  0.00    -0.085 SA
ATOM     13  C   UNL d   1     -39.757  14.372  19.912  0.00  0.00     0.035 A 
ATOM     14  C   UNL d   1     -39.247  14.274  20.467  0.00  0.00     0.007 A 
ATOM     15  C   UNL d   1     -40.226  14.157  21.338  0.00  0.00     0.009 A 
ENDBRANCH  10  11
ENDBRANCH   9  10
ENDBRANCH   7   9
ENDBRANCH   1   6
BRANCH   5  16
ATOM     16  C   UNL d   1     -46.658  13.346  22.528  0.00  0.00     0.019 A 
ATOM     17  C   UNL d   1     -47.296  12.859  22.339  0.00  0.00     0.002 A 
ATOM     18  C   UNL d   1     -48.070  13.135  22.441  0.00  0.00     0.000 A 
ATOM     19  C   UNL d   1     -48.709  12.652  22.253  0.00  0.00     0.000 A 
ATOM     20  C   UNL d   1     -48.199  13.903  22.733  0.00  0.00     0.000 A 
ATOM     21  C   UNL d   1     -49.477  12.926  22.354  0.00  0.00     0.000 A 
ATOM     22  C   UNL d   1     -49.614  13.690  22.645  0.00  0.00     0.000 A 
ATOM     23  C   UNL d   1     -48.976  14.178  22.834  0.00  0.00     0.000 A 
ATOM     24  C   UNL d   1     -47.560  14.377  22.917  0.00  0.00     0.000 A 
ATOM     25  C   UNL d   1     -46.790  14.098  22.814  0.00  0.00     0.002 A 
ENDBRANCH   5  16
TORSDOF 5
ENDMDL
MODEL 3
REMARK VINA RESULT:      -6.5      2.049      7.034
REMARK  5 active torsions:
REMARK  status: ('A' for Active; 'I' for Inactive)
REMARK    1  A    between atoms: C_6  and  C_1 
REMARK    2  A    between atoms: C_7  and  C_5 
REMARK       I    between atoms: N_13  and  C_6 
REMARK    3  A    between atoms: C_8  and  C_12 
REMARK    4  A    between atoms: N_9  and  N_13 
REMARK    5  A    between atoms: C_12  and  N_9 
ROOT
ATOM      1  C   UNL d   1     -42.630  13.221  21.279  0.00  0.00     0.164 A 
ATOM      2  C   UNL d   1     -42.666  13.411  20.473  0.00  0.00     0.047 A 
ATOM      3  N   UNL d   1     -41.349  13.836  21.363  0.00  0.00    -0.148 NA
ATOM      4  N   UNL d   1     -41.974  13.431  21.726  0.00  0.00    -0.143 NA
ATOM      5  C   UNL d   1     -41.385  14.025  20.558  0.00  0.00     0.105 A 
ENDROOT
BRANCH   1   6
ATOM      6  C   UNL d   1     -43.260  12.817  21.631  0.00  0.00     0.316 C 
ATOM      7  N   UNL d   1     -44.127  13.216  21.834  0.00  0.00    -0.104 NA
ATOM      8  O   UNL d   1     -43.166  12.019  21.832  0.00  0.00    -0.262 OA
BRANCH   7   9
ATOM      9  N   UNL d   1     -44.964  12.836  22.256  0.00  0.00    -0.143 NA
BRANCH   9  10
ATOM     10  C   UNL d   1     -45.640  13.347  22.428  0.00  0.00     0.129 C 
BRANCH  10  11
ATOM     11  C   UNL d   1     -46.367  13.008  22.769  0.00  0.00     0.050 A 
ATOM     12  S   UNL d   1     -47.043  13.299  22.584  0.00  0.00    -0.085 SA
ATOM     13  C   UNL d   1     -47.677  13.002  22.882  0.00  0.00     0.035 A 
ATOM     14  C   UNL d   1     -47.636  12.416  23.363  0.00  0.00     0.007 A 
ATOM     15  C   UNL d   1     -46.326  12.422  23.250  0.00  0.00     0.009 A 
ENDBRANCH  10  11
ENDBRANCH   9  10
ENDBRANCH   7   9
ENDBRANCH   1   6
BRANCH   5  16
ATOM     16  C   UNL d   1     -40.886  14.410  20.025  0.00  0.00     0.019 A 
ATOM     17  C   UNL d   1     -40.766  14.089  19.276  0.00  0.00     0.002 A 
ATOM     18  C   UNL d   1     -40.266  14.473  18.739  0.00  0.00     0.000 A 
ATOM     19  C   UNL d   1     -40.143  14.156  17.989  0.00  0.00     0.000 A 
ATOM     20  C   UNL d   1     -39.889  15.181  18.959  0.00  0.00     0.000 A 
ATOM     21  C   UNL d   1     -39.648  14.537  17.456  0.00  0.00     0.000 A 
ATOM     22  C   UNL d   1     -39.268  15.243  17.669  0.00  0.00     0.000 A 
ATOM     23  C   UNL d   1     -39.388  15.564  18.418  0.00  0.00     0.000 A 
ATOM     24  C   UNL d   1     -40.016  15.490  19.704  0.00  0.00     0.000 A 
ATOM     25  C   UNL d   1     -40.515  15.104  20.237  0.00  0.00     0.002 A 
ENDBRANCH   5  16
TORSDOF 5
ENDMDL
MODEL 4
REMARK VINA RESULT:      -5.0      2.117      6.516
REMARK  5 active torsions:
REMARK  status: ('A' for Active; 'I' for Inactive)
REMARK    1  A    between atoms: C_6  and  C_1 
REMARK    2  A    between atoms: C_7  and  C_5 
REMARK       I    between atoms: N_13  and  C_6 
REMARK    3  A    between atoms: C_8  and  C_12 
REMARK    4  A    between atoms: N_9  and  N_13 
REMARK    5  A    between atoms: C_12  and  N_9 
ROOT
ATOM      1  C   UNL d   1     -44.716  13.020  22.095  0.00  0.00     0.164 A 
ATOM      2  C   UNL d   1     -44.386  13.779  22.111  0.00  0.00     0.047 A 
ATOM      3  N   UNL d   1     -43.539  12.525  21.467  0.00  0.00    -0.148 NA
ATOM      4  N   UNL d   1     -44.296  12.392  21.774  0.00  0.00    -0.143 NA
ATOM      5  C   UNL d   1     -43.209  13.285  21.483  0.00  0.00     0.105 A 
ENDROOT
BRANCH   1   6
ATOM      6  C   UNL d   1     -45.474  12.897  22.404  0.00  0.00     0.316 C 
ATOM      7  N   UNL d   1     -46.302  13.143  21.950  0.00  0.00    -0.104 NA
ATOM      8  O   UNL d   1     -45.554  12.543  23.149  0.00  0.00    -0.262 OA
BRANCH   7   9
ATOM      9  N   UNL d   1     -47.273  13.049  22.217  0.00  0.00    -0.143 NA
BRANCH   9  10
ATOM     10  C   UNL d   1     -47.899  13.101  21.622  0.00  0.00     0.129 C 
BRANCH  10  11
ATOM     11  C   UNL d   1     -48.729  12.964  21.850  0.00  0.00     0.050 A 
ATOM     12  S   UNL d   1     -49.237  12.761  21.326  0.00  0.00    -0.085 SA
ATOM     13  C   UNL d   1     -49.961  12.642  21.525  0.00  0.00     0.035 A 
ATOM     14  C   UNL d   1     -50.178  12.725  22.249  0.00  0.00     0.007 A 
ATOM     15  C   UNL d   1     -48.945  13.047  22.574  0.00  0.00     0.009 A 
ENDBRANCH  10  11
ENDBRANCH   9  10
ENDBRANCH   7   9
ENDBRANCH   1   6
BRANCH   5  16
ATOM     16  C   UNL d   1     -42.495  13.617  21.238  0.00  0.00     0.019 A 
ATOM     17  C   UNL d   1     -42.440  14.433  21.136  0.00  0.00     0.002 A 
ATOM     18  C   UNL d   1     -41.725  14.771  20.890  0.00  0.00     0.000 A 
ATOM     19  C   UNL d   1     -41.666  15.585  20.787  0.00  0.00     0.000 A 
ATOM     20  C   UNL d   1     -41.066  14.283  20.747  0.00  0.00     0.000 A 
ATOM     21  C   UNL d   1     -40.957  15.920  20.543  0.00  0.00     0.000 A 
ATOM     22  C   UNL d   1     -40.295  15.440  20.399  0.00  0.00     0.000 A 
ATOM     23  C   UNL d   1     -40.350  14.624  20.500  0.00  0.00     0.000 A 
ATOM     24  C   UNL d   1     -41.132  13.476  20.851  0.00  0.00     0.000 A 
ATOM     25  C   UNL d   1     -41.847  13.144  21.097  0.00  0.00     0.002 A 
ENDBRANCH   5  16
TORSDOF 5
ENDMDL
