MODEL 1
REMARK VINA RESULT:      12.1      0.000      0.000
REMARK  2 active torsions:
REMARK  status: ('A' for Active; 'I' for Inactive)
REMARK    1  A    between atoms: C_3  and  C_4 
REMARK       I    between atoms: N_7  and  C_3 
REMARK    2  A    between atoms: C_11  and  N_7 
ROOT
ATOM      1  C   UNL d   1      46.187 -19.090  44.271  0.00  0.00     0.300 A 
ATOM      2  O   UNL d   1      46.114 -18.305  44.537  0.00  0.00    -0.268 OA
ATOM      3  C   UNL d   1      46.195 -17.676  43.995  0.00  0.00     0.161 A 
ATOM      4  C   UNL d   1      46.341 -19.251  43.474  0.00  0.00     0.064 A 
ATOM      5  C   UNL d   1      46.421 -18.617  42.938  0.00  0.00     0.007 A 
ATOM      6  C   UNL d   1      46.350 -17.835  43.195  0.00  0.00     0.030 A 
ATOM      7  O   UNL d   1      46.106 -19.710  44.806  0.00  0.00    -0.259 OA
ATOM      8  C   UNL d   1      46.575 -18.778  42.140  0.00  0.00     0.000 A 
ATOM      9  C   UNL d   1      46.413 -20.025  43.215  0.00  0.00     0.005 A 
ATOM     10  C   UNL d   1      46.646 -19.561  41.889  0.00  0.00     0.000 A 
ATOM     11  C   UNL d   1      46.565 -20.181  42.423  0.00  0.00     0.000 A 
ENDROOT
BRANCH   3  12
ATOM     12  C   UNL d   1      46.122 -16.903  44.260  0.00  0.00     0.302 C 
ATOM     13  N   UNL d   1      45.667 -16.362  43.844  0.00  0.00    -0.206 NA
ATOM     14  O   UNL d   1      46.510 -16.672  44.948  0.00  0.00    -0.263 OA
BRANCH  13  15
ATOM     15  C   UNL d   1      45.599 -15.591  44.116  0.00  0.00     0.085 A 
ATOM     16  C   UNL d   1      46.119 -15.011  43.864  0.00  0.00     0.019 A 
ATOM     17  C   UNL d   1      46.055 -14.246  44.132  0.00  0.00     0.002 A 
ATOM     18  C   UNL d   1      45.454 -14.043  44.670  0.00  0.00     0.000 A 
ATOM     19  C   UNL d   1      44.929 -14.622  44.925  0.00  0.00     0.002 A 
ATOM     20  C   UNL d   1      45.387 -13.274  44.940  0.00  0.00     0.000 C 
ATOM     21  C   UNL d   1      44.996 -15.404  44.651  0.00  0.00     0.019 A 
ENDBRANCH  13  15
ENDBRANCH   3  12
TORSDOF 2
ENDMDL
