MODEL 1
REMARK VINA RESULT:      74.2      0.000      0.000
REMARK  4 active torsions:
REMARK  status: ('A' for Active; 'I' for Inactive)
REMARK    1  A    between atoms: C_9  and  C_3 
REMARK    2  A    between atoms: C_11  and  C_7 
REMARK    3  A    between atoms: O_22  and  C_16 
REMARK    4  A    between atoms: O_23  and  C_17 
ROOT
ATOM      1  N   UNL d   1     -52.963  23.924  34.590  0.00  0.00    -0.186 N 
ATOM      2  N   UNL d   1     -52.791  24.227  35.346  0.00  0.00    -0.162 NA
ATOM      3  C   UNL d   1     -52.620  24.037  33.863  0.00  0.00     0.187 A 
ATOM      4  C   UNL d   1     -53.593  23.402  34.494  0.00  0.00     0.217 A 
ATOM      5  N   UNL d   1     -53.023  23.596  33.310  0.00  0.00    -0.127 NA
ATOM      6  N   UNL d   1     -53.620  23.204  33.692  0.00  0.00    -0.120 NA
ATOM      7  C   UNL d   1     -53.248  24.005  35.992  0.00  0.00     0.108 A 
ATOM      8  S   UNL d   1     -54.041  23.189  35.150  0.00  0.00    -0.045 SA
ATOM      9  C   UNL d   1     -53.881  23.481  35.902  0.00  0.00     0.059 A 
ENDROOT
BRANCH   3  10
ATOM     10  C   UNL d   1     -51.967  24.529  33.734  0.00  0.00     0.038 A 
ATOM     11  C   UNL d   1     -52.077  25.332  33.655  0.00  0.00     0.005 A 
ATOM     12  C   UNL d   1     -51.423  25.824  33.526  0.00  0.00     0.024 A 
ATOM     13  C   UNL d   1     -50.670  25.491  33.480  0.00  0.00     0.094 A 
ATOM     14  C   UNL d   1     -50.561  24.683  33.560  0.00  0.00     0.024 A 
ATOM     15  C   UNL d   1     -51.213  24.200  33.688  0.00  0.00     0.005 A 
BRANCH  13  16
ATOM     16  O   UNL d   1     -49.998  25.967  33.351  0.00  0.00    -0.328 OA
ATOM     17  C   UNL d   1     -50.074  26.803  33.307  0.00  0.00     0.181 C 
ENDBRANCH  13  16
ENDBRANCH   3  10
BRANCH   7  18
ATOM     18  C   UNL d   1     -53.074  24.306  36.737  0.00  0.00     0.020 A 
ATOM     19  C   UNL d   1     -52.896  25.107  36.831  0.00  0.00     0.004 A 
ATOM     20  C   UNL d   1     -52.720  25.422  37.573  0.00  0.00     0.024 A 
ATOM     21  C   UNL d   1     -52.723  24.919  38.241  0.00  0.00     0.094 A 
ATOM     22  C   UNL d   1     -52.897  24.132  38.157  0.00  0.00     0.024 A 
ATOM     23  C   UNL d   1     -53.075  23.816  37.402  0.00  0.00     0.004 A 
BRANCH  21  24
ATOM     24  O   UNL d   1     -52.547  25.233  38.987  0.00  0.00    -0.328 OA
ATOM     25  C   UNL d   1     -52.665  24.772  39.668  0.00  0.00     0.181 C 
ENDBRANCH  21  24
ENDBRANCH   7  18
TORSDOF 4
ENDMDL
MODEL 2
REMARK VINA RESULT:      77.1      2.451      4.570
REMARK  4 active torsions:
REMARK  status: ('A' for Active; 'I' for Inactive)
REMARK    1  A    between atoms: C_9  and  C_3 
REMARK    2  A    between atoms: C_11  and  C_7 
REMARK    3  A    between atoms: O_22  and  C_16 
REMARK    4  A    between atoms: O_23  and  C_17 
ROOT
ATOM      1  N   UNL d   1     -50.562  26.552  34.847  0.00  0.00    -0.186 N 
ATOM      2  N   UNL d   1     -51.139  25.972  34.687  0.00  0.00    -0.162 NA
ATOM      3  C   UNL d   1     -50.344  26.934  35.529  0.00  0.00     0.187 A 
ATOM      4  C   UNL d   1     -50.087  26.833  34.236  0.00  0.00     0.217 A 
ATOM      5  N   UNL d   1     -49.739  27.452  35.359  0.00  0.00    -0.127 NA
ATOM      6  N   UNL d   1     -49.578  27.394  34.567  0.00  0.00    -0.120 NA
ATOM      7  C   UNL d   1     -51.231  25.685  33.923  0.00  0.00     0.108 A 
ATOM      8  S   UNL d   1     -50.191  26.536  33.477  0.00  0.00    -0.045 SA
ATOM      9  C   UNL d   1     -50.758  25.964  33.306  0.00  0.00     0.059 A 
ENDROOT
BRANCH   3  10
ATOM     10  C   UNL d   1     -50.697  26.798  36.266  0.00  0.00     0.038 A 
ATOM     11  C   UNL d   1     -51.465  27.037  36.394  0.00  0.00     0.005 A 
ATOM     12  C   UNL d   1     -51.818  26.901  37.130  0.00  0.00     0.024 A 
ATOM     13  C   UNL d   1     -51.385  26.526  37.723  0.00  0.00     0.094 A 
ATOM     14  C   UNL d   1     -50.613  26.287  37.594  0.00  0.00     0.024 A 
ATOM     15  C   UNL d   1     -50.267  26.424  36.860  0.00  0.00     0.005 A 
BRANCH  13  16
ATOM     16  O   UNL d   1     -51.721  26.379  38.472  0.00  0.00    -0.328 OA
ATOM     17  C   UNL d   1     -52.171  25.682  38.605  0.00  0.00     0.181 C 
ENDBRANCH  13  16
ENDBRANCH   3  10
BRANCH   7  18
ATOM     18  C   UNL d   1     -51.802  25.114  33.769  0.00  0.00     0.020 A 
ATOM     19  C   UNL d   1     -51.624  24.312  33.860  0.00  0.00     0.004 A 
ATOM     20  C   UNL d   1     -52.188  23.729  33.708  0.00  0.00     0.024 A 
ATOM     21  C   UNL d   1     -52.953  23.956  33.458  0.00  0.00     0.094 A 
ATOM     22  C   UNL d   1     -53.135  24.740  33.367  0.00  0.00     0.024 A 
ATOM     23  C   UNL d   1     -52.560  25.329  33.521  0.00  0.00     0.004 A 
BRANCH  21  24
ATOM     24  O   UNL d   1     -53.520  23.372  33.306  0.00  0.00    -0.328 OA
ATOM     25  C   UNL d   1     -54.089  23.188  33.883  0.00  0.00     0.181 C 
ENDBRANCH  21  24
ENDBRANCH   7  18
TORSDOF 4
ENDMDL
