MODEL 1
REMARK VINA RESULT:      72.0      0.000      0.000
REMARK  8 active torsions:
REMARK  status: ('A' for Active; 'I' for Inactive)
REMARK    1  A    between atoms: C_5  and  C_1 
REMARK    2  A    between atoms: N_6  and  C_2 
REMARK    3  A    between atoms: C_7  and  C_5 
REMARK    4  A    between atoms: C_8  and  C_5 
REMARK    5  A    between atoms: O_12  and  C_7 
REMARK    6  A    between atoms: C_14  and  O_12 
REMARK    7  A    between atoms: C_19  and  C_14 
REMARK    8  A    between atoms: C_20  and  C_19 
ROOT
ATOM      1  C   UNL d   1     -51.161  25.332  33.970  0.00  0.00     0.122 A 
ATOM      2  C   UNL d   1     -51.569  24.670  33.706  0.00  0.00     0.166 A 
ATOM      3  N   UNL d   1     -51.147  23.991  33.489  0.00  0.00    -0.225 NA
ATOM      4  N   UNL d   1     -50.336  25.324  34.021  0.00  0.00    -0.241 NA
ATOM      5  C   UNL d   1     -50.328  23.981  33.538  0.00  0.00     0.101 A 
ATOM      6  C   UNL d   1     -49.921  24.649  33.805  0.00  0.00     0.099 A 
ATOM      7  C   UNL d   1     -49.912  23.306  33.322  0.00  0.00     0.021 A 
ATOM      8  C   UNL d   1     -49.101  24.639  33.854  0.00  0.00     0.021 A 
ATOM      9  C   UNL d   1     -48.675  23.966  33.640  0.00  0.00     0.002 A 
ATOM     10  C   UNL d   1     -49.087  23.297  33.373  0.00  0.00     0.002 A 
ENDROOT
BRANCH   1  11
ATOM     11  C   UNL d   1     -51.580  26.019  34.190  0.00  0.00     0.105 C 
BRANCH  11  12
ATOM     12  C   UNL d   1     -51.282  26.517  34.773  0.00  0.00     0.303 C 
ATOM     13  O   UNL d   1     -50.697  27.066  34.590  0.00  0.00    -0.259 OA
BRANCH  12  14
ATOM     14  O   UNL d   1     -51.573  26.464  35.547  0.00  0.00    -0.271 OA
BRANCH  14  15
ATOM     15  C   UNL d   1     -51.441  26.496  36.354  0.00  0.00     0.126 C 
BRANCH  15  16
ATOM     16  C   UNL d   1     -52.048  26.319  36.873  0.00  0.00     0.025 C 
ATOM     17  C   UNL d   1     -52.746  26.744  36.838  0.00  0.00     0.002 C 
BRANCH  16  18
ATOM     18  C   UNL d   1     -51.953  25.714  37.425  0.00  0.00     0.002 C 
ATOM     19  C   UNL d   1     -52.109  25.854  38.223  0.00  0.00     0.000 C 
ENDBRANCH  16  18
ENDBRANCH  15  16
ENDBRANCH  14  15
ENDBRANCH  12  14
ENDBRANCH  11  12
BRANCH  11  20
ATOM     20  C   UNL d   1     -52.303  26.201  33.819  0.00  0.00     0.129 C 
ATOM     21  N   UNL d   1     -52.430  26.999  33.309  0.00  0.00    -0.146 N 
ENDBRANCH  11  20
ENDBRANCH   1  11
BRANCH   2  22
ATOM     22  N   UNL d   1     -52.396  24.676  33.654  0.00  0.00    -0.288 N 
ATOM     23  C   UNL d   1     -52.821  24.014  33.900  0.00  0.00     0.082 A 
ATOM     24  C   UNL d   1     -53.649  24.023  33.846  0.00  0.00     0.019 A 
ATOM     25  C   UNL d   1     -54.043  24.690  33.549  0.00  0.00     0.003 A 
ATOM     26  C   UNL d   1     -53.608  25.349  33.306  0.00  0.00     0.019 A 
ATOM     27  C   UNL d   1     -52.790  25.343  33.357  0.00  0.00     0.082 A 
ENDBRANCH   2  22
TORSDOF 8
ENDMDL
