MODEL 1
REMARK VINA RESULT:      -4.5      0.000      0.000
REMARK  6 active torsions:
REMARK  status: ('A' for Active; 'I' for Inactive)
REMARK    1  A    between atoms: C_2  and  S_1 
REMARK    2  A    between atoms: N_7  and  S_1 
REMARK    3  A    between atoms: C_15  and  N_7 
REMARK    4  A    between atoms: C_14  and  O_21 
REMARK    5  A    between atoms: C_24  and  C_15 
REMARK    6  A    between atoms: O_21  and  C_24 
ROOT
ATOM      1  S   UNL d   1      56.985  -0.566  31.452  0.00  0.00     0.285 S 
ATOM      2  O   UNL d   1      57.177   0.202  31.195  0.00  0.00    -0.198 OA
ATOM      3  O   UNL d   1      56.793  -1.327  31.707  0.00  0.00    -0.198 OA
ENDROOT
BRANCH   1   4
ATOM      4  C   UNL d   1      56.757  -0.252  32.194  0.00  0.00     0.107 A 
ATOM      5  C   UNL d   1      55.987  -0.332  32.457  0.00  0.00     0.040 A 
ATOM      6  C   UNL d   1      55.776  -0.021  33.183  0.00  0.00     0.123 A 
ATOM      7  O   UNL d   1      55.000  -0.100  33.452  0.00  0.00    -0.301 OA
ATOM      8  C   UNL d   1      56.336   0.370  33.647  0.00  0.00     0.123 A 
ATOM      9  C   UNL d   1      54.783   0.212  34.184  0.00  0.00     0.149 A 
ATOM     10  C   UNL d   1      55.343   0.604  34.649  0.00  0.00     0.149 A 
ATOM     11  O   UNL d   1      56.119   0.682  34.379  0.00  0.00    -0.301 OA
ATOM     12  C   UNL d   1      57.106   0.450  33.384  0.00  0.00     0.028 A 
ATOM     13  C   UNL d   1      57.317   0.139  32.658  0.00  0.00     0.015 A 
ENDBRANCH   1   4
BRANCH   1  14
ATOM     14  N   UNL d   1      57.212  -0.866  30.715  0.00  0.00    -0.155 NA
BRANCH  14  15
ATOM     15  C   UNL d   1      58.009  -0.900  30.511  0.00  0.00     0.139 C 
BRANCH  15  16
ATOM     16  C   UNL d   1      58.264  -1.386  29.898  0.00  0.00     0.144 C 
BRANCH  16  17
ATOM     17  O   UNL d   1      59.030  -1.321  29.603  0.00  0.00    -0.303 OA
BRANCH  17  18
ATOM     18  C   UNL d   1      59.428  -1.984  29.319  0.00  0.00     0.100 A 
ATOM     19  C   UNL d   1      59.013  -2.561  28.900  0.00  0.00     0.027 A 
ATOM     20  C   UNL d   1      59.407  -3.227  28.614  0.00  0.00     0.032 A 
ATOM     21  C   UNL d   1      60.217  -3.315  28.746  0.00  0.00     0.140 A 
ATOM     22  C   UNL d   1      60.632  -2.738  29.165  0.00  0.00     0.032 A 
ATOM     23  F   UNL d   1      60.624  -3.989  28.458  0.00  0.00    -0.204 F 
ATOM     24  C   UNL d   1      60.235  -2.076  29.449  0.00  0.00     0.027 A 
ENDBRANCH  17  18
ENDBRANCH  16  17
ENDBRANCH  15  16
ENDBRANCH  14  15
ENDBRANCH   1  14
TORSDOF 6
ENDMDL
MODEL 2
REMARK VINA RESULT:      -4.0      2.260      5.844
REMARK  6 active torsions:
REMARK  status: ('A' for Active; 'I' for Inactive)
REMARK    1  A    between atoms: C_2  and  S_1 
REMARK    2  A    between atoms: N_7  and  S_1 
REMARK    3  A    between atoms: C_15  and  N_7 
REMARK    4  A    between atoms: C_14  and  O_21 
REMARK    5  A    between atoms: C_24  and  C_15 
REMARK    6  A    between atoms: O_21  and  C_24 
ROOT
ATOM      1  S   UNL d   1      58.359  -0.390  29.969  0.00  0.00     0.285 S 
ATOM      2  O   UNL d   1      58.869  -0.226  30.604  0.00  0.00    -0.198 OA
ATOM      3  O   UNL d   1      57.853  -0.553  29.337  0.00  0.00    -0.198 OA
ENDROOT
BRANCH   1   4
ATOM      4  C   UNL d   1      58.980  -0.800  29.586  0.00  0.00     0.107 A 
ATOM      5  C   UNL d   1      58.998  -1.618  29.590  0.00  0.00     0.040 A 
ATOM      6  C   UNL d   1      59.609  -2.009  29.214  0.00  0.00     0.123 A 
ATOM      7  O   UNL d   1      59.630  -2.834  29.216  0.00  0.00    -0.301 OA
ATOM      8  C   UNL d   1      60.205  -1.581  28.833  0.00  0.00     0.123 A 
ATOM      9  C   UNL d   1      60.246  -3.232  28.837  0.00  0.00     0.149 A 
ATOM     10  C   UNL d   1      60.841  -2.805  28.457  0.00  0.00     0.149 A 
ATOM     11  O   UNL d   1      60.820  -1.980  28.455  0.00  0.00    -0.301 OA
ATOM     12  C   UNL d   1      60.187  -0.764  28.830  0.00  0.00     0.028 A 
ATOM     13  C   UNL d   1      59.576  -0.373  29.206  0.00  0.00     0.015 A 
ENDBRANCH   1   4
BRANCH   1  14
ATOM     14  N   UNL d   1      57.751   0.018  30.355  0.00  0.00    -0.155 NA
BRANCH  14  15
ATOM     15  C   UNL d   1      57.692  -0.010  31.175  0.00  0.00     0.139 C 
BRANCH  15  16
ATOM     16  C   UNL d   1      56.964   0.090  31.547  0.00  0.00     0.144 C 
BRANCH  16  17
ATOM     17  O   UNL d   1      56.723  -0.426  32.141  0.00  0.00    -0.303 OA
BRANCH  17  18
ATOM     18  C   UNL d   1      56.284  -0.152  32.781  0.00  0.00     0.100 A 
ATOM     19  C   UNL d   1      56.612   0.405  33.294  0.00  0.00     0.027 A 
ATOM     20  C   UNL d   1      56.175   0.682  33.937  0.00  0.00     0.032 A 
ATOM     21  C   UNL d   1      55.409   0.402  34.067  0.00  0.00     0.140 A 
ATOM     22  C   UNL d   1      55.081  -0.156  33.555  0.00  0.00     0.032 A 
ATOM     23  F   UNL d   1      54.960   0.679  34.718  0.00  0.00    -0.204 F 
ATOM     24  C   UNL d   1      55.520  -0.429  32.914  0.00  0.00     0.027 A 
ENDBRANCH  17  18
ENDBRANCH  16  17
ENDBRANCH  15  16
ENDBRANCH  14  15
ENDBRANCH   1  14
TORSDOF 6
ENDMDL
