MODEL 1
REMARK VINA RESULT:      -5.0      0.000      0.000
REMARK  4 active torsions:
REMARK  status: ('A' for Active; 'I' for Inactive)
REMARK    1  A    between atoms: C_2  and  C_1 
REMARK       I    between atoms: N_7  and  C_1 
REMARK    2  A    between atoms: N_6  and  C_5 
REMARK    3  A    between atoms: C_12  and  N_7 
REMARK    4  A    between atoms: C_8  and  C_9 
ROOT
ATOM      1  C   UNL d   1      57.885   0.122  30.360  0.00  0.00     0.021 A 
ATOM      2  C   UNL d   1      58.859  -0.530  29.542  0.00  0.00     0.085 A 
ATOM      3  C   UNL d   1      58.434  -0.483  30.249  0.00  0.00     0.021 A 
ATOM      4  C   UNL d   1      57.760   0.681  29.766  0.00  0.00     0.002 A 
ATOM      5  C   UNL d   1      58.183   0.631  29.067  0.00  0.00     0.002 A 
ATOM      6  C   UNL d   1      58.732   0.025  28.956  0.00  0.00     0.019 A 
ENDROOT
BRANCH   1   7
ATOM      7  C   UNL d   1      57.459   0.166  31.075  0.00  0.00     0.103 A 
ATOM      8  N   UNL d   1      56.754  -0.242  31.156  0.00  0.00    -0.147 NA
ATOM      9  N   UNL d   1      56.335  -0.196  31.866  0.00  0.00    -0.130 NA
ATOM     10  C   UNL d   1      56.627   0.260  32.489  0.00  0.00     0.170 A 
ATOM     11  C   UNL d   1      57.341   0.671  32.400  0.00  0.00     0.041 A 
ATOM     12  C   UNL d   1      57.750   0.622  31.698  0.00  0.00     0.024 A 
BRANCH  10  13
ATOM     13  N   UNL d   1      56.214   0.308  33.193  0.00  0.00    -0.284 N 
ATOM     14  C   UNL d   1      55.390   0.262  33.189  0.00  0.00     0.108 A 
ATOM     15  C   UNL d   1      54.969   0.310  33.897  0.00  0.00     0.142 A 
ATOM     16  O   UNL d   1      55.373   0.404  34.610  0.00  0.00    -0.300 OA
ATOM     17  C   UNL d   1      56.198   0.451  34.615  0.00  0.00     0.142 A 
ATOM     18  C   UNL d   1      56.618   0.402  33.906  0.00  0.00     0.108 A 
ENDBRANCH  10  13
ENDBRANCH   1   7
BRANCH   2  19
ATOM     19  N   UNL d   1      59.408  -1.135  29.430  0.00  0.00    -0.208 NA
ATOM     20  C   UNL d   1      59.244  -1.752  28.918  0.00  0.00     0.280 C 
ATOM     21  O   UNL d   1      58.525  -1.766  28.512  0.00  0.00    -0.265 OA
BRANCH  20  22
ATOM     22  C   UNL d   1      59.790  -2.353  28.807  0.00  0.00     0.069 A 
ATOM     23  C   UNL d   1      59.553  -3.136  28.829  0.00  0.00     0.062 A 
ATOM     24 CL   UNL d   1      58.752  -3.324  28.965  0.00  0.00    -0.082 Cl
ATOM     25  C   UNL d   1      60.102  -3.741  28.717  0.00  0.00     0.012 A 
ATOM     26  C   UNL d   1      60.889  -3.564  28.584  0.00  0.00     0.001 A 
ATOM     27  C   UNL d   1      61.133  -2.777  28.561  0.00  0.00     0.000 A 
ATOM     28  C   UNL d   1      60.584  -2.171  28.673  0.00  0.00     0.006 A 
ENDBRANCH  20  22
ENDBRANCH   2  19
TORSDOF 4
ENDMDL
