MODEL 1
REMARK VINA RESULT:      -2.9      0.000      0.000
REMARK  2 active torsions:
REMARK  status: ('A' for Active; 'I' for Inactive)
REMARK    1  A    between atoms: C_13  and  N_5 
REMARK    2  A    between atoms: C_19  and  C_12 
ROOT
ATOM      1  C   UNL d   1      31.882  17.135 -24.247  0.00  0.00     0.170 A 
ATOM      2  C   UNL d   1      31.728  16.445 -24.628  0.00  0.00     0.093 A 
ATOM      3  N   UNL d   1      30.368  16.607 -24.402  0.00  0.00    -0.256 N 
ATOM      4  C   UNL d   1      30.969  16.169 -24.712  0.00  0.00     0.176 A 
ATOM      5  N   UNL d   1      32.635  17.400 -24.169  0.00  0.00    -0.212 N 
ATOM      6  N   UNL d   1      31.266  17.563 -23.941  0.00  0.00    -0.206 NA
ATOM      7  N   UNL d   1      30.824  15.483 -25.092  0.00  0.00    -0.128 NA
ATOM      8  N   UNL d   1      33.240  16.962 -24.479  0.00  0.00    -0.162 NA
ATOM      9  C   UNL d   1      30.522  17.297 -24.021  0.00  0.00     0.187 A 
ATOM     10  N   UNL d   1      29.466  15.655 -24.860  0.00  0.00    -0.128 NA
ATOM     11  C   UNL d   1      33.095  16.275 -24.860  0.00  0.00     0.127 A 
ATOM     12  C   UNL d   1      29.615  16.342 -24.480  0.00  0.00     0.172 A 
ENDROOT
BRANCH   5  13
ATOM     13  C   UNL d   1      32.784  18.110 -23.776  0.00  0.00     0.085 A 
ATOM     14  C   UNL d   1      32.922  18.794 -24.202  0.00  0.00     0.019 A 
ATOM     15  C   UNL d   1      33.073  19.513 -23.800  0.00  0.00     0.002 A 
ATOM     16  C   UNL d   1      33.221  20.248 -24.248  0.00  0.00     0.000 C 
ATOM     17  C   UNL d   1      33.084  19.533 -22.968  0.00  0.00     0.000 A 
ATOM     18  C   UNL d   1      32.943  18.828 -22.539  0.00  0.00     0.002 A 
ATOM     19  C   UNL d   1      33.241  20.277 -22.547  0.00  0.00     0.000 C 
ATOM     20  C   UNL d   1      32.794  18.120 -22.936  0.00  0.00     0.019 A 
ENDBRANCH   5  13
BRANCH  12  21
ATOM     21  C   UNL d   1      29.004  16.769 -24.176  0.00  0.00     0.039 C 
ATOM     22  C   UNL d   1      28.283  16.434 -24.101  0.00  0.00     0.003 C 
ENDBRANCH  12  21
TORSDOF 2
ENDMDL
MODEL 2
REMARK VINA RESULT:      -1.0      1.547      2.580
REMARK  2 active torsions:
REMARK  status: ('A' for Active; 'I' for Inactive)
REMARK    1  A    between atoms: C_13  and  N_5 
REMARK    2  A    between atoms: C_19  and  C_12 
ROOT
ATOM      1  C   UNL d   1      32.740  18.945 -23.465  0.00  0.00     0.170 A 
ATOM      2  C   UNL d   1      32.744  18.641 -24.208  0.00  0.00     0.093 A 
ATOM      3  N   UNL d   1      32.250  17.434 -23.733  0.00  0.00    -0.256 N 
ATOM      4  C   UNL d   1      32.499  17.881 -24.355  0.00  0.00     0.176 A 
ATOM      5  N   UNL d   1      32.984  19.697 -23.329  0.00  0.00    -0.212 N 
ATOM      6  N   UNL d   1      32.487  18.483 -22.851  0.00  0.00    -0.206 NA
ATOM      7  N   UNL d   1      32.506  17.586 -25.096  0.00  0.00    -0.128 NA
ATOM      8  N   UNL d   1      33.234  20.148 -23.952  0.00  0.00    -0.162 NA
ATOM      9  C   UNL d   1      32.246  17.738 -22.990  0.00  0.00     0.187 A 
ATOM     10  N   UNL d   1      32.012  16.384 -24.609  0.00  0.00    -0.128 NA
ATOM     11  C   UNL d   1      33.241  19.853 -24.694  0.00  0.00     0.127 A 
ATOM     12  C   UNL d   1      32.007  16.682 -23.868  0.00  0.00     0.172 A 
ENDROOT
BRANCH   5  13
ATOM     13  C   UNL d   1      32.977  20.002 -22.562  0.00  0.00     0.085 A 
ATOM     14  C   UNL d   1      32.715  20.764 -22.426  0.00  0.00     0.019 A 
ATOM     15  C   UNL d   1      32.709  21.070 -21.646  0.00  0.00     0.002 A 
ATOM     16  C   UNL d   1      32.431  21.884 -21.492  0.00  0.00     0.000 C 
ATOM     17  C   UNL d   1      32.969  20.601 -21.010  0.00  0.00     0.000 A 
ATOM     18  C   UNL d   1      33.236  19.820 -21.159  0.00  0.00     0.002 A 
ATOM     19  C   UNL d   1      32.964  20.915 -20.200  0.00  0.00     0.000 C 
ATOM     20  C   UNL d   1      33.241  19.520 -21.927  0.00  0.00     0.019 A 
ENDBRANCH   5  13
BRANCH  12  21
ATOM     21  C   UNL d   1      31.755  16.223 -23.256  0.00  0.00     0.039 C 
ATOM     22  C   UNL d   1      31.527  15.470 -23.391  0.00  0.00     0.003 C 
ENDBRANCH  12  21
TORSDOF 2
ENDMDL
MODEL 3
REMARK VINA RESULT:      -0.2      2.777      4.625
REMARK  2 active torsions:
REMARK  status: ('A' for Active; 'I' for Inactive)
REMARK    1  A    between atoms: C_13  and  N_5 
REMARK    2  A    between atoms: C_19  and  C_12 
ROOT
ATOM      1  C   UNL d   1      33.003  20.996 -22.450  0.00  0.00     0.170 A 
ATOM      2  C   UNL d   1      33.120  20.812 -23.223  0.00  0.00     0.093 A 
ATOM      3  N   UNL d   1      33.005  19.459 -22.935  0.00  0.00    -0.256 N 
ATOM      4  C   UNL d   1      33.123  20.041 -23.479  0.00  0.00     0.176 A 
ATOM      5  N   UNL d   1      33.002  21.760 -22.206  0.00  0.00    -0.212 N 
ATOM      6  N   UNL d   1      32.885  20.398 -21.916  0.00  0.00    -0.206 NA
ATOM      7  N   UNL d   1      33.241  19.867 -24.249  0.00  0.00    -0.128 NA
ATOM      8  N   UNL d   1      33.121  22.346 -22.750  0.00  0.00    -0.162 NA
ATOM      9  C   UNL d   1      32.887  19.643 -22.162  0.00  0.00     0.187 A 
ATOM     10  N   UNL d   1      33.123  18.517 -23.948  0.00  0.00    -0.128 NA
ATOM     11  C   UNL d   1      33.238  22.172 -23.521  0.00  0.00     0.127 A 
ATOM     12  C   UNL d   1      33.006  18.695 -23.178  0.00  0.00     0.172 A 
ENDROOT
BRANCH   5  13
ATOM     13  C   UNL d   1      32.880  21.939 -21.410  0.00  0.00     0.085 A 
ATOM     14  C   UNL d   1      32.417  22.579 -21.200  0.00  0.00     0.019 A 
ATOM     15  C   UNL d   1      32.295  22.758 -20.391  0.00  0.00     0.002 A 
ATOM     16  C   UNL d   1      31.801  23.440 -20.158  0.00  0.00     0.000 C 
ATOM     17  C   UNL d   1      32.646  22.288 -19.801  0.00  0.00     0.000 A 
ATOM     18  C   UNL d   1      33.120  21.634 -20.025  0.00  0.00     0.002 A 
ATOM     19  C   UNL d   1      32.522  22.471 -18.960  0.00  0.00     0.000 C 
ATOM     20  C   UNL d   1      33.238  21.458 -20.822  0.00  0.00     0.019 A 
ENDBRANCH   5  13
BRANCH  12  21
ATOM     21  C   UNL d   1      32.888  18.102 -22.646  0.00  0.00     0.039 C 
ATOM     22  C   UNL d   1      32.625  17.391 -22.895  0.00  0.00     0.003 C 
ENDBRANCH  12  21
TORSDOF 2
ENDMDL
