MODEL 1
REMARK VINA RESULT:      -4.8      0.000      0.000
REMARK  3 active torsions:
REMARK  status: ('A' for Active; 'I' for Inactive)
REMARK    1  A    between atoms: S_9  and  C_2 
REMARK    2  A    between atoms: C_8  and  C_3 
REMARK    3  A    between atoms: C_10  and  S_9 
ROOT
ATOM      1  N   UNL d   1      59.170  -1.994  28.647  0.00  0.00    -0.195 NA
ATOM      2  C   UNL d   1      58.808  -1.344  29.001  0.00  0.00     0.086 C 
ATOM      3  C   UNL d   1      58.443  -0.693  29.348  0.00  0.00     0.169 C 
ENDROOT
BRANCH   3   4
ATOM      4  S   UNL d   1      58.594  -0.519  30.131  0.00  0.00    -0.072 SA
BRANCH   4   5
ATOM      5  C   UNL d   1      58.012  -0.190  30.607  0.00  0.00     0.137 A 
ATOM      6  N   UNL d   1      57.586  -0.572  31.207  0.00  0.00    -0.232 NA
ATOM      7  C   UNL d   1      57.067  -0.033  31.533  0.00  0.00     0.089 A 
ATOM      8  C   UNL d   1      57.162   0.681  31.145  0.00  0.00     0.057 A 
ATOM      9  S   UNL d   1      57.743   0.590  30.574  0.00  0.00    -0.060 SA
BRANCH   7  10
ATOM     10  C   UNL d   1      56.536  -0.182  32.148  0.00  0.00     0.018 A 
ATOM     11  C   UNL d   1      56.223   0.454  32.563  0.00  0.00     0.002 A 
ATOM     12  C   UNL d   1      55.692   0.306  33.178  0.00  0.00     0.000 A 
ATOM     13  C   UNL d   1      55.480  -0.469  33.374  0.00  0.00     0.000 A 
ATOM     14  C   UNL d   1      55.807  -1.100  32.943  0.00  0.00     0.000 A 
ATOM     15  C   UNL d   1      56.337  -0.947  32.329  0.00  0.00     0.002 A 
ENDBRANCH   7  10
ENDBRANCH   4   5
ENDBRANCH   3   4
TORSDOF 3
ENDMDL
MODEL 2
REMARK VINA RESULT:      -3.9      1.295      3.951
REMARK  3 active torsions:
REMARK  status: ('A' for Active; 'I' for Inactive)
REMARK    1  A    between atoms: S_9  and  C_2 
REMARK    2  A    between atoms: C_8  and  C_3 
REMARK    3  A    between atoms: C_10  and  S_9 
ROOT
ATOM      1  N   UNL d   1      55.098  -0.118  33.793  0.00  0.00    -0.195 NA
ATOM      2  C   UNL d   1      55.573   0.077  33.149  0.00  0.00     0.086 C 
ATOM      3  C   UNL d   1      56.044   0.279  32.505  0.00  0.00     0.169 C 
ENDROOT
BRANCH   3   4
ATOM      4  S   UNL d   1      56.621  -0.241  32.253  0.00  0.00    -0.072 SA
BRANCH   4   5
ATOM      5  C   UNL d   1      57.180  -0.009  31.698  0.00  0.00     0.137 A 
ATOM      6  N   UNL d   1      57.371  -0.400  30.992  0.00  0.00    -0.232 NA
ATOM      7  C   UNL d   1      57.955   0.027  30.614  0.00  0.00     0.089 A 
ATOM      8  C   UNL d   1      58.132   0.682  31.074  0.00  0.00     0.057 A 
ATOM      9  S   UNL d   1      57.657   0.664  31.742  0.00  0.00    -0.060 SA
BRANCH   7  10
ATOM     10  C   UNL d   1      58.308  -0.166  29.893  0.00  0.00     0.018 A 
ATOM     11  C   UNL d   1      58.411   0.426  29.332  0.00  0.00     0.002 A 
ATOM     12  C   UNL d   1      58.763   0.234  28.610  0.00  0.00     0.000 A 
ATOM     13  C   UNL d   1      59.009  -0.541  28.455  0.00  0.00     0.000 A 
ATOM     14  C   UNL d   1      58.897  -1.126  29.034  0.00  0.00     0.000 A 
ATOM     15  C   UNL d   1      58.544  -0.929  29.754  0.00  0.00     0.002 A 
ENDBRANCH   7  10
ENDBRANCH   4   5
ENDBRANCH   3   4
TORSDOF 3
ENDMDL
MODEL 3
REMARK VINA RESULT:      -3.5      1.073      4.009
REMARK  3 active torsions:
REMARK  status: ('A' for Active; 'I' for Inactive)
REMARK    1  A    between atoms: S_9  and  C_2 
REMARK    2  A    between atoms: C_8  and  C_3 
REMARK    3  A    between atoms: C_10  and  S_9 
ROOT
ATOM      1  N   UNL d   1      55.749  -0.698  33.331  0.00  0.00    -0.195 NA
ATOM      2  C   UNL d   1      56.192  -0.689  32.636  0.00  0.00     0.086 C 
ATOM      3  C   UNL d   1      56.632  -0.687  31.941  0.00  0.00     0.169 C 
ENDROOT
BRANCH   3   4
ATOM      4  S   UNL d   1      57.016  -0.004  31.712  0.00  0.00    -0.072 SA
BRANCH   4   5
ATOM      5  C   UNL d   1      57.491   0.005  31.043  0.00  0.00     0.137 A 
ATOM      6  N   UNL d   1      57.834  -0.651  30.668  0.00  0.00    -0.232 NA
ATOM      7  C   UNL d   1      58.261  -0.383  30.026  0.00  0.00     0.089 A 
ATOM      8  C   UNL d   1      58.190   0.432  29.993  0.00  0.00     0.057 A 
ATOM      9  S   UNL d   1      57.717   0.675  30.617  0.00  0.00    -0.060 SA
BRANCH   7  10
ATOM     10  C   UNL d   1      58.690  -0.852  29.500  0.00  0.00     0.018 A 
ATOM     11  C   UNL d   1      58.545  -1.661  29.480  0.00  0.00     0.002 A 
ATOM     12  C   UNL d   1      58.974  -2.131  28.954  0.00  0.00     0.000 A 
ATOM     13  C   UNL d   1      59.541  -1.793  28.455  0.00  0.00     0.000 A 
ATOM     14  C   UNL d   1      59.674  -0.974  28.488  0.00  0.00     0.000 A 
ATOM     15  C   UNL d   1      59.243  -0.508  29.016  0.00  0.00     0.002 A 
ENDBRANCH   7  10
ENDBRANCH   4   5
ENDBRANCH   3   4
TORSDOF 3
ENDMDL
MODEL 4
REMARK VINA RESULT:      -2.6      8.952      9.777
REMARK  3 active torsions:
REMARK  status: ('A' for Active; 'I' for Inactive)
REMARK    1  A    between atoms: S_9  and  C_2 
REMARK    2  A    between atoms: C_8  and  C_3 
REMARK    3  A    between atoms: C_10  and  S_9 
ROOT
ATOM      1  N   UNL d   1      61.134  -4.961  36.329  0.00  0.00    -0.195 NA
ATOM      2  C   UNL d   1      60.788  -5.697  36.202  0.00  0.00     0.086 C 
ATOM      3  C   UNL d   1      60.436  -6.430  36.073  0.00  0.00     0.169 C 
ENDROOT
BRANCH   3   4
ATOM      4  S   UNL d   1      60.877  -7.109  36.175  0.00  0.00    -0.072 SA
BRANCH   4   5
ATOM      5  C   UNL d   1      60.648  -7.814  35.821  0.00  0.00     0.137 A 
ATOM      6  N   UNL d   1      60.511  -7.943  35.014  0.00  0.00    -0.232 NA
ATOM      7  C   UNL d   1      60.294  -8.724  34.914  0.00  0.00     0.089 A 
ATOM      8  C   UNL d   1      60.294  -9.085  35.648  0.00  0.00     0.057 A 
ATOM      9  S   UNL d   1      60.511  -8.530  36.210  0.00  0.00    -0.060 SA
BRANCH   7  10
ATOM     10  C   UNL d   1      60.108  -9.087  34.196  0.00  0.00     0.018 A 
ATOM     11  C   UNL d   1      60.717  -9.271  33.675  0.00  0.00     0.002 A 
ATOM     12  C   UNL d   1      60.531  -9.634  32.958  0.00  0.00     0.000 A 
ATOM     13  C   UNL d   1      59.746  -9.811  32.766  0.00  0.00     0.000 A 
ATOM     14  C   UNL d   1      59.144  -9.618  33.305  0.00  0.00     0.000 A 
ATOM     15  C   UNL d   1      59.334  -9.255  34.021  0.00  0.00     0.002 A 
ENDBRANCH   7  10
ENDBRANCH   4   5
ENDBRANCH   3   4
TORSDOF 3
ENDMDL
MODEL 5
REMARK VINA RESULT:      -2.0      2.698      3.812
REMARK  3 active torsions:
REMARK  status: ('A' for Active; 'I' for Inactive)
REMARK    1  A    between atoms: S_9  and  C_2 
REMARK    2  A    between atoms: C_8  and  C_3 
REMARK    3  A    between atoms: C_10  and  S_9 
ROOT
ATOM      1  N   UNL d   1      58.114  -5.493  28.470  0.00  0.00    -0.195 NA
ATOM      2  C   UNL d   1      58.287  -4.688  28.469  0.00  0.00     0.086 C 
ATOM      3  C   UNL d   1      58.453  -3.882  28.464  0.00  0.00     0.169 C 
ENDROOT
BRANCH   3   4
ATOM      4  S   UNL d   1      59.160  -3.617  28.774  0.00  0.00    -0.072 SA
BRANCH   4   5
ATOM      5  C   UNL d   1      59.314  -2.813  28.837  0.00  0.00     0.137 A 
ATOM      6  N   UNL d   1      58.895  -2.261  29.292  0.00  0.00    -0.232 NA
ATOM      7  C   UNL d   1      59.242  -1.529  29.188  0.00  0.00     0.089 A 
ATOM      8  C   UNL d   1      59.874  -1.617  28.673  0.00  0.00     0.057 A 
ATOM      9  S   UNL d   1      59.922  -2.405  28.455  0.00  0.00    -0.060 SA
BRANCH   7  10
ATOM     10  C   UNL d   1      59.000  -0.823  29.539  0.00  0.00     0.018 A 
ATOM     11  C   UNL d   1      59.540  -0.207  29.604  0.00  0.00     0.002 A 
ATOM     12  C   UNL d   1      59.298   0.500  29.955  0.00  0.00     0.000 A 
ATOM     13  C   UNL d   1      58.525   0.587  30.238  0.00  0.00     0.000 A 
ATOM     14  C   UNL d   1      57.993  -0.047  30.163  0.00  0.00     0.000 A 
ATOM     15  C   UNL d   1      58.239  -0.751  29.811  0.00  0.00     0.002 A 
ENDBRANCH   7  10
ENDBRANCH   4   5
ENDBRANCH   3   4
TORSDOF 3
ENDMDL
