MODEL 1
REMARK VINA RESULT:      -6.1      0.000      0.000
REMARK  7 active torsions:
REMARK  status: ('A' for Active; 'I' for Inactive)
REMARK    1  A    between atoms: C_6  and  N_2 
REMARK    2  A    between atoms: C_7  and  C_3 
REMARK    3  A    between atoms: C_8  and  C_6 
REMARK    4  A    between atoms: O_13  and  C_7 
REMARK    5  A    between atoms: C_14  and  C_8 
REMARK    6  A    between atoms: C_9  and  O_12 
REMARK    7  A    between atoms: O_12  and  C_14 
ROOT
ATOM      1  N   UNL d   1     -49.338  13.769  23.034  0.00  0.00    -0.225 NA
ATOM      2  N   UNL d   1     -48.114  13.168  23.106  0.00  0.00    -0.287 N 
ATOM      3  C   UNL d   1     -48.941  13.053  23.234  0.00  0.00     0.172 A 
ATOM      4  C   UNL d   1     -47.994  13.945  22.830  0.00  0.00     0.083 A 
ATOM      5  C   UNL d   1     -48.750  14.316  22.785  0.00  0.00     0.099 A 
ATOM      6  C   UNL d   1     -47.317  14.368  22.613  0.00  0.00     0.019 A 
ATOM      7  C   UNL d   1     -48.811  15.102  22.526  0.00  0.00     0.021 A 
ATOM      8  C   UNL d   1     -47.384  15.158  22.353  0.00  0.00     0.002 A 
ATOM      9  C   UNL d   1     -48.129  15.524  22.309  0.00  0.00     0.002 A 
ENDROOT
BRANCH   2  10
ATOM     10  C   UNL d   1     -47.653  12.504  23.281  0.00  0.00     0.084 C 
BRANCH  10  11
ATOM     11  C   UNL d   1     -46.843  12.594  23.406  0.00  0.00     0.046 C 
BRANCH  11  12
ATOM     12  C   UNL d   1     -46.353  11.944  23.378  0.00  0.00     0.124 C 
BRANCH  12  13
ATOM     13  O   UNL d   1     -45.558  12.042  23.197  0.00  0.00    -0.305 OA
BRANCH  13  14
ATOM     14  C   UNL d   1     -45.039  11.409  23.273  0.00  0.00     0.100 A 
ATOM     15  C   UNL d   1     -44.273  11.482  23.008  0.00  0.00     0.025 A 
ATOM     16  C   UNL d   1     -43.759  10.859  23.082  0.00  0.00     0.002 A 
ATOM     17  C   UNL d   1     -44.012  10.147  23.428  0.00  0.00     0.000 A 
ATOM     18  C   UNL d   1     -44.787  10.085  23.692  0.00  0.00     0.002 A 
ATOM     19  C   UNL d   1     -45.297  10.719  23.613  0.00  0.00     0.025 A 
ENDBRANCH  13  14
ENDBRANCH  12  13
ENDBRANCH  11  12
ENDBRANCH  10  11
ENDBRANCH   2  10
BRANCH   3  20
ATOM     20  C   UNL d   1     -49.343  12.485  23.469  0.00  0.00     0.154 C 
BRANCH  20  21
ATOM     21  O   UNL d   1     -50.153  12.402  23.372  0.00  0.00    -0.323 OA
ATOM     22  C   UNL d   1     -50.704  11.853  23.651  0.00  0.00     0.182 C 
ENDBRANCH  20  21
ENDBRANCH   3  20
TORSDOF 7
ENDMDL
MODEL 2
REMARK VINA RESULT:      -5.9      8.593      9.310
REMARK  7 active torsions:
REMARK  status: ('A' for Active; 'I' for Inactive)
REMARK    1  A    between atoms: C_6  and  N_2 
REMARK    2  A    between atoms: C_7  and  C_3 
REMARK    3  A    between atoms: C_8  and  C_6 
REMARK    4  A    between atoms: O_13  and  C_7 
REMARK    5  A    between atoms: C_14  and  C_8 
REMARK    6  A    between atoms: C_9  and  O_12 
REMARK    7  A    between atoms: O_12  and  C_14 
ROOT
ATOM      1  N   UNL d   1     -39.569  13.875  17.415  0.00  0.00    -0.225 NA
ATOM      2  N   UNL d   1     -39.370  14.453  18.635  0.00  0.00    -0.287 N 
ATOM      3  C   UNL d   1     -39.137  13.813  18.136  0.00  0.00     0.172 A 
ATOM      4  C   UNL d   1     -39.940  14.910  18.234  0.00  0.00     0.083 A 
ATOM      5  C   UNL d   1     -40.063  14.553  17.480  0.00  0.00     0.099 A 
ATOM      6  C   UNL d   1     -40.362  15.591  18.438  0.00  0.00     0.019 A 
ATOM      7  C   UNL d   1     -40.605  14.886  16.947  0.00  0.00     0.021 A 
ATOM      8  C   UNL d   1     -40.906  15.922  17.898  0.00  0.00     0.002 A 
ATOM      9  C   UNL d   1     -41.028  15.570  17.155  0.00  0.00     0.002 A 
ENDROOT
BRANCH   2  10
ATOM     10  C   UNL d   1     -38.987  14.461  19.368  0.00  0.00     0.084 C 
BRANCH  10  11
ATOM     11  C   UNL d   1     -39.432  14.388  20.059  0.00  0.00     0.046 C 
BRANCH  11  12
ATOM     12  C   UNL d   1     -39.056  14.353  20.782  0.00  0.00     0.124 C 
BRANCH  12  13
ATOM     13  O   UNL d   1     -39.502  14.363  21.471  0.00  0.00    -0.305 OA
BRANCH  13  14
ATOM     14  C   UNL d   1     -39.129  14.308  22.202  0.00  0.00     0.100 A 
ATOM     15  C   UNL d   1     -38.934  14.987  22.608  0.00  0.00     0.025 A 
ATOM     16  C   UNL d   1     -38.565  14.935  23.328  0.00  0.00     0.002 A 
ATOM     17  C   UNL d   1     -38.386  14.192  23.654  0.00  0.00     0.000 A 
ATOM     18  C   UNL d   1     -38.588  13.514  23.235  0.00  0.00     0.002 A 
ATOM     19  C   UNL d   1     -38.959  13.577  22.510  0.00  0.00     0.025 A 
ENDBRANCH  13  14
ENDBRANCH  12  13
ENDBRANCH  11  12
ENDBRANCH  10  11
ENDBRANCH   2  10
BRANCH   3  20
ATOM     20  C   UNL d   1     -38.664  13.257  18.212  0.00  0.00     0.154 C 
BRANCH  20  21
ATOM     21  O   UNL d   1     -38.439  12.738  17.619  0.00  0.00    -0.323 OA
ATOM     22  C   UNL d   1     -37.954  12.069  17.604  0.00  0.00     0.182 C 
ENDBRANCH  20  21
ENDBRANCH   3  20
TORSDOF 7
ENDMDL
MODEL 3
REMARK VINA RESULT:      -5.8      0.869      2.235
REMARK  7 active torsions:
REMARK  status: ('A' for Active; 'I' for Inactive)
REMARK    1  A    between atoms: C_6  and  N_2 
REMARK    2  A    between atoms: C_7  and  C_3 
REMARK    3  A    between atoms: C_8  and  C_6 
REMARK    4  A    between atoms: O_13  and  C_7 
REMARK    5  A    between atoms: C_14  and  C_8 
REMARK    6  A    between atoms: C_9  and  O_12 
REMARK    7  A    between atoms: O_12  and  C_14 
ROOT
ATOM      1  N   UNL d   1     -49.087  13.652  22.788  0.00  0.00    -0.225 NA
ATOM      2  N   UNL d   1     -48.112  12.843  23.297  0.00  0.00    -0.287 N 
ATOM      3  C   UNL d   1     -48.258  13.590  22.932  0.00  0.00     0.172 A 
ATOM      4  C   UNL d   1     -48.837  12.441  23.382  0.00  0.00     0.083 A 
ATOM      5  C   UNL d   1     -49.440  12.941  23.067  0.00  0.00     0.099 A 
ATOM      6  C   UNL d   1     -49.040  11.703  23.695  0.00  0.00     0.019 A 
ATOM      7  C   UNL d   1     -50.230  12.690  23.073  0.00  0.00     0.021 A 
ATOM      8  C   UNL d   1     -49.837  11.456  23.698  0.00  0.00     0.002 A 
ATOM      9  C   UNL d   1     -50.431  11.948  23.388  0.00  0.00     0.002 A 
ENDROOT
BRANCH   2  10
ATOM     10  C   UNL d   1     -47.314  12.707  23.471  0.00  0.00     0.084 C 
BRANCH  10  11
ATOM     11  C   UNL d   1     -46.902  12.128  23.053  0.00  0.00     0.046 C 
BRANCH  11  12
ATOM     12  C   UNL d   1     -46.310  11.706  23.421  0.00  0.00     0.124 C 
BRANCH  12  13
ATOM     13  O   UNL d   1     -45.542  11.749  23.135  0.00  0.00    -0.305 OA
BRANCH  13  14
ATOM     14  C   UNL d   1     -45.009  11.143  23.295  0.00  0.00     0.100 A 
ATOM     15  C   UNL d   1     -44.210  11.279  23.221  0.00  0.00     0.025 A 
ATOM     16  C   UNL d   1     -43.683  10.683  23.379  0.00  0.00     0.002 A 
ATOM     17  C   UNL d   1     -43.956   9.935  23.616  0.00  0.00     0.000 A 
ATOM     18  C   UNL d   1     -44.765   9.810  23.687  0.00  0.00     0.002 A 
ATOM     19  C   UNL d   1     -45.288  10.418  23.526  0.00  0.00     0.025 A 
ENDBRANCH  13  14
ENDBRANCH  12  13
ENDBRANCH  11  12
ENDBRANCH  10  11
ENDBRANCH   2  10
BRANCH   3  20
ATOM     20  C   UNL d   1     -47.828  14.151  22.732  0.00  0.00     0.154 C 
BRANCH  20  21
ATOM     21  O   UNL d   1     -48.071  14.815  22.319  0.00  0.00    -0.323 OA
ATOM     22  C   UNL d   1     -47.712  15.540  22.149  0.00  0.00     0.182 C 
ENDBRANCH  20  21
ENDBRANCH   3  20
TORSDOF 7
ENDMDL
MODEL 4
REMARK VINA RESULT:      -5.7      1.241      1.734
REMARK  7 active torsions:
REMARK  status: ('A' for Active; 'I' for Inactive)
REMARK    1  A    between atoms: C_6  and  N_2 
REMARK    2  A    between atoms: C_7  and  C_3 
REMARK    3  A    between atoms: C_8  and  C_6 
REMARK    4  A    between atoms: O_13  and  C_7 
REMARK    5  A    between atoms: C_14  and  C_8 
REMARK    6  A    between atoms: C_9  and  O_12 
REMARK    7  A    between atoms: O_12  and  C_14 
ROOT
ATOM      1  N   UNL d   1     -50.077  13.610  23.696  0.00  0.00    -0.225 NA
ATOM      2  N   UNL d   1     -48.940  13.755  22.956  0.00  0.00    -0.287 N 
ATOM      3  C   UNL d   1     -49.424  13.195  23.362  0.00  0.00     0.172 A 
ATOM      4  C   UNL d   1     -49.284  14.510  23.033  0.00  0.00     0.083 A 
ATOM      5  C   UNL d   1     -49.987  14.420  23.491  0.00  0.00     0.099 A 
ATOM      6  C   UNL d   1     -49.066  15.259  22.758  0.00  0.00     0.019 A 
ATOM      7  C   UNL d   1     -50.455  15.083  23.663  0.00  0.00     0.021 A 
ATOM      8  C   UNL d   1     -49.542  15.922  22.935  0.00  0.00     0.002 A 
ATOM      9  C   UNL d   1     -50.234  15.834  23.386  0.00  0.00     0.002 A 
ENDROOT
BRANCH   2  10
ATOM     10  C   UNL d   1     -48.273  13.421  22.598  0.00  0.00     0.084 C 
BRANCH  10  11
ATOM     11  C   UNL d   1     -47.521  13.651  22.849  0.00  0.00     0.046 C 
BRANCH  11  12
ATOM     12  C   UNL d   1     -46.868  13.222  22.618  0.00  0.00     0.124 C 
BRANCH  12  13
ATOM     13  O   UNL d   1     -46.118  13.472  22.843  0.00  0.00    -0.305 OA
BRANCH  13  14
ATOM     14  C   UNL d   1     -45.453  13.084  22.554  0.00  0.00     0.100 A 
ATOM     15  C   UNL d   1     -45.018  13.422  21.955  0.00  0.00     0.025 A 
ATOM     16  C   UNL d   1     -44.361  13.042  21.669  0.00  0.00     0.002 A 
ATOM     17  C   UNL d   1     -44.132  12.308  21.985  0.00  0.00     0.000 A 
ATOM     18  C   UNL d   1     -44.579  11.977  22.589  0.00  0.00     0.002 A 
ATOM     19  C   UNL d   1     -45.239  12.369  22.870  0.00  0.00     0.025 A 
ENDBRANCH  13  14
ENDBRANCH  12  13
ENDBRANCH  11  12
ENDBRANCH  10  11
ENDBRANCH   2  10
BRANCH   3  20
ATOM     20  C   UNL d   1     -49.381  12.470  23.469  0.00  0.00     0.154 C 
BRANCH  20  21
ATOM     21  O   UNL d   1     -50.018  11.958  23.530  0.00  0.00    -0.323 OA
ATOM     22  C   UNL d   1     -50.093  11.136  23.481  0.00  0.00     0.182 C 
ENDBRANCH  20  21
ENDBRANCH   3  20
TORSDOF 7
ENDMDL
MODEL 5
REMARK VINA RESULT:      -5.7      1.704      5.123
REMARK  7 active torsions:
REMARK  status: ('A' for Active; 'I' for Inactive)
REMARK    1  A    between atoms: C_6  and  N_2 
REMARK    2  A    between atoms: C_7  and  C_3 
REMARK    3  A    between atoms: C_8  and  C_6 
REMARK    4  A    between atoms: O_13  and  C_7 
REMARK    5  A    between atoms: C_14  and  C_8 
REMARK    6  A    between atoms: C_9  and  O_12 
REMARK    7  A    between atoms: O_12  and  C_14 
ROOT
ATOM      1  N   UNL d   1     -45.386  12.196  22.847  0.00  0.00    -0.225 NA
ATOM      2  N   UNL d   1     -46.520  12.940  22.698  0.00  0.00    -0.287 N 
ATOM      3  C   UNL d   1     -45.685  12.937  22.577  0.00  0.00     0.172 A 
ATOM      4  C   UNL d   1     -46.743  12.214  23.038  0.00  0.00     0.083 A 
ATOM      5  C   UNL d   1     -46.042  11.754  23.130  0.00  0.00     0.099 A 
ATOM      6  C   UNL d   1     -47.471  11.902  23.277  0.00  0.00     0.019 A 
ATOM      7  C   UNL d   1     -46.086  10.993  23.459  0.00  0.00     0.021 A 
ATOM      8  C   UNL d   1     -47.509  11.137  23.607  0.00  0.00     0.002 A 
ATOM      9  C   UNL d   1     -46.818  10.683  23.698  0.00  0.00     0.002 A 
ENDROOT
BRANCH   2  10
ATOM     10  C   UNL d   1     -46.889  13.640  22.455  0.00  0.00     0.084 C 
BRANCH  10  11
ATOM     11  C   UNL d   1     -47.393  14.034  22.976  0.00  0.00     0.046 C 
BRANCH  11  12
ATOM     12  C   UNL d   1     -48.035  14.445  22.687  0.00  0.00     0.124 C 
BRANCH  12  13
ATOM     13  O   UNL d   1     -48.506  14.876  23.203  0.00  0.00    -0.305 OA
BRANCH  13  14
ATOM     14  C   UNL d   1     -49.299  15.005  23.025  0.00  0.00     0.100 A 
ATOM     15  C   UNL d   1     -49.685  14.498  22.519  0.00  0.00     0.025 A 
ATOM     16  C   UNL d   1     -50.467  14.623  22.341  0.00  0.00     0.002 A 
ATOM     17  C   UNL d   1     -50.874  15.266  22.675  0.00  0.00     0.000 A 
ATOM     18  C   UNL d   1     -50.473  15.771  23.184  0.00  0.00     0.002 A 
ATOM     19  C   UNL d   1     -49.685  15.636  23.356  0.00  0.00     0.025 A 
ENDBRANCH  13  14
ENDBRANCH  12  13
ENDBRANCH  11  12
ENDBRANCH  10  11
ENDBRANCH   2  10
BRANCH   3  20
ATOM     20  C   UNL d   1     -45.209  13.424  22.301  0.00  0.00     0.154 C 
BRANCH  20  21
ATOM     21  O   UNL d   1     -44.542  13.243  21.862  0.00  0.00    -0.323 OA
ATOM     22  C   UNL d   1     -43.982  13.704  21.464  0.00  0.00     0.182 C 
ENDBRANCH  20  21
ENDBRANCH   3  20
TORSDOF 7
ENDMDL
MODEL 6
REMARK VINA RESULT:      -5.6      1.511      4.871
REMARK  7 active torsions:
REMARK  status: ('A' for Active; 'I' for Inactive)
REMARK    1  A    between atoms: C_6  and  N_2 
REMARK    2  A    between atoms: C_7  and  C_3 
REMARK    3  A    between atoms: C_8  and  C_6 
REMARK    4  A    between atoms: O_13  and  C_7 
REMARK    5  A    between atoms: C_14  and  C_8 
REMARK    6  A    between atoms: C_9  and  O_12 
REMARK    7  A    between atoms: O_12  and  C_14 
ROOT
ATOM      1  N   UNL d   1     -45.498  12.324  23.319  0.00  0.00    -0.225 NA
ATOM      2  N   UNL d   1     -46.708  11.749  23.579  0.00  0.00    -0.287 N 
ATOM      3  C   UNL d   1     -46.320  12.482  23.421  0.00  0.00     0.172 A 
ATOM      4  C   UNL d   1     -46.139  11.140  23.577  0.00  0.00     0.083 A 
ATOM      5  C   UNL d   1     -45.391  11.496  23.416  0.00  0.00     0.099 A 
ATOM      6  C   UNL d   1     -46.186  10.323  23.696  0.00  0.00     0.019 A 
ATOM      7  C   UNL d   1     -44.709  11.026  23.378  0.00  0.00     0.021 A 
ATOM      8  C   UNL d   1     -45.496   9.855  23.656  0.00  0.00     0.002 A 
ATOM      9  C   UNL d   1     -44.760  10.206  23.497  0.00  0.00     0.002 A 
ENDROOT
BRANCH   2  10
ATOM     10  C   UNL d   1     -47.525  11.821  23.692  0.00  0.00     0.084 C 
BRANCH  10  11
ATOM     11  C   UNL d   1     -48.039  11.581  23.094  0.00  0.00     0.046 C 
BRANCH  11  12
ATOM     12  C   UNL d   1     -48.800  11.871  23.072  0.00  0.00     0.124 C 
BRANCH  12  13
ATOM     13  O   UNL d   1     -49.258  11.759  22.400  0.00  0.00    -0.305 OA
BRANCH  13  14
ATOM     14  C   UNL d   1     -49.832  12.312  22.197  0.00  0.00     0.100 A 
ATOM     15  C   UNL d   1     -50.358  12.572  22.762  0.00  0.00     0.025 A 
ATOM     16  C   UNL d   1     -50.925  13.117  22.564  0.00  0.00     0.002 A 
ATOM     17  C   UNL d   1     -50.971  13.411  21.788  0.00  0.00     0.000 A 
ATOM     18  C   UNL d   1     -50.434  13.141  21.227  0.00  0.00     0.002 A 
ATOM     19  C   UNL d   1     -49.867  12.591  21.437  0.00  0.00     0.025 A 
ENDBRANCH  13  14
ENDBRANCH  12  13
ENDBRANCH  11  12
ENDBRANCH  10  11
ENDBRANCH   2  10
BRANCH   3  20
ATOM     20  C   UNL d   1     -46.552  13.176  23.361  0.00  0.00     0.154 C 
BRANCH  20  21
ATOM     21  O   UNL d   1     -46.196  13.760  22.909  0.00  0.00    -0.323 OA
ATOM     22  C   UNL d   1     -46.383  14.551  22.755  0.00  0.00     0.182 C 
ENDBRANCH  20  21
ENDBRANCH   3  20
TORSDOF 7
ENDMDL
MODEL 7
REMARK VINA RESULT:      -5.5      1.344      4.374
REMARK  7 active torsions:
REMARK  status: ('A' for Active; 'I' for Inactive)
REMARK    1  A    between atoms: C_6  and  N_2 
REMARK    2  A    between atoms: C_7  and  C_3 
REMARK    3  A    between atoms: C_8  and  C_6 
REMARK    4  A    between atoms: O_13  and  C_7 
REMARK    5  A    between atoms: C_14  and  C_8 
REMARK    6  A    between atoms: C_9  and  O_12 
REMARK    7  A    between atoms: O_12  and  C_14 
ROOT
ATOM      1  N   UNL d   1     -45.564  12.517  23.202  0.00  0.00    -0.225 NA
ATOM      2  N   UNL d   1     -46.905  12.367  23.407  0.00  0.00    -0.287 N 
ATOM      3  C   UNL d   1     -46.159  11.975  23.453  0.00  0.00     0.172 A 
ATOM      4  C   UNL d   1     -46.781  13.143  23.131  0.00  0.00     0.083 A 
ATOM      5  C   UNL d   1     -45.952  13.236  23.004  0.00  0.00     0.099 A 
ATOM      6  C   UNL d   1     -47.292  13.776  22.977  0.00  0.00     0.019 A 
ATOM      7  C   UNL d   1     -45.654  13.958  22.726  0.00  0.00     0.021 A 
ATOM      8  C   UNL d   1     -46.985  14.500  22.697  0.00  0.00     0.002 A 
ATOM      9  C   UNL d   1     -46.169  14.591  22.572  0.00  0.00     0.002 A 
ENDROOT
BRANCH   2  10
ATOM     10  C   UNL d   1     -47.545  11.896  23.640  0.00  0.00     0.084 C 
BRANCH  10  11
ATOM     11  C   UNL d   1     -48.313  12.185  23.552  0.00  0.00     0.046 C 
BRANCH  11  12
ATOM     12  C   UNL d   1     -48.869  11.743  23.153  0.00  0.00     0.124 C 
BRANCH  12  13
ATOM     13  O   UNL d   1     -49.667  11.849  23.318  0.00  0.00    -0.305 OA
BRANCH  13  14
ATOM     14  C   UNL d   1     -50.135  12.293  22.808  0.00  0.00     0.100 A 
ATOM     15  C   UNL d   1     -50.601  12.890  23.106  0.00  0.00     0.025 A 
ATOM     16  C   UNL d   1     -51.064  13.328  22.605  0.00  0.00     0.002 A 
ATOM     17  C   UNL d   1     -51.064  13.170  21.789  0.00  0.00     0.000 A 
ATOM     18  C   UNL d   1     -50.590  12.564  21.500  0.00  0.00     0.002 A 
ATOM     19  C   UNL d   1     -50.127  12.128  22.014  0.00  0.00     0.025 A 
ENDBRANCH  13  14
ENDBRANCH  12  13
ENDBRANCH  11  12
ENDBRANCH  10  11
ENDBRANCH   2  10
BRANCH   3  20
ATOM     20  C   UNL d   1     -45.952  11.300  23.657  0.00  0.00     0.154 C 
BRANCH  20  21
ATOM     21  O   UNL d   1     -45.182  11.022  23.671  0.00  0.00    -0.323 OA
ATOM     22  C   UNL d   1     -44.853  10.263  23.694  0.00  0.00     0.182 C 
ENDBRANCH  20  21
ENDBRANCH   3  20
TORSDOF 7
ENDMDL
MODEL 8
REMARK VINA RESULT:      -5.5      8.671      9.658
REMARK  7 active torsions:
REMARK  status: ('A' for Active; 'I' for Inactive)
REMARK    1  A    between atoms: C_6  and  N_2 
REMARK    2  A    between atoms: C_7  and  C_3 
REMARK    3  A    between atoms: C_8  and  C_6 
REMARK    4  A    between atoms: O_13  and  C_7 
REMARK    5  A    between atoms: C_14  and  C_8 
REMARK    6  A    between atoms: C_9  and  O_12 
REMARK    7  A    between atoms: O_12  and  C_14 
ROOT
ATOM      1  N   UNL d   1     -39.613  14.303  17.096  0.00  0.00    -0.225 NA
ATOM      2  N   UNL d   1     -39.274  14.555  18.394  0.00  0.00    -0.287 N 
ATOM      3  C   UNL d   1     -39.748  14.821  17.748  0.00  0.00     0.172 A 
ATOM      4  C   UNL d   1     -38.849  13.881  18.154  0.00  0.00     0.083 A 
ATOM      5  C   UNL d   1     -39.058  13.725  17.351  0.00  0.00     0.099 A 
ATOM      6  C   UNL d   1     -38.307  13.388  18.538  0.00  0.00     0.019 A 
ATOM      7  C   UNL d   1     -38.721  13.080  16.953  0.00  0.00     0.021 A 
ATOM      8  C   UNL d   1     -37.971  12.741  18.133  0.00  0.00     0.002 A 
ATOM      9  C   UNL d   1     -38.177  12.587  17.342  0.00  0.00     0.002 A 
ENDROOT
BRANCH   2  10
ATOM     10  C   UNL d   1     -39.352  15.017  19.077  0.00  0.00     0.084 C 
BRANCH  10  11
ATOM     11  C   UNL d   1     -39.519  14.651  19.797  0.00  0.00     0.046 C 
BRANCH  11  12
ATOM     12  C   UNL d   1     -39.439  15.068  20.492  0.00  0.00     0.124 C 
BRANCH  12  13
ATOM     13  O   UNL d   1     -39.752  14.762  21.187  0.00  0.00    -0.305 OA
BRANCH  13  14
ATOM     14  C   UNL d   1     -39.408  14.951  21.910  0.00  0.00     0.100 A 
ATOM     15  C   UNL d   1     -39.447  15.716  22.187  0.00  0.00     0.025 A 
ATOM     16  C   UNL d   1     -39.109  15.905  22.900  0.00  0.00     0.002 A 
ATOM     17  C   UNL d   1     -38.723  15.320  23.347  0.00  0.00     0.000 A 
ATOM     18  C   UNL d   1     -38.691  14.552  23.057  0.00  0.00     0.002 A 
ATOM     19  C   UNL d   1     -39.035  14.373  22.338  0.00  0.00     0.025 A 
ENDBRANCH  13  14
ENDBRANCH  12  13
ENDBRANCH  11  12
ENDBRANCH  10  11
ENDBRANCH   2  10
BRANCH   3  20
ATOM     20  C   UNL d   1     -40.218  15.378  17.658  0.00  0.00     0.154 C 
BRANCH  20  21
ATOM     21  O   UNL d   1     -40.661  15.524  16.985  0.00  0.00    -0.323 OA
ATOM     22  C   UNL d   1     -41.375  15.919  16.850  0.00  0.00     0.182 C 
ENDBRANCH  20  21
ENDBRANCH   3  20
TORSDOF 7
ENDMDL
MODEL 9
REMARK VINA RESULT:      -5.0      1.772      4.692
REMARK  7 active torsions:
REMARK  status: ('A' for Active; 'I' for Inactive)
REMARK    1  A    between atoms: C_6  and  N_2 
REMARK    2  A    between atoms: C_7  and  C_3 
REMARK    3  A    between atoms: C_8  and  C_6 
REMARK    4  A    between atoms: O_13  and  C_7 
REMARK    5  A    between atoms: C_14  and  C_8 
REMARK    6  A    between atoms: C_9  and  O_12 
REMARK    7  A    between atoms: O_12  and  C_14 
ROOT
ATOM      1  N   UNL d   1     -45.941  11.849  23.032  0.00  0.00    -0.225 NA
ATOM      2  N   UNL d   1     -46.643  13.019  23.053  0.00  0.00    -0.287 N 
ATOM      3  C   UNL d   1     -46.650  12.214  23.306  0.00  0.00     0.172 A 
ATOM      4  C   UNL d   1     -45.941  13.159  22.627  0.00  0.00     0.083 A 
ATOM      5  C   UNL d   1     -45.507  12.435  22.614  0.00  0.00     0.099 A 
ATOM      6  C   UNL d   1     -45.632  13.828  22.252  0.00  0.00     0.019 A 
ATOM      7  C   UNL d   1     -44.775  12.399  22.226  0.00  0.00     0.021 A 
ATOM      8  C   UNL d   1     -44.895  13.786  21.863  0.00  0.00     0.002 A 
ATOM      9  C   UNL d   1     -44.468  13.073  21.850  0.00  0.00     0.002 A 
ENDROOT
BRANCH   2  10
ATOM     10  C   UNL d   1     -47.312  13.448  23.286  0.00  0.00     0.084 C 
BRANCH  10  11
ATOM     11  C   UNL d   1     -47.569  14.080  22.823  0.00  0.00     0.046 C 
BRANCH  11  12
ATOM     12  C   UNL d   1     -48.218  14.515  23.055  0.00  0.00     0.124 C 
BRANCH  12  13
ATOM     13  O   UNL d   1     -48.736  14.806  22.487  0.00  0.00    -0.305 OA
BRANCH  13  14
ATOM     14  C   UNL d   1     -49.477  15.083  22.711  0.00  0.00     0.100 A 
ATOM     15  C   UNL d   1     -50.143  14.801  22.337  0.00  0.00     0.025 A 
ATOM     16  C   UNL d   1     -50.874  15.073  22.556  0.00  0.00     0.002 A 
ATOM     17  C   UNL d   1     -50.947  15.639  23.161  0.00  0.00     0.000 A 
ATOM     18  C   UNL d   1     -50.267  15.916  23.530  0.00  0.00     0.002 A 
ATOM     19  C   UNL d   1     -49.535  15.636  23.302  0.00  0.00     0.025 A 
ENDBRANCH  13  14
ENDBRANCH  12  13
ENDBRANCH  11  12
ENDBRANCH  10  11
ENDBRANCH   2  10
BRANCH   3  20
ATOM     20  C   UNL d   1     -47.125  11.806  23.691  0.00  0.00     0.154 C 
BRANCH  20  21
ATOM     21  O   UNL d   1     -47.451  11.096  23.446  0.00  0.00    -0.323 OA
ATOM     22  C   UNL d   1     -48.193  10.747  23.550  0.00  0.00     0.182 C 
ENDBRANCH  20  21
ENDBRANCH   3  20
TORSDOF 7
ENDMDL
