MODEL 1
REMARK VINA RESULT:      69.0      0.000      0.000
REMARK  8 active torsions:
REMARK  status: ('A' for Active; 'I' for Inactive)
REMARK    1  A    between atoms: N_7  and  N_1 
REMARK    2  A    between atoms: S_9  and  C_2 
REMARK       I    between atoms: C_8  and  N_7 
REMARK    3  A    between atoms: C_16  and  C_8 
REMARK    4  A    between atoms: C_15  and  S_9 
REMARK    5  A    between atoms: C_10  and  C_15 
REMARK       I    between atoms: N_12  and  C_10 
REMARK    6  A    between atoms: C_17  and  N_12 
REMARK    7  A    between atoms: C_19  and  C_16 
REMARK    8  A    between atoms: C_20  and  C_17 
ROOT
ATOM      1  N   UNL d   1      43.880 -15.925  37.731  0.00  0.00    -0.168 N 
ATOM      2  C   UNL d   1      43.546 -16.411  38.285  0.00  0.00     0.199 A 
ATOM      3  C   UNL d   1      43.428 -15.647  37.095  0.00  0.00     0.283 A 
ATOM      4  N   UNL d   1      42.740 -16.641  38.226  0.00  0.00    -0.221 NA
ATOM      5  C   UNL d   1      42.623 -15.874  37.031  0.00  0.00     0.076 A 
ATOM      6  C   UNL d   1      42.283 -16.370  37.596  0.00  0.00     0.088 A 
ATOM      7  O   UNL d   1      43.763 -15.151  36.527  0.00  0.00    -0.265 OA
ATOM      8  C   UNL d   1      42.176 -15.593  36.392  0.00  0.00     0.006 A 
ATOM      9  C   UNL d   1      41.497 -16.586  37.525  0.00  0.00     0.019 A 
ATOM     10  C   UNL d   1      41.383 -15.819  36.332  0.00  0.00     0.000 A 
ATOM     11  C   UNL d   1      41.043 -16.315  36.897  0.00  0.00     0.002 A 
ENDROOT
BRANCH   2  12
ATOM     12  S   UNL d   1      43.990 -16.683  38.910  0.00  0.00    -0.043 SA
BRANCH  12  13
ATOM     13  C   UNL d   1      44.357 -17.420  38.868  0.00  0.00     0.101 C 
BRANCH  13  14
ATOM     14  C   UNL d   1      45.071 -17.544  39.246  0.00  0.00     0.286 C 
ATOM     15  N   UNL d   1      45.100 -17.596  40.065  0.00  0.00    -0.206 NA
ATOM     16  O   UNL d   1      45.764 -17.618  38.805  0.00  0.00    -0.265 OA
BRANCH  15  17
ATOM     17  C   UNL d   1      45.814 -17.720  40.444  0.00  0.00     0.102 C 
BRANCH  17  18
ATOM     18  C   UNL d   1      45.892 -18.331  40.986  0.00  0.00     0.019 A 
ATOM     19  C   UNL d   1      45.305 -18.466  41.551  0.00  0.00     0.002 A 
ATOM     20  C   UNL d   1      45.383 -19.077  42.092  0.00  0.00     0.000 A 
ATOM     21  C   UNL d   1      46.050 -19.560  42.074  0.00  0.00     0.000 A 
ATOM     22  C   UNL d   1      46.637 -19.425  41.508  0.00  0.00     0.000 A 
ATOM     23  C   UNL d   1      46.559 -18.815  40.967  0.00  0.00     0.002 A 
ENDBRANCH  17  18
ENDBRANCH  15  17
ENDBRANCH  13  14
ENDBRANCH  12  13
ENDBRANCH   2  12
BRANCH   1  24
ATOM     24  N   UNL d   1      44.663 -15.703  37.793  0.00  0.00    -0.119 NA
ATOM     25  C   UNL d   1      45.136 -15.701  37.128  0.00  0.00     0.296 C 
ATOM     26  O   UNL d   1      44.833 -15.920  36.392  0.00  0.00    -0.264 OA
BRANCH  25  27
ATOM     27  C   UNL d   1      45.930 -15.476  37.193  0.00  0.00     0.064 C 
BRANCH  27  28
ATOM     28  C   UNL d   1      46.132 -14.693  37.126  0.00  0.00     0.005 A 
ATOM     29  C   UNL d   1      46.029 -14.309  36.403  0.00  0.00     0.000 A 
ATOM     30  C   UNL d   1      46.235 -13.513  36.335  0.00  0.00     0.000 A 
ATOM     31  C   UNL d   1      46.536 -13.111  36.974  0.00  0.00     0.000 A 
ATOM     32  C   UNL d   1      46.637 -13.506  37.697  0.00  0.00     0.000 A 
ATOM     33  C   UNL d   1      46.434 -14.291  37.765  0.00  0.00     0.000 A 
ENDBRANCH  27  28
ENDBRANCH  25  27
ENDBRANCH   1  24
TORSDOF 8
ENDMDL
