MODEL 1
REMARK VINA RESULT:      28.4      0.000      0.000
REMARK  5 active torsions:
REMARK  status: ('A' for Active; 'I' for Inactive)
REMARK    1  A    between atoms: C_16  and  N_3 
REMARK    2  A    between atoms: C_11  and  C_6 
REMARK       I    between atoms: N_20  and  C_11 
REMARK    3  A    between atoms: C_21  and  N_20 
REMARK    4  A    between atoms: C_23  and  C_21 
REMARK    5  A    between atoms: C_22  and  C_23 
ROOT
ATOM      1  C   UNL d   1      46.395 -18.920  42.831  0.00  0.00     0.155 A 
ATOM      2  C   UNL d   1      46.418 -18.202  42.422  0.00  0.00     0.091 A 
ATOM      3  N   UNL d   1      46.327 -18.926  43.649  0.00  0.00    -0.275 N 
ATOM      4  N   UNL d   1      46.441 -19.628  42.414  0.00  0.00    -0.210 NA
ATOM      5  C   UNL d   1      46.280 -18.213  44.082  0.00  0.00     0.175 A 
ATOM      6  C   UNL d   1      46.303 -17.491  43.671  0.00  0.00     0.094 A 
ATOM      7  C   UNL d   1      46.487 -18.190  41.599  0.00  0.00     0.269 A 
ATOM      8  N   UNL d   1      46.532 -18.902  41.184  0.00  0.00    -0.258 N 
ATOM      9  C   UNL d   1      46.510 -19.628  41.588  0.00  0.00     0.152 A 
ATOM     10  C   UNL d   1      46.373 -17.479  42.839  0.00  0.00     0.016 A 
ATOM     11  N   UNL d   1      46.212 -18.222  44.903  0.00  0.00    -0.128 N 
ATOM     12  C   UNL d   1      46.601 -18.897  40.356  0.00  0.00     0.084 A 
ATOM     13  O   UNL d   1      46.510 -17.471  41.189  0.00  0.00    -0.266 OA
ATOM     14  C   UNL d   1      46.555 -20.330  41.173  0.00  0.00     0.038 A 
ATOM     15  C   UNL d   1      46.645 -19.606  39.954  0.00  0.00     0.019 A 
ATOM     16  C   UNL d   1      46.622 -20.328  40.366  0.00  0.00     0.005 A 
ENDROOT
BRANCH   6  17
ATOM     17  C   UNL d   1      46.258 -16.779  44.085  0.00  0.00     0.282 C 
ATOM     18  O   UNL d   1      46.221 -16.776  44.908  0.00  0.00    -0.265 OA
ATOM     19  N   UNL d   1      46.249 -16.058  43.669  0.00  0.00    -0.206 NA
BRANCH  19  20
ATOM     20  C   UNL d   1      46.204 -15.346  44.082  0.00  0.00     0.102 C 
BRANCH  20  21
ATOM     21  C   UNL d   1      46.268 -14.632  43.677  0.00  0.00     0.021 C 
BRANCH  21  22
ATOM     22  C   UNL d   1      45.756 -14.010  43.849  0.00  0.00     0.002 A 
ATOM     23  C   UNL d   1      45.928 -13.501  44.472  0.00  0.00     0.000 A 
ATOM     24  C   UNL d   1      45.422 -12.877  44.649  0.00  0.00     0.000 A 
ATOM     25  C   UNL d   1      44.739 -12.769  44.193  0.00  0.00     0.000 A 
ATOM     26  C   UNL d   1      44.574 -13.287  43.568  0.00  0.00     0.000 A 
ATOM     27  C   UNL d   1      45.083 -13.902  43.401  0.00  0.00     0.000 A 
ENDBRANCH  21  22
ENDBRANCH  20  21
ENDBRANCH  19  20
ENDBRANCH   6  17
BRANCH   3  28
ATOM     28  C   UNL d   1      46.304 -19.648  44.060  0.00  0.00     0.067 C 
ATOM     29  C   UNL d   1      46.571 -19.682  44.847  0.00  0.00     0.019 C 
ATOM     30  C   UNL d   1      46.018 -20.328  43.692  0.00  0.00     0.019 C 
ENDBRANCH   3  28
TORSDOF 5
ENDMDL
