MODEL 1
REMARK VINA RESULT:      11.1      0.000      0.000
REMARK  8 active torsions:
REMARK  status: ('A' for Active; 'I' for Inactive)
REMARK    1  A    between atoms: N_7  and  N_1 
REMARK    2  A    between atoms: S_9  and  C_2 
REMARK       I    between atoms: C_8  and  N_7 
REMARK    3  A    between atoms: C_19  and  C_8 
REMARK    4  A    between atoms: C_18  and  S_9 
REMARK    5  A    between atoms: C_10  and  C_18 
REMARK       I    between atoms: N_13  and  C_10 
REMARK    6  A    between atoms: C_12  and  C_14 
REMARK    7  A    between atoms: C_14  and  N_13 
REMARK    8  A    between atoms: C_22  and  C_19 
ROOT
ATOM      1  N   UNL d   1     -41.542-121.245 -52.493  0.00  0.00    -0.168 N 
ATOM      2  C   UNL d   1     -41.500-121.423 -51.705  0.00  0.00     0.199 A 
ATOM      3  C   UNL d   1     -41.469-120.460 -52.747  0.00  0.00     0.283 A 
ATOM      4  N   UNL d   1     -41.383-120.818 -51.133  0.00  0.00    -0.221 NA
ATOM      5  C   UNL d   1     -41.352-119.853 -52.181  0.00  0.00     0.076 A 
ATOM      6  C   UNL d   1     -41.310-120.035 -51.377  0.00  0.00     0.088 A 
ATOM      7  O   UNL d   1     -41.511-120.273 -53.549  0.00  0.00    -0.265 OA
ATOM      8  C   UNL d   1     -41.280-119.069 -52.441  0.00  0.00     0.006 A 
ATOM      9  C   UNL d   1     -41.196-119.435 -50.831  0.00  0.00     0.019 A 
ATOM     10  C   UNL d   1     -41.165-118.473 -51.879  0.00  0.00     0.000 A 
ATOM     11  C   UNL d   1     -41.123-118.654 -51.076  0.00  0.00     0.002 A 
ENDROOT
BRANCH   2  12
ATOM     12  S   UNL d   1     -41.572-122.195 -51.456  0.00  0.00    -0.043 SA
BRANCH  12  13
ATOM     13  C   UNL d   1     -42.053-122.379 -50.812  0.00  0.00     0.101 C 
BRANCH  13  14
ATOM     14  C   UNL d   1     -41.924-123.066 -50.389  0.00  0.00     0.286 C 
ATOM     15  N   UNL d   1     -42.051-123.080 -49.578  0.00  0.00    -0.206 NA
ATOM     16  O   UNL d   1     -41.665-123.747 -50.776  0.00  0.00    -0.265 OA
BRANCH  15  17
ATOM     17  C   UNL d   1     -41.921-123.768 -49.153  0.00  0.00     0.103 C 
BRANCH  17  18
ATOM     18  C   UNL d   1     -41.900-123.747 -48.333  0.00  0.00     0.030 A 
ATOM     19  C   UNL d   1     -42.599-123.678 -47.899  0.00  0.00     0.059 A 
ATOM     20 CL   UNL d   1     -43.322-123.628 -48.294  0.00  0.00    -0.082 Cl
ATOM     21  C   UNL d   1     -42.578-123.657 -47.080  0.00  0.00     0.011 A 
ATOM     22  C   UNL d   1     -41.856-123.707 -46.686  0.00  0.00     0.001 A 
ATOM     23  C   UNL d   1     -41.157-123.777 -47.121  0.00  0.00     0.000 A 
ATOM     24  C   UNL d   1     -41.178-123.797 -47.939  0.00  0.00     0.002 A 
ENDBRANCH  17  18
ENDBRANCH  15  17
ENDBRANCH  13  14
ENDBRANCH  12  13
ENDBRANCH   2  12
BRANCH   1  25
ATOM     25  N   UNL d   1     -41.656-121.836 -53.045  0.00  0.00    -0.119 NA
ATOM     26  C   UNL d   1     -42.313-121.816 -53.529  0.00  0.00     0.296 C 
ATOM     27  O   UNL d   1     -42.865-121.206 -53.467  0.00  0.00    -0.264 OA
BRANCH  26  28
ATOM     28  C   UNL d   1     -42.426-122.416 -54.088  0.00  0.00     0.064 C 
BRANCH  28  29
ATOM     29  C   UNL d   1     -42.262-122.273 -54.869  0.00  0.00     0.005 A 
ATOM     30  C   UNL d   1     -42.863-122.006 -55.367  0.00  0.00     0.000 A 
ATOM     31  C   UNL d   1     -42.696-121.860 -56.162  0.00  0.00     0.000 A 
ATOM     32  C   UNL d   1     -41.946-121.979 -56.451  0.00  0.00     0.000 A 
ATOM     33  C   UNL d   1     -41.347-122.249 -55.943  0.00  0.00     0.000 A 
ATOM     34  C   UNL d   1     -41.512-122.392 -55.159  0.00  0.00     0.000 A 
ENDBRANCH  28  29
ENDBRANCH  26  28
ENDBRANCH   1  25
TORSDOF 8
ENDMDL
