MODEL 1
REMARK VINA RESULT:      19.6      0.000      0.000
REMARK  6 active torsions:
REMARK  status: ('A' for Active; 'I' for Inactive)
REMARK    1  A    between atoms: S_3  and  C_1 
REMARK    2  A    between atoms: C_11  and  S_3 
REMARK    3  A    between atoms: S_8  and  C_4 
REMARK    4  A    between atoms: C_7  and  C_5 
REMARK    5  A    between atoms: C_16  and  S_8 
REMARK    6  A    between atoms: C_19  and  C_16 
ROOT
ATOM      1  C   UNL d   1      46.169 -17.645  43.229  0.00  0.00     0.200 A 
ATOM      2  N   UNL d   1      45.865 -16.876  43.227  0.00  0.00    -0.206 NA
ATOM      3  C   UNL d   1      46.333 -17.852  44.014  0.00  0.00     0.160 A 
ATOM      4  C   UNL d   1      45.839 -16.606  44.012  0.00  0.00     0.207 A 
ATOM      5  O   UNL d   1      46.130 -17.214  44.491  0.00  0.00    -0.279 OA
ENDROOT
BRANCH   1   6
ATOM      6  S   UNL d   1      46.287 -18.116  42.560  0.00  0.00     0.229 S 
ATOM      7  O   UNL d   1      46.607 -17.450  42.198  0.00  0.00    -0.215 OA
ATOM      8  O   UNL d   1      45.967 -18.787  42.917  0.00  0.00    -0.215 OA
BRANCH   6   9
ATOM      9  C   UNL d   1      46.400 -18.596  41.895  0.00  0.00     0.089 A 
ATOM     10  C   UNL d   1      46.387 -19.424  41.961  0.00  0.00     0.011 A 
ATOM     11  C   UNL d   1      46.499 -19.891  41.304  0.00  0.00     0.001 A 
ATOM     12  C   UNL d   1      46.627 -19.542  40.569  0.00  0.00     0.000 A 
ATOM     13  C   UNL d   1      46.642 -18.726  40.493  0.00  0.00     0.001 A 
ATOM     14  C   UNL d   1      46.529 -18.247  41.154  0.00  0.00     0.011 A 
ENDBRANCH   6   9
ENDBRANCH   1   6
BRANCH   3  15
ATOM     15  S   UNL d   1      46.645 -18.573  44.270  0.00  0.00    -0.060 SA
BRANCH  15  16
ATOM     16  C   UNL d   1      46.344 -18.930  44.952  0.00  0.00     0.037 C 
BRANCH  16  17
ATOM     17  C   UNL d   1      46.077 -19.710  44.929  0.00  0.00     0.006 C 
ATOM     18  C   UNL d   1      45.266 -19.865  44.949  0.00  0.00     0.001 C 
ATOM     19  C   UNL d   1      46.620 -20.327  44.885  0.00  0.00     0.001 C 
ENDBRANCH  16  17
ENDBRANCH  15  16
ENDBRANCH   3  15
BRANCH   4  20
ATOM     20  C   UNL d   1      45.571 -15.863  44.264  0.00  0.00     0.141 A 
ATOM     21  O   UNL d   1      45.858 -15.124  44.013  0.00  0.00    -0.302 OA
ATOM     22  C   UNL d   1      45.440 -14.540  44.399  0.00  0.00     0.123 A 
ATOM     23  C   UNL d   1      44.887 -14.897  44.895  0.00  0.00     0.029 A 
ATOM     24  C   UNL d   1      44.966 -15.713  44.813  0.00  0.00     0.030 A 
ENDBRANCH   4  20
TORSDOF 6
ENDMDL
MODEL 2
REMARK VINA RESULT:      21.7      0.750      3.773
REMARK  6 active torsions:
REMARK  status: ('A' for Active; 'I' for Inactive)
REMARK    1  A    between atoms: S_3  and  C_1 
REMARK    2  A    between atoms: C_11  and  S_3 
REMARK    3  A    between atoms: S_8  and  C_4 
REMARK    4  A    between atoms: C_7  and  C_5 
REMARK    5  A    between atoms: C_16  and  S_8 
REMARK    6  A    between atoms: C_19  and  C_16 
ROOT
ATOM      1  C   UNL d   1      45.973 -17.355  43.401  0.00  0.00     0.200 A 
ATOM      2  N   UNL d   1      46.083 -17.441  42.586  0.00  0.00    -0.206 NA
ATOM      3  C   UNL d   1      46.074 -18.100  43.752  0.00  0.00     0.160 A 
ATOM      4  C   UNL d   1      46.253 -18.239  42.431  0.00  0.00     0.207 A 
ATOM      5  O   UNL d   1      46.246 -18.638  43.155  0.00  0.00    -0.279 OA
ENDROOT
BRANCH   1   6
ATOM      6  S   UNL d   1      45.793 -16.648  43.789  0.00  0.00     0.229 S 
ATOM      7  O   UNL d   1      46.511 -16.730  44.182  0.00  0.00    -0.215 OA
ATOM      8  O   UNL d   1      45.072 -16.561  43.398  0.00  0.00    -0.215 OA
BRANCH   6   9
ATOM      9  C   UNL d   1      45.604 -15.939  44.172  0.00  0.00     0.089 A 
ATOM     10  C   UNL d   1      46.166 -15.331  44.242  0.00  0.00     0.011 A 
ATOM     11  C   UNL d   1      45.976 -14.636  44.620  0.00  0.00     0.001 A 
ATOM     12  C   UNL d   1      45.222 -14.533  44.935  0.00  0.00     0.000 A 
ATOM     13  C   UNL d   1      44.661 -15.127  44.872  0.00  0.00     0.001 A 
ATOM     14  C   UNL d   1      44.847 -15.833  44.490  0.00  0.00     0.011 A 
ENDBRANCH   6   9
ENDBRANCH   1   6
BRANCH   3  15
ATOM     15  S   UNL d   1      46.013 -18.267  44.558  0.00  0.00    -0.060 SA
BRANCH  15  16
ATOM     16  C   UNL d   1      46.456 -18.886  44.882  0.00  0.00     0.037 C 
BRANCH  16  17
ATOM     17  C   UNL d   1      46.138 -19.646  44.927  0.00  0.00     0.006 C 
ATOM     18  C   UNL d   1      46.643 -20.299  44.948  0.00  0.00     0.001 C 
ATOM     19  C   UNL d   1      45.321 -19.745  44.951  0.00  0.00     0.001 C 
ENDBRANCH  16  17
ENDBRANCH  15  16
ENDBRANCH   3  15
BRANCH   4  20
ATOM     20  C   UNL d   1      46.402 -18.571  41.685  0.00  0.00     0.141 A 
ATOM     21  O   UNL d   1      46.469 -18.157  40.967  0.00  0.00    -0.302 OA
ATOM     22  C   UNL d   1      46.616 -18.696  40.373  0.00  0.00     0.123 A 
ATOM     23  C   UNL d   1      46.645 -19.450  40.703  0.00  0.00     0.029 A 
ATOM     24  C   UNL d   1      46.513 -19.375  41.513  0.00  0.00     0.030 A 
ENDBRANCH   4  20
TORSDOF 6
ENDMDL
