MODEL 1
REMARK VINA RESULT:      18.8      0.000      0.000
REMARK  2 active torsions:
REMARK  status: ('A' for Active; 'I' for Inactive)
REMARK    1  A    between atoms: N_2  and  S_1 
REMARK    2  A    between atoms: C_8  and  S_1 
ROOT
ATOM      1  N   UNL d   1      59.326  49.693  50.339  0.00  0.00    -0.231 N 
ATOM      2  C   UNL d   1      59.842  49.698  49.704  0.00  0.00     0.092 A 
ATOM      3  C   UNL d   1      59.780  49.693  51.029  0.00  0.00     0.075 A 
ATOM      4  C   UNL d   1      60.613  49.700  49.992  0.00  0.00     0.021 A 
ATOM      5  C   UNL d   1      60.578  49.697  50.814  0.00  0.00     0.018 A 
ATOM      6  C   UNL d   1      59.567  49.689  51.823  0.00  0.00     0.018 A 
ATOM      7  C   UNL d   1      61.160  49.697  51.393  0.00  0.00     0.002 A 
ATOM      8  C   UNL d   1      60.152  49.689  52.408  0.00  0.00     0.002 A 
ATOM      9  C   UNL d   1      60.950  49.693  52.192  0.00  0.00     0.000 A 
ENDROOT
BRANCH   1  10
ATOM     10  S   UNL d   1      58.502  49.690  50.300  0.00  0.00     0.271 S 
ATOM     11  O   UNL d   1      58.466  49.705  51.128  0.00  0.00    -0.200 OA
ATOM     12  O   UNL d   1      58.543  49.675  49.475  0.00  0.00    -0.200 OA
BRANCH  10  13
ATOM     13  C   UNL d   1      57.676  49.686  50.257  0.00  0.00     0.104 A 
ATOM     14  C   UNL d   1      57.224  49.708  50.942  0.00  0.00     0.013 A 
ATOM     15  C   UNL d   1      56.409  49.704  50.899  0.00  0.00     0.001 A 
ATOM     16  C   UNL d   1      56.033  49.679  50.162  0.00  0.00     0.000 A 
ATOM     17  C   UNL d   1      56.478  49.658  49.474  0.00  0.00     0.001 A 
ATOM     18  C   UNL d   1      57.303  49.661  49.518  0.00  0.00     0.013 A 
ENDBRANCH  10  13
ENDBRANCH   1  10
TORSDOF 2
ENDMDL
