MODEL 1
REMARK VINA RESULT:      -2.5      0.000      0.000
REMARK  7 active torsions:
REMARK  status: ('A' for Active; 'I' for Inactive)
REMARK    1  A    between atoms: S_10  and  C_3 
REMARK    2  A    between atoms: C_12  and  C_7 
REMARK    3  A    between atoms: C_19  and  S_10 
REMARK    4  A    between atoms: C_11  and  C_19 
REMARK       I    between atoms: N_14  and  C_11 
REMARK    5  A    between atoms: C_13  and  C_15 
REMARK    6  A    between atoms: C_15  and  N_14 
REMARK    7  A    between atoms: O_21  and  C_17 
ROOT
ATOM      1  N   UNL d   1      59.510  -0.638  29.839  0.00  0.00    -0.186 N 
ATOM      2  N   UNL d   1      59.323  -1.396  29.601  0.00  0.00    -0.162 NA
ATOM      3  C   UNL d   1      59.043  -0.024  30.137  0.00  0.00     0.217 A 
ATOM      4  C   UNL d   1      60.285  -0.364  29.805  0.00  0.00     0.187 A 
ATOM      5  N   UNL d   1      59.534   0.613  30.279  0.00  0.00    -0.120 NA
ATOM      6  N   UNL d   1      60.304   0.404  30.074  0.00  0.00    -0.127 NA
ATOM      7  C   UNL d   1      59.922  -1.893  29.323  0.00  0.00     0.103 A 
ATOM      8  C   UNL d   1      60.884  -0.865  29.524  0.00  0.00     0.042 A 
ATOM      9  C   UNL d   1      60.703  -1.623  29.286  0.00  0.00     0.024 A 
ENDROOT
BRANCH   3  10
ATOM     10  S   UNL d   1      58.230  -0.032  30.272  0.00  0.00    -0.041 SA
BRANCH  10  11
ATOM     11  C   UNL d   1      57.899   0.456  30.831  0.00  0.00     0.101 C 
BRANCH  11  12
ATOM     12  C   UNL d   1      57.095   0.583  30.841  0.00  0.00     0.286 C 
ATOM     13  N   UNL d   1      56.699   0.682  31.557  0.00  0.00    -0.206 NA
ATOM     14  O   UNL d   1      56.658   0.616  30.140  0.00  0.00    -0.265 OA
BRANCH  13  15
ATOM     15  C   UNL d   1      57.126   0.651  32.262  0.00  0.00     0.104 C 
BRANCH  15  16
ATOM     16  C   UNL d   1      56.725   0.593  32.982  0.00  0.00     0.042 A 
ATOM     17  C   UNL d   1      57.153   0.518  33.689  0.00  0.00     0.096 A 
ATOM     18  C   UNL d   1      56.756   0.460  34.413  0.00  0.00     0.024 A 
ATOM     19  C   UNL d   1      55.923   0.476  34.421  0.00  0.00     0.002 A 
ATOM     20  C   UNL d   1      55.505   0.550  33.714  0.00  0.00     0.000 A 
ATOM     21  C   UNL d   1      55.901   0.608  32.998  0.00  0.00     0.004 A 
BRANCH  17  22
ATOM     22  O   UNL d   1      57.977   0.502  33.681  0.00  0.00    -0.328 OA
ATOM     23  C   UNL d   1      58.399   0.665  34.360  0.00  0.00     0.181 C 
ENDBRANCH  17  22
ENDBRANCH  15  16
ENDBRANCH  13  15
ENDBRANCH  11  12
ENDBRANCH  10  11
ENDBRANCH   3  10
BRANCH   7  24
ATOM     24  C   UNL d   1      59.728  -2.660  29.084  0.00  0.00     0.039 A 
ATOM     25  C   UNL d   1      58.977  -2.845  28.850  0.00  0.00     0.101 A 
ATOM     26  N   UNL d   1      58.792  -3.599  28.616  0.00  0.00    -0.242 NA
ATOM     27  C   UNL d   1      59.370  -4.188  28.614  0.00  0.00     0.099 A 
ATOM     28  C   UNL d   1      60.133  -4.001  28.852  0.00  0.00     0.021 A 
ATOM     29  C   UNL d   1      60.320  -3.233  29.090  0.00  0.00     0.005 A 
ENDBRANCH   7  24
TORSDOF 7
ENDMDL
