MODEL 1
REMARK VINA RESULT:      -2.7      0.000      0.000
REMARK  3 active torsions:
REMARK  status: ('A' for Active; 'I' for Inactive)
REMARK    1  A    between atoms: C_8  and  C_6 
REMARK    2  A    between atoms: C_9  and  C_8 
REMARK       I    between atoms: N_10  and  C_9 
REMARK    3  A    between atoms: C_14  and  N_10 
ROOT
ATOM      1  N   UNL d   1      30.806  16.331 -23.341  0.00  0.00    -0.207 NA
ATOM      2  N   UNL d   1      30.851  17.745 -24.241  0.00  0.00    -0.240 NA
ATOM      3  C   UNL d   1      31.396  16.872 -23.479  0.00  0.00     0.297 A 
ATOM      4  C   UNL d   1      30.028  16.317 -23.613  0.00  0.00     0.086 A 
ATOM      5  C   UNL d   1      30.073  17.531 -24.384  0.00  0.00     0.083 A 
ATOM      6  C   UNL d   1      31.409  17.350 -23.784  0.00  0.00     0.144 A 
ATOM      7  C   UNL d   1      29.651  16.873 -24.109  0.00  0.00     0.035 A 
ATOM      8  O   UNL d   1      32.114  16.710 -23.115  0.00  0.00    -0.264 OA
ATOM      9  C   UNL d   1      28.861  16.757 -24.320  0.00  0.00     0.003 A 
ATOM     10  C   UNL d   1      29.701  18.080 -24.874  0.00  0.00     0.019 A 
ATOM     11  C   UNL d   1      29.610  15.660 -23.338  0.00  0.00     0.019 A 
ATOM     12  C   UNL d   1      28.820  15.552 -23.553  0.00  0.00     0.002 A 
ATOM     13  C   UNL d   1      28.899  17.969 -25.092  0.00  0.00     0.002 A 
ATOM     14  C   UNL d   1      28.448  16.101 -24.043  0.00  0.00     0.000 A 
ATOM     15  C   UNL d   1      28.485  17.313 -24.815  0.00  0.00     0.000 A 
ENDROOT
BRANCH   6  16
ATOM     16  C   UNL d   1      32.140  17.728 -23.765  0.00  0.00     0.086 C 
BRANCH  16  17
ATOM     17  C   UNL d   1      32.638  17.687 -24.431  0.00  0.00     0.281 C 
ATOM     18  N   UNL d   1      33.134  18.322 -24.614  0.00  0.00    -0.208 NA
ATOM     19  O   UNL d   1      32.639  17.014 -24.909  0.00  0.00    -0.265 OA
BRANCH  18  20
ATOM     20  C   UNL d   1      33.137  18.998 -24.138  0.00  0.00     0.085 A 
ATOM     21  C   UNL d   1      33.040  19.741 -24.478  0.00  0.00     0.019 A 
ATOM     22  C   UNL d   1      33.043  20.413 -24.001  0.00  0.00     0.002 A 
ATOM     23  C   UNL d   1      33.143  20.341 -23.186  0.00  0.00     0.000 A 
ATOM     24  C   UNL d   1      33.241  19.589 -22.847  0.00  0.00     0.002 A 
ATOM     25  C   UNL d   1      33.147  20.999 -22.718  0.00  0.00     0.000 C 
ATOM     26  C   UNL d   1      33.237  18.921 -23.327  0.00  0.00     0.019 A 
ENDBRANCH  18  20
ENDBRANCH  16  17
ENDBRANCH   6  16
TORSDOF 3
ENDMDL
MODEL 2
REMARK VINA RESULT:      -2.6      0.807      1.563
REMARK  3 active torsions:
REMARK  status: ('A' for Active; 'I' for Inactive)
REMARK    1  A    between atoms: C_8  and  C_6 
REMARK    2  A    between atoms: C_9  and  C_8 
REMARK       I    between atoms: N_10  and  C_9 
REMARK    3  A    between atoms: C_14  and  N_10 
ROOT
ATOM      1  N   UNL d   1      29.926  18.073 -24.730  0.00  0.00    -0.207 NA
ATOM      2  N   UNL d   1      31.169  17.265 -23.948  0.00  0.00    -0.240 NA
ATOM      3  C   UNL d   1      30.709  18.256 -24.615  0.00  0.00     0.297 A 
ATOM      4  C   UNL d   1      29.496  17.413 -24.486  0.00  0.00     0.086 A 
ATOM      5  C   UNL d   1      30.568  16.724 -23.817  0.00  0.00     0.083 A 
ATOM      6  C   UNL d   1      31.128  17.981 -24.350  0.00  0.00     0.144 A 
ATOM      7  C   UNL d   1      29.774  16.756 -24.052  0.00  0.00     0.035 A 
ATOM      8  O   UNL d   1      30.955  18.970 -24.938  0.00  0.00    -0.264 OA
ATOM      9  C   UNL d   1      29.250  16.147 -23.862  0.00  0.00     0.003 A 
ATOM     10  C   UNL d   1      30.842  16.076 -23.387  0.00  0.00     0.019 A 
ATOM     11  C   UNL d   1      28.705  17.447 -24.722  0.00  0.00     0.019 A 
ATOM     12  C   UNL d   1      28.188  16.834 -24.528  0.00  0.00     0.002 A 
ATOM     13  C   UNL d   1      30.316  15.453 -23.191  0.00  0.00     0.002 A 
ATOM     14  C   UNL d   1      28.462  16.185 -24.099  0.00  0.00     0.000 A 
ATOM     15  C   UNL d   1      29.528  15.491 -23.428  0.00  0.00     0.000 A 
ENDROOT
BRANCH   6  16
ATOM     16  C   UNL d   1      31.846  18.383 -24.373  0.00  0.00     0.086 C 
BRANCH  16  17
ATOM     17  C   UNL d   1      32.551  17.953 -24.480  0.00  0.00     0.281 C 
ATOM     18  N   UNL d   1      33.238  18.185 -24.083  0.00  0.00    -0.208 NA
ATOM     19  O   UNL d   1      32.567  17.297 -24.981  0.00  0.00    -0.265 OA
BRANCH  18  20
ATOM     20  C   UNL d   1      33.227  18.841 -23.581  0.00  0.00     0.085 A 
ATOM     21  C   UNL d   1      33.241  19.601 -23.896  0.00  0.00     0.019 A 
ATOM     22  C   UNL d   1      33.230  20.253 -23.393  0.00  0.00     0.002 A 
ATOM     23  C   UNL d   1      33.206  20.144 -22.576  0.00  0.00     0.000 A 
ATOM     24  C   UNL d   1      33.193  19.376 -22.262  0.00  0.00     0.002 A 
ATOM     25  C   UNL d   1      33.195  20.783 -22.082  0.00  0.00     0.000 C 
ATOM     26  C   UNL d   1      33.204  18.728 -22.768  0.00  0.00     0.019 A 
ENDBRANCH  18  20
ENDBRANCH  16  17
ENDBRANCH   6  16
TORSDOF 3
ENDMDL
MODEL 3
REMARK VINA RESULT:      -1.3      0.775      1.017
REMARK  3 active torsions:
REMARK  status: ('A' for Active; 'I' for Inactive)
REMARK    1  A    between atoms: C_8  and  C_6 
REMARK    2  A    between atoms: C_9  and  C_8 
REMARK       I    between atoms: N_10  and  C_9 
REMARK    3  A    between atoms: C_14  and  N_10 
ROOT
ATOM      1  N   UNL d   1      29.834  15.866 -23.299  0.00  0.00    -0.207 NA
ATOM      2  N   UNL d   1      30.263  17.289 -24.075  0.00  0.00    -0.240 NA
ATOM      3  C   UNL d   1      30.533  16.280 -23.334  0.00  0.00     0.297 A 
ATOM      4  C   UNL d   1      29.105  16.030 -23.646  0.00  0.00     0.086 A 
ATOM      5  C   UNL d   1      29.479  17.250 -24.310  0.00  0.00     0.083 A 
ATOM      6  C   UNL d   1      30.675  16.762 -23.598  0.00  0.00     0.144 A 
ATOM      7  C   UNL d   1      28.906  16.679 -24.132  0.00  0.00     0.035 A 
ATOM      8  O   UNL d   1      31.158  15.952 -22.915  0.00  0.00    -0.264 OA
ATOM      9  C   UNL d   1      28.138  16.742 -24.427  0.00  0.00     0.003 A 
ATOM     10  C   UNL d   1      29.282  17.891 -24.790  0.00  0.00     0.019 A 
ATOM     11  C   UNL d   1      28.536  15.459 -23.466  0.00  0.00     0.019 A 
ATOM     12  C   UNL d   1      27.770  15.529 -23.766  0.00  0.00     0.002 A 
ATOM     13  C   UNL d   1      28.504  17.962 -25.094  0.00  0.00     0.002 A 
ATOM     14  C   UNL d   1      27.573  16.171 -24.246  0.00  0.00     0.000 A 
ATOM     15  C   UNL d   1      27.939  17.391 -24.912  0.00  0.00     0.000 A 
ENDROOT
BRANCH   6  16
ATOM     16  C   UNL d   1      31.460  16.978 -23.477  0.00  0.00     0.086 C 
BRANCH  16  17
ATOM     17  C   UNL d   1      32.047  16.688 -23.991  0.00  0.00     0.281 C 
ATOM     18  N   UNL d   1      32.732  17.131 -24.125  0.00  0.00    -0.208 NA
ATOM     19  O   UNL d   1      31.948  15.960 -24.368  0.00  0.00    -0.265 OA
BRANCH  18  20
ATOM     20  C   UNL d   1      32.836  17.860 -23.751  0.00  0.00     0.085 A 
ATOM     21  C   UNL d   1      32.695  18.559 -24.163  0.00  0.00     0.019 A 
ATOM     22  C   UNL d   1      32.800  19.284 -23.786  0.00  0.00     0.002 A 
ATOM     23  C   UNL d   1      33.044  19.310 -23.000  0.00  0.00     0.000 A 
ATOM     24  C   UNL d   1      33.185  18.603 -22.588  0.00  0.00     0.002 A 
ATOM     25  C   UNL d   1      33.147  20.021 -22.630  0.00  0.00     0.000 C 
ATOM     26  C   UNL d   1      33.079  17.881 -22.967  0.00  0.00     0.019 A 
ENDBRANCH  18  20
ENDBRANCH  16  17
ENDBRANCH   6  16
TORSDOF 3
ENDMDL
MODEL 4
REMARK VINA RESULT:       0.1      1.763      5.019
REMARK  3 active torsions:
REMARK  status: ('A' for Active; 'I' for Inactive)
REMARK    1  A    between atoms: C_8  and  C_6 
REMARK    2  A    between atoms: C_9  and  C_8 
REMARK       I    between atoms: N_10  and  C_9 
REMARK    3  A    between atoms: C_14  and  N_10 
ROOT
ATOM      1  N   UNL d   1      32.987  21.015 -23.255  0.00  0.00    -0.207 NA
ATOM      2  N   UNL d   1      32.144  20.097 -22.134  0.00  0.00    -0.240 NA
ATOM      3  C   UNL d   1      32.736  20.242 -23.260  0.00  0.00     0.297 A 
ATOM      4  C   UNL d   1      32.898  21.596 -22.677  0.00  0.00     0.086 A 
ATOM      5  C   UNL d   1      32.175  20.803 -21.719  0.00  0.00     0.083 A 
ATOM      6  C   UNL d   1      32.451  19.934 -22.879  0.00  0.00     0.144 A 
ATOM      7  C   UNL d   1      32.517  21.525 -21.937  0.00  0.00     0.035 A 
ATOM      8  O   UNL d   1      32.923  19.815 -23.937  0.00  0.00    -0.264 OA
ATOM      9  C   UNL d   1      32.488  22.178 -21.434  0.00  0.00     0.003 A 
ATOM     10  C   UNL d   1      31.799  20.733 -20.988  0.00  0.00     0.019 A 
ATOM     11  C   UNL d   1      33.241  22.315 -22.898  0.00  0.00     0.019 A 
ATOM     12  C   UNL d   1      33.207  22.963 -22.388  0.00  0.00     0.002 A 
ATOM     13  C   UNL d   1      31.765  21.392 -20.472  0.00  0.00     0.002 A 
ATOM     14  C   UNL d   1      32.831  22.893 -21.657  0.00  0.00     0.000 A 
ATOM     15  C   UNL d   1      32.108  22.107 -20.695  0.00  0.00     0.000 A 
ENDROOT
BRANCH   6  16
ATOM     16  C   UNL d   1      32.315  19.160 -23.124  0.00  0.00     0.086 C 
BRANCH  16  17
ATOM     17  C   UNL d   1      32.659  18.532 -22.700  0.00  0.00     0.281 C 
ATOM     18  N   UNL d   1      32.416  17.755 -22.846  0.00  0.00    -0.208 NA
ATOM     19  O   UNL d   1      33.241  18.680 -22.134  0.00  0.00    -0.265 OA
BRANCH  18  20
ATOM     20  C   UNL d   1      31.833  17.601 -23.411  0.00  0.00     0.085 A 
ATOM     21  C   UNL d   1      31.038  17.615 -23.198  0.00  0.00     0.019 A 
ATOM     22  C   UNL d   1      30.460  17.461 -23.764  0.00  0.00     0.002 A 
ATOM     23  C   UNL d   1      30.676  17.293 -24.541  0.00  0.00     0.000 A 
ATOM     24  C   UNL d   1      31.479  17.280 -24.753  0.00  0.00     0.002 A 
ATOM     25  C   UNL d   1      30.109  17.142 -25.097  0.00  0.00     0.000 C 
ATOM     26  C   UNL d   1      32.053  17.435 -24.184  0.00  0.00     0.019 A 
ENDBRANCH  18  20
ENDBRANCH  16  17
ENDBRANCH   6  16
TORSDOF 3
ENDMDL
