MODEL 1
REMARK VINA RESULT:      -7.2      0.000      0.000
REMARK  4 active torsions:
REMARK  status: ('A' for Active; 'I' for Inactive)
REMARK    1  A    between atoms: C_2  and  S_1 
REMARK    2  A    between atoms: N_4  and  S_1 
REMARK    3  A    between atoms: O_12  and  C_5 
REMARK    4  A    between atoms: O_13  and  C_7 
ROOT
ATOM      1  C   UNL d   1     -48.103  12.891  23.084  0.00  0.00     0.128 A 
ATOM      2  C   UNL d   1     -47.333  13.173  22.991  0.00  0.00     0.040 A 
ATOM      3  C   UNL d   1     -48.233  12.127  23.358  0.00  0.00     0.107 A 
ATOM      4  C   UNL d   1     -47.594  11.641  23.540  0.00  0.00     0.034 A 
ATOM      5  C   UNL d   1     -46.694  12.688  23.172  0.00  0.00     0.101 A 
ATOM      6  C   UNL d   1     -46.821  11.916  23.449  0.00  0.00     0.059 A 
ATOM      7 BR   UNL d   1     -46.184  11.432  23.630  0.00  0.00    -0.047 Br
ENDROOT
BRANCH   1   8
ATOM      8  S   UNL d   1     -48.746  13.379  22.902  0.00  0.00     0.273 S 
ATOM      9  O   UNL d   1     -48.733  13.105  22.125  0.00  0.00    -0.200 OA
ATOM     10  O   UNL d   1     -48.758  13.655  23.682  0.00  0.00    -0.200 OA
BRANCH   8  11
ATOM     11  N   UNL d   1     -49.386  13.866  22.720  0.00  0.00    -0.229 N 
ATOM     12  C   UNL d   1     -49.548  14.464  23.262  0.00  0.00     0.092 A 
ATOM     13  C   UNL d   1     -50.143  15.035  23.241  0.00  0.00     0.020 A 
ATOM     14  C   UNL d   1     -50.728  15.153  22.670  0.00  0.00     0.002 A 
ATOM     15  C   UNL d   1     -50.855  14.720  21.977  0.00  0.00     0.002 A 
ATOM     16  C   UNL d   1     -50.437  14.073  21.688  0.00  0.00     0.020 A 
ATOM     17  C   UNL d   1     -49.783  13.688  22.012  0.00  0.00     0.092 A 
ENDBRANCH   8  11
ENDBRANCH   1   8
BRANCH   3  18
ATOM     18  O   UNL d   1     -48.997  11.850  23.450  0.00  0.00    -0.327 OA
ATOM     19  C   UNL d   1     -49.130  11.075  23.698  0.00  0.00     0.181 C 
ENDBRANCH   3  18
BRANCH   5  20
ATOM     20  O   UNL d   1     -45.930  12.964  23.081  0.00  0.00    -0.328 OA
ATOM     21  C   UNL d   1     -45.752  13.486  22.475  0.00  0.00     0.181 C 
ENDBRANCH   5  20
TORSDOF 4
ENDMDL
MODEL 2
REMARK VINA RESULT:      -6.9      1.657      3.717
REMARK  4 active torsions:
REMARK  status: ('A' for Active; 'I' for Inactive)
REMARK    1  A    between atoms: C_2  and  S_1 
REMARK    2  A    between atoms: N_4  and  S_1 
REMARK    3  A    between atoms: O_12  and  C_5 
REMARK    4  A    between atoms: O_13  and  C_7 
ROOT
ATOM      1  C   UNL d   1     -49.029  13.611  22.705  0.00  0.00     0.128 A 
ATOM      2  C   UNL d   1     -49.252  14.252  23.174  0.00  0.00     0.040 A 
ATOM      3  C   UNL d   1     -49.481  13.399  22.052  0.00  0.00     0.107 A 
ATOM      4  C   UNL d   1     -50.159  13.828  21.865  0.00  0.00     0.034 A 
ATOM      5  C   UNL d   1     -49.929  14.680  22.987  0.00  0.00     0.101 A 
ATOM      6  C   UNL d   1     -50.388  14.470  22.330  0.00  0.00     0.059 A 
ATOM      7 BR   UNL d   1     -51.063  14.897  22.144  0.00  0.00    -0.047 Br
ENDROOT
BRANCH   1   8
ATOM      8  S   UNL d   1     -48.348  13.180  22.892  0.00  0.00     0.273 S 
ATOM      9  O   UNL d   1     -47.942  13.555  22.281  0.00  0.00    -0.200 OA
ATOM     10  O   UNL d   1     -48.755  12.803  23.507  0.00  0.00    -0.200 OA
BRANCH   8  11
ATOM     11  N   UNL d   1     -47.669  12.751  23.080  0.00  0.00    -0.229 N 
ATOM     12  C   UNL d   1     -47.794  12.016  23.431  0.00  0.00     0.092 A 
ATOM     13  C   UNL d   1     -47.238  11.461  23.680  0.00  0.00     0.020 A 
ATOM     14  C   UNL d   1     -46.414  11.498  23.643  0.00  0.00     0.002 A 
ATOM     15  C   UNL d   1     -45.948  12.111  23.342  0.00  0.00     0.002 A 
ATOM     16  C   UNL d   1     -46.185  12.825  23.009  0.00  0.00     0.020 A 
ATOM     17  C   UNL d   1     -46.948  13.117  22.889  0.00  0.00     0.092 A 
ENDBRANCH   8  11
ENDBRANCH   1   8
BRANCH   3  18
ATOM     18  O   UNL d   1     -49.257  12.763  21.588  0.00  0.00    -0.327 OA
ATOM     19  C   UNL d   1     -49.811  12.388  21.106  0.00  0.00     0.181 C 
ENDBRANCH   3  18
BRANCH   5  20
ATOM     20  O   UNL d   1     -50.153  15.316  23.451  0.00  0.00    -0.328 OA
ATOM     21  C   UNL d   1     -49.622  15.922  23.601  0.00  0.00     0.181 C 
ENDBRANCH   5  20
TORSDOF 4
ENDMDL
MODEL 3
REMARK VINA RESULT:      -6.7      0.817      1.732
REMARK  4 active torsions:
REMARK  status: ('A' for Active; 'I' for Inactive)
REMARK    1  A    between atoms: C_2  and  S_1 
REMARK    2  A    between atoms: N_4  and  S_1 
REMARK    3  A    between atoms: O_12  and  C_5 
REMARK    4  A    between atoms: O_13  and  C_7 
ROOT
ATOM      1  C   UNL d   1     -47.985  13.351  22.988  0.00  0.00     0.128 A 
ATOM      2  C   UNL d   1     -47.990  12.567  23.244  0.00  0.00     0.040 A 
ATOM      3  C   UNL d   1     -47.274  13.735  22.841  0.00  0.00     0.107 A 
ATOM      4  C   UNL d   1     -46.562  13.336  22.949  0.00  0.00     0.034 A 
ATOM      5  C   UNL d   1     -47.278  12.168  23.352  0.00  0.00     0.101 A 
ATOM      6  C   UNL d   1     -46.558  12.551  23.205  0.00  0.00     0.059 A 
ATOM      7 BR   UNL d   1     -45.848  12.154  23.313  0.00  0.00    -0.047 Br
ENDROOT
BRANCH   1   8
ATOM      8  S   UNL d   1     -48.702  13.752  22.879  0.00  0.00     0.273 S 
ATOM      9  O   UNL d   1     -48.660  13.606  22.069  0.00  0.00    -0.200 OA
ATOM     10  O   UNL d   1     -48.743  13.899  23.693  0.00  0.00    -0.200 OA
BRANCH   8  11
ATOM     11  N   UNL d   1     -49.414  14.152  22.771  0.00  0.00    -0.229 N 
ATOM     12  C   UNL d   1     -49.582  14.744  23.318  0.00  0.00     0.092 A 
ATOM     13  C   UNL d   1     -50.240  15.238  23.362  0.00  0.00     0.020 A 
ATOM     14  C   UNL d   1     -50.901  15.266  22.868  0.00  0.00     0.002 A 
ATOM     15  C   UNL d   1     -51.058  14.797  22.205  0.00  0.00     0.002 A 
ATOM     16  C   UNL d   1     -50.603  14.196  21.877  0.00  0.00     0.020 A 
ATOM     17  C   UNL d   1     -49.871  13.903  22.122  0.00  0.00     0.092 A 
ENDBRANCH   8  11
ENDBRANCH   1   8
BRANCH   3  18
ATOM     18  O   UNL d   1     -47.274  14.512  22.587  0.00  0.00    -0.327 OA
ATOM     19  C   UNL d   1     -46.568  14.940  22.563  0.00  0.00     0.181 C 
ENDBRANCH   3  18
BRANCH   5  20
ATOM     20  O   UNL d   1     -47.278  11.390  23.606  0.00  0.00    -0.328 OA
ATOM     21  C   UNL d   1     -47.986  10.989  23.698  0.00  0.00     0.181 C 
ENDBRANCH   5  20
TORSDOF 4
ENDMDL
MODEL 4
REMARK VINA RESULT:      -6.0      1.726      3.864
REMARK  4 active torsions:
REMARK  status: ('A' for Active; 'I' for Inactive)
REMARK    1  A    between atoms: C_2  and  S_1 
REMARK    2  A    between atoms: N_4  and  S_1 
REMARK    3  A    between atoms: O_12  and  C_5 
REMARK    4  A    between atoms: O_13  and  C_7 
ROOT
ATOM      1  C   UNL d   1     -48.705  13.455  22.916  0.00  0.00     0.128 A 
ATOM      2  C   UNL d   1     -49.299  12.894  23.029  0.00  0.00     0.040 A 
ATOM      3  C   UNL d   1     -48.895  14.251  22.850  0.00  0.00     0.107 A 
ATOM      4  C   UNL d   1     -49.681  14.492  22.899  0.00  0.00     0.034 A 
ATOM      5  C   UNL d   1     -50.085  13.134  23.078  0.00  0.00     0.101 A 
ATOM      6  C   UNL d   1     -50.282  13.937  23.012  0.00  0.00     0.059 A 
ATOM      7 BR   UNL d   1     -51.064  14.176  23.061  0.00  0.00    -0.047 Br
ENDROOT
BRANCH   1   8
ATOM      8  S   UNL d   1     -47.915  13.213  22.867  0.00  0.00     0.273 S 
ATOM      9  O   UNL d   1     -47.994  13.117  22.053  0.00  0.00    -0.200 OA
ATOM     10  O   UNL d   1     -47.835  13.310  23.686  0.00  0.00    -0.200 OA
BRANCH   8  11
ATOM     11  N   UNL d   1     -47.128  12.973  22.819  0.00  0.00    -0.229 N 
ATOM     12  C   UNL d   1     -46.676  13.337  22.234  0.00  0.00     0.092 A 
ATOM     13  C   UNL d   1     -45.882  13.220  22.046  0.00  0.00     0.020 A 
ATOM     14  C   UNL d   1     -45.336  12.708  22.395  0.00  0.00     0.002 A 
ATOM     15  C   UNL d   1     -45.461  12.186  23.024  0.00  0.00     0.002 A 
ATOM     16  C   UNL d   1     -46.150  12.048  23.452  0.00  0.00     0.020 A 
ATOM     17  C   UNL d   1     -46.895  12.394  23.367  0.00  0.00     0.092 A 
ENDBRANCH   8  11
ENDBRANCH   1   8
BRANCH   3  18
ATOM     18  O   UNL d   1     -48.304  14.805  22.738  0.00  0.00    -0.327 OA
ATOM     19  C   UNL d   1     -48.497  15.591  22.576  0.00  0.00     0.181 C 
ENDBRANCH   3  18
BRANCH   5  20
ATOM     20  O   UNL d   1     -50.677  12.580  23.191  0.00  0.00    -0.328 OA
ATOM     21  C   UNL d   1     -50.485  11.796  23.328  0.00  0.00     0.181 C 
ENDBRANCH   5  20
TORSDOF 4
ENDMDL
MODEL 5
REMARK VINA RESULT:      -5.8      8.540     10.150
REMARK  4 active torsions:
REMARK  status: ('A' for Active; 'I' for Inactive)
REMARK    1  A    between atoms: C_2  and  S_1 
REMARK    2  A    between atoms: N_4  and  S_1 
REMARK    3  A    between atoms: O_12  and  C_5 
REMARK    4  A    between atoms: O_13  and  C_7 
ROOT
ATOM      1  C   UNL d   1     -39.630  14.503  18.025  0.00  0.00     0.128 A 
ATOM      2  C   UNL d   1     -38.970  14.008  18.005  0.00  0.00     0.040 A 
ATOM      3  C   UNL d   1     -39.918  14.838  17.332  0.00  0.00     0.107 A 
ATOM      4  C   UNL d   1     -39.547  14.679  16.615  0.00  0.00     0.034 A 
ATOM      5  C   UNL d   1     -38.600  13.849  17.287  0.00  0.00     0.101 A 
ATOM      6  C   UNL d   1     -38.887  14.185  16.585  0.00  0.00     0.059 A 
ATOM      7 BR   UNL d   1     -38.518  14.027  15.870  0.00  0.00    -0.047 Br
ENDROOT
BRANCH   1   8
ATOM      8  S   UNL d   1     -40.002  14.663  18.747  0.00  0.00     0.273 S 
ATOM      9  O   UNL d   1     -39.449  15.253  18.902  0.00  0.00    -0.200 OA
ATOM     10  O   UNL d   1     -40.558  14.069  18.591  0.00  0.00    -0.200 OA
BRANCH   8  11
ATOM     11  N   UNL d   1     -40.373  14.821  19.466  0.00  0.00    -0.229 N 
ATOM     12  C   UNL d   1     -40.766  14.187  19.816  0.00  0.00     0.092 A 
ATOM     13  C   UNL d   1     -41.185  14.166  20.525  0.00  0.00     0.020 A 
ATOM     14  C   UNL d   1     -41.319  14.774  21.067  0.00  0.00     0.002 A 
ATOM     15  C   UNL d   1     -41.060  15.558  21.023  0.00  0.00     0.002 A 
ATOM     16  C   UNL d   1     -40.610  15.922  20.438  0.00  0.00     0.020 A 
ATOM     17  C   UNL d   1     -40.302  15.601  19.743  0.00  0.00     0.092 A 
ENDBRANCH   8  11
ENDBRANCH   1   8
BRANCH   3  18
ATOM     18  O   UNL d   1     -40.572  15.328  17.356  0.00  0.00    -0.327 OA
ATOM     19  C   UNL d   1     -40.859  15.670  16.662  0.00  0.00     0.181 C 
ENDBRANCH   3  18
BRANCH   5  20
ATOM     20  O   UNL d   1     -37.945  13.359  17.263  0.00  0.00    -0.328 OA
ATOM     21  C   UNL d   1     -37.956  12.641  17.657  0.00  0.00     0.181 C 
ENDBRANCH   5  20
TORSDOF 4
ENDMDL
MODEL 6
REMARK VINA RESULT:      -5.4      9.099     10.832
REMARK  4 active torsions:
REMARK  status: ('A' for Active; 'I' for Inactive)
REMARK    1  A    between atoms: C_2  and  S_1 
REMARK    2  A    between atoms: N_4  and  S_1 
REMARK    3  A    between atoms: O_12  and  C_5 
REMARK    4  A    between atoms: O_13  and  C_7 
ROOT
ATOM      1  C   UNL d   1     -39.001  14.077  17.672  0.00  0.00     0.128 A 
ATOM      2  C   UNL d   1     -39.035  14.683  17.113  0.00  0.00     0.040 A 
ATOM      3  C   UNL d   1     -38.630  13.367  17.492  0.00  0.00     0.107 A 
ATOM      4  C   UNL d   1     -38.290  13.258  16.751  0.00  0.00     0.034 A 
ATOM      5  C   UNL d   1     -38.695  14.573  16.371  0.00  0.00     0.101 A 
ATOM      6  C   UNL d   1     -38.319  13.858  16.185  0.00  0.00     0.059 A 
ATOM      7 BR   UNL d   1     -37.981  13.750  15.446  0.00  0.00    -0.047 Br
ENDROOT
BRANCH   1   8
ATOM      8  S   UNL d   1     -39.343  14.187  18.418  0.00  0.00     0.273 S 
ATOM      9  O   UNL d   1     -38.645  14.531  18.688  0.00  0.00    -0.200 OA
ATOM     10  O   UNL d   1     -40.045  13.841  18.147  0.00  0.00    -0.200 OA
BRANCH   8  11
ATOM     11  N   UNL d   1     -39.684  14.296  19.161  0.00  0.00    -0.229 N 
ATOM     12  C   UNL d   1     -40.503  14.223  19.195  0.00  0.00     0.092 A 
ATOM     13  C   UNL d   1     -41.004  14.299  19.846  0.00  0.00     0.020 A 
ATOM     14  C   UNL d   1     -40.811  14.468  20.631  0.00  0.00     0.002 A 
ATOM     15  C   UNL d   1     -40.060  14.602  20.951  0.00  0.00     0.002 A 
ATOM     16  C   UNL d   1     -39.330  14.601  20.573  0.00  0.00     0.020 A 
ATOM     17  C   UNL d   1     -39.154  14.466  19.778  0.00  0.00     0.092 A 
ENDBRANCH   8  11
ENDBRANCH   1   8
BRANCH   3  18
ATOM     18  O   UNL d   1     -38.598  12.769  18.049  0.00  0.00    -0.327 OA
ATOM     19  C   UNL d   1     -38.220  12.057  17.872  0.00  0.00     0.181 C 
ENDBRANCH   3  18
BRANCH   5  20
ATOM     20  O   UNL d   1     -38.726  15.172  15.814  0.00  0.00    -0.328 OA
ATOM     21  C   UNL d   1     -38.450  15.920  15.999  0.00  0.00     0.181 C 
ENDBRANCH   5  20
TORSDOF 4
ENDMDL
MODEL 7
REMARK VINA RESULT:      -5.1      8.658      9.876
REMARK  4 active torsions:
REMARK  status: ('A' for Active; 'I' for Inactive)
REMARK    1  A    between atoms: C_2  and  S_1 
REMARK    2  A    between atoms: N_4  and  S_1 
REMARK    3  A    between atoms: O_12  and  C_5 
REMARK    4  A    between atoms: O_13  and  C_7 
ROOT
ATOM      1  C   UNL d   1     -39.471  14.793  20.130  0.00  0.00     0.128 A 
ATOM      2  C   UNL d   1     -38.827  14.320  20.335  0.00  0.00     0.040 A 
ATOM      3  C   UNL d   1     -39.950  15.116  20.714  0.00  0.00     0.107 A 
ATOM      4  C   UNL d   1     -39.787  14.970  21.507  0.00  0.00     0.034 A 
ATOM      5  C   UNL d   1     -38.664  14.173  21.128  0.00  0.00     0.101 A 
ATOM      6  C   UNL d   1     -39.144  14.498  21.721  0.00  0.00     0.059 A 
ATOM      7 BR   UNL d   1     -38.982  14.352  22.511  0.00  0.00    -0.047 Br
ENDROOT
BRANCH   1   8
ATOM      8  S   UNL d   1     -39.635  14.940  19.332  0.00  0.00     0.273 S 
ATOM      9  O   UNL d   1     -40.123  14.276  19.309  0.00  0.00    -0.200 OA
ATOM     10  O   UNL d   1     -39.146  15.608  19.355  0.00  0.00    -0.200 OA
BRANCH   8  11
ATOM     11  N   UNL d   1     -39.799  15.087  18.538  0.00  0.00    -0.229 N 
ATOM     12  C   UNL d   1     -40.417  14.652  18.211  0.00  0.00     0.092 A 
ATOM     13  C   UNL d   1     -40.714  14.670  17.442  0.00  0.00     0.020 A 
ATOM     14  C   UNL d   1     -40.467  15.129  16.802  0.00  0.00     0.002 A 
ATOM     15  C   UNL d   1     -39.855  15.686  16.783  0.00  0.00     0.002 A 
ATOM     16  C   UNL d   1     -39.348  15.917  17.388  0.00  0.00     0.020 A 
ATOM     17  C   UNL d   1     -39.317  15.656  18.170  0.00  0.00     0.092 A 
ENDBRANCH   8  11
ENDBRANCH   1   8
BRANCH   3  18
ATOM     18  O   UNL d   1     -40.588  15.584  20.506  0.00  0.00    -0.327 OA
ATOM     19  C   UNL d   1     -41.062  15.922  21.091  0.00  0.00     0.181 C 
ENDBRANCH   3  18
BRANCH   5  20
ATOM     20  O   UNL d   1     -38.026  13.705  21.336  0.00  0.00    -0.328 OA
ATOM     21  C   UNL d   1     -37.940  12.960  21.008  0.00  0.00     0.181 C 
ENDBRANCH   5  20
TORSDOF 4
ENDMDL
