MODEL 1
REMARK VINA RESULT:      45.0      0.000      0.000
REMARK  3 active torsions:
REMARK  status: ('A' for Active; 'I' for Inactive)
REMARK    1  A    between atoms: N_2  and  S_1 
REMARK    2  A    between atoms: C_3  and  C_7 
REMARK       I    between atoms: N_4  and  C_3 
REMARK    3  A    between atoms: C_13  and  N_4 
ROOT
ATOM      1  N   UNL d   1      14.485  12.576  -1.385  0.00  0.00    -0.233 N 
ATOM      2  C   UNL d   1      14.038  13.357  -2.753  0.00  0.00     0.061 A 
ATOM      3  C   UNL d   1      14.060  12.180  -1.969  0.00  0.00     0.091 A 
ATOM      4  C   UNL d   1      14.683  13.355  -1.490  0.00  0.00     0.091 A 
ATOM      5  C   UNL d   1      14.464  13.753  -2.169  0.00  0.00     0.025 A 
ATOM      6  C   UNL d   1      13.833  12.563  -2.656  0.00  0.00     0.025 A 
ENDROOT
BRANCH   2   7
ATOM      7  C   UNL d   1      13.811  13.754  -3.448  0.00  0.00     0.279 C 
ATOM      8  N   UNL d   1      13.988  14.562  -3.528  0.00  0.00    -0.208 NA
ATOM      9  O   UNL d   1      13.421  13.356  -4.043  0.00  0.00    -0.265 OA
BRANCH   8  10
ATOM     10  C   UNL d   1      13.764  14.962  -4.218  0.00  0.00     0.085 A 
ATOM     11  C   UNL d   1      13.025  14.803  -4.573  0.00  0.00     0.019 A 
ATOM     12  C   UNL d   1      12.809  15.208  -5.263  0.00  0.00     0.002 A 
ATOM     13  C   UNL d   1      13.317  15.763  -5.598  0.00  0.00     0.000 A 
ATOM     14  C   UNL d   1      14.052  15.921  -5.245  0.00  0.00     0.002 A 
ATOM     15  C   UNL d   1      13.097  16.165  -6.287  0.00  0.00     0.000 C 
ATOM     16  C   UNL d   1      14.269  15.519  -4.558  0.00  0.00     0.019 A 
ENDBRANCH   8  10
ENDBRANCH   2   7
BRANCH   1  17
ATOM     17  S   UNL d   1      14.709  12.176  -0.696  0.00  0.00     0.252 S 
ATOM     18  O   UNL d   1      14.056  12.493  -0.304  0.00  0.00    -0.204 OA
ATOM     19  O   UNL d   1      15.399  11.859  -1.163  0.00  0.00    -0.204 OA
ATOM     20  C   UNL d   1      14.931  11.779  -0.017  0.00  0.00     0.164 C 
ENDBRANCH   1  17
TORSDOF 3
ENDMDL
MODEL 2
REMARK VINA RESULT:      45.3      2.304      2.952
REMARK  3 active torsions:
REMARK  status: ('A' for Active; 'I' for Inactive)
REMARK    1  A    between atoms: N_2  and  S_1 
REMARK    2  A    between atoms: C_3  and  C_7 
REMARK       I    between atoms: N_4  and  C_3 
REMARK    3  A    between atoms: C_13  and  N_4 
ROOT
ATOM      1  N   UNL d   1      14.911  15.522  -1.215  0.00  0.00    -0.233 N 
ATOM      2  C   UNL d   1      14.406  14.391  -2.283  0.00  0.00     0.061 A 
ATOM      3  C   UNL d   1      14.987  14.721  -1.038  0.00  0.00     0.091 A 
ATOM      4  C   UNL d   1      14.585  15.750  -1.921  0.00  0.00     0.091 A 
ATOM      5  C   UNL d   1      14.329  15.192  -2.460  0.00  0.00     0.025 A 
ATOM      6  C   UNL d   1      14.737  14.150  -1.567  0.00  0.00     0.025 A 
ENDROOT
BRANCH   2   7
ATOM      7  C   UNL d   1      14.148  13.815  -2.827  0.00  0.00     0.279 C 
ATOM      8  N   UNL d   1      13.803  14.060  -3.542  0.00  0.00    -0.208 NA
ATOM      9  O   UNL d   1      14.234  13.022  -2.661  0.00  0.00    -0.265 OA
BRANCH   8  10
ATOM     10  C   UNL d   1      13.545  13.491  -4.086  0.00  0.00     0.085 A 
ATOM     11  C   UNL d   1      13.773  13.546  -4.888  0.00  0.00     0.019 A 
ATOM     12  C   UNL d   1      13.511  12.973  -5.426  0.00  0.00     0.002 A 
ATOM     13  C   UNL d   1      13.029  12.354  -5.175  0.00  0.00     0.000 A 
ATOM     14  C   UNL d   1      12.803  12.299  -4.377  0.00  0.00     0.002 A 
ATOM     15  C   UNL d   1      12.770  11.784  -5.715  0.00  0.00     0.000 C 
ATOM     16  C   UNL d   1      13.063  12.869  -3.840  0.00  0.00     0.019 A 
ENDBRANCH   8  10
ENDBRANCH   2   7
BRANCH   1  17
ATOM     17  S   UNL d   1      15.169  16.090  -0.670  0.00  0.00     0.252 S 
ATOM     18  O   UNL d   1      15.340  16.605  -1.291  0.00  0.00    -0.204 OA
ATOM     19  O   UNL d   1      14.967  15.498  -0.033  0.00  0.00    -0.204 OA
ATOM     20  C   UNL d   1      15.422  16.649  -0.130  0.00  0.00     0.164 C 
ENDBRANCH   1  17
TORSDOF 3
ENDMDL
