MODEL 1
REMARK VINA RESULT:      10.5      0.000      0.000
REMARK  2 active torsions:
REMARK  status: ('A' for Active; 'I' for Inactive)
REMARK    1  A    between atoms: C_9  and  N_1 
REMARK    2  A    between atoms: C_11  and  C_9 
ROOT
ATOM      1  N   UNL d   1      44.894 -15.153  36.891  0.00  0.00    -0.287 N 
ATOM      2  N   UNL d   1      44.762 -16.398  36.377  0.00  0.00    -0.224 NA
ATOM      3  C   UNL d   1      44.072 -15.311  36.798  0.00  0.00     0.083 A 
ATOM      4  C   UNL d   1      45.316 -15.825  36.630  0.00  0.00     0.183 A 
ATOM      5  C   UNL d   1      43.994 -16.077  36.482  0.00  0.00     0.099 A 
ATOM      6  C   UNL d   1      43.400 -14.860  36.959  0.00  0.00     0.019 A 
ATOM      7  C   UNL d   1      43.243 -16.383  36.330  0.00  0.00     0.021 A 
ATOM      8  C   UNL d   1      42.652 -15.168  36.807  0.00  0.00     0.002 A 
ATOM      9  C   UNL d   1      42.573 -15.934  36.491  0.00  0.00     0.002 A 
ATOM     10  C   UNL d   1      41.976 -14.717  36.968  0.00  0.00     0.000 C 
ATOM     11  C   UNL d   1      41.823 -16.238  36.340  0.00  0.00     0.000 C 
ENDROOT
BRANCH   1  12
ATOM     12  C   UNL d   1      45.371 -14.539  37.159  0.00  0.00     0.082 C 
BRANCH  12  13
ATOM     13  C   UNL d   1      46.191 -14.593  37.086  0.00  0.00     0.018 C 
ATOM     14  C   UNL d   1      46.558 -14.369  36.381  0.00  0.00     0.002 C 
ATOM     15  C   UNL d   1      46.644 -14.869  37.717  0.00  0.00     0.002 C 
ENDBRANCH  12  13
ENDBRANCH   1  12
TORSDOF 2
ENDMDL
MODEL 2
REMARK VINA RESULT:      11.1      0.668      3.149
REMARK  2 active torsions:
REMARK  status: ('A' for Active; 'I' for Inactive)
REMARK    1  A    between atoms: C_9  and  N_1 
REMARK    2  A    between atoms: C_11  and  C_9 
ROOT
ATOM      1  N   UNL d   1      43.547 -15.728  37.066  0.00  0.00    -0.287 N 
ATOM      2  N   UNL d   1      44.380 -16.501  36.330  0.00  0.00    -0.224 NA
ATOM      3  C   UNL d   1      44.299 -15.351  37.040  0.00  0.00     0.083 A 
ATOM      4  C   UNL d   1      43.601 -16.437  36.627  0.00  0.00     0.183 A 
ATOM      5  C   UNL d   1      44.809 -15.827  36.588  0.00  0.00     0.099 A 
ATOM      6  C   UNL d   1      44.575 -14.645  37.367  0.00  0.00     0.019 A 
ATOM      7  C   UNL d   1      45.591 -15.594  36.467  0.00  0.00     0.021 A 
ATOM      8  C   UNL d   1      45.357 -14.413  37.245  0.00  0.00     0.002 A 
ATOM      9  C   UNL d   1      45.867 -14.890  36.793  0.00  0.00     0.002 A 
ATOM     10  C   UNL d   1      45.635 -13.705  37.573  0.00  0.00     0.000 C 
ATOM     11  C   UNL d   1      46.647 -14.655  36.674  0.00  0.00     0.000 C 
ENDROOT
BRANCH   1  12
ATOM     12  C   UNL d   1      42.805 -15.590  37.394  0.00  0.00     0.082 C 
BRANCH  12  13
ATOM     13  C   UNL d   1      42.160 -15.439  36.903  0.00  0.00     0.018 C 
ATOM     14  C   UNL d   1      41.780 -14.706  36.935  0.00  0.00     0.002 C 
ATOM     15  C   UNL d   1      41.893 -16.019  36.381  0.00  0.00     0.002 C 
ENDBRANCH  12  13
ENDBRANCH   1  12
TORSDOF 2
ENDMDL
