MODEL 1
REMARK VINA RESULT:      27.8      0.000      0.000
REMARK  10 active torsions:
REMARK  status: ('A' for Active; 'I' for Inactive)
REMARK    1  A    between atoms: P_2  and  C_1 
REMARK    2  A    between atoms: N_3  and  C_1 
REMARK    3  A    between atoms: C_4  and  C_1 
REMARK    4  A    between atoms: O_9  and  P_2 
REMARK    5  A    between atoms: O_10  and  P_2 
REMARK       I    between atoms: C_5  and  N_3 
REMARK    6  A    between atoms: C_8  and  C_5 
REMARK    7  A    between atoms: C_16  and  O_9 
REMARK    8  A    between atoms: C_15  and  O_10 
REMARK    9  A    between atoms: C_18  and  C_15 
REMARK   10  A    between atoms: C_17  and  C_16 
ROOT
ATOM      1  C   UNL d   1      45.481 -14.330  44.095  0.00  0.00     0.186 C 
ENDROOT
BRANCH   1   2
ATOM      2  P   UNL d   1      44.781 -13.881  44.003  0.00  0.00     0.393 P 
ATOM      3  O   UNL d   1      44.099 -13.430  43.899  0.00  0.00    -0.251 OA
BRANCH   2   4
ATOM      4  O   UNL d   1      45.145 -13.477  43.385  0.00  0.00    -0.263 OA
BRANCH   4   5
ATOM      5  C   UNL d   1      44.948 -12.683  43.243  0.00  0.00     0.126 C 
BRANCH   5   6
ATOM      6  C   UNL d   1      44.632 -12.442  42.507  0.00  0.00     0.027 C 
ATOM      7  C   UNL d   1      45.025 -12.174  41.750  0.00  0.00     0.002 C 
ENDBRANCH   5   6
ENDBRANCH   4   5
ENDBRANCH   2   4
BRANCH   2   8
ATOM      8  O   UNL d   1      44.405 -14.270  44.611  0.00  0.00    -0.263 OA
BRANCH   8   9
ATOM      9  C   UNL d   1      43.641 -14.543  44.501  0.00  0.00     0.126 C 
BRANCH   9  10
ATOM     10  C   UNL d   1      43.017 -14.225  44.950  0.00  0.00     0.027 C 
ATOM     11  C   UNL d   1      42.378 -14.653  44.829  0.00  0.00     0.002 C 
ENDBRANCH   9  10
ENDBRANCH   8   9
ENDBRANCH   2   8
ENDBRANCH   1   2
BRANCH   1  12
ATOM     12  N   UNL d   1      45.531 -15.068  43.705  0.00  0.00    -0.199 NA
ATOM     13  C   UNL d   1      45.887 -15.705  44.113  0.00  0.00     0.279 C 
ATOM     14  O   UNL d   1      46.173 -15.611  44.861  0.00  0.00    -0.265 OA
BRANCH  13  15
ATOM     15  C   UNL d   1      45.956 -16.437  43.773  0.00  0.00     0.058 A 
ATOM     16  C   UNL d   1      46.503 -16.551  43.166  0.00  0.00     0.005 A 
ATOM     17  C   UNL d   1      46.570 -17.294  42.824  0.00  0.00     0.000 A 
ATOM     18  C   UNL d   1      46.088 -17.923  43.090  0.00  0.00     0.000 A 
ATOM     19  C   UNL d   1      45.549 -17.811  43.688  0.00  0.00     0.000 A 
ATOM     20  C   UNL d   1      45.476 -17.060  44.039  0.00  0.00     0.005 A 
ENDBRANCH  13  15
ENDBRANCH   1  12
BRANCH   1  21
ATOM     21  C   UNL d   1      46.096 -14.055  44.551  0.00  0.00     0.140 C 
ATOM     22 CL   UNL d   1      46.145 -13.291  44.588  0.00  0.00    -0.068 Cl
ATOM     23 CL   UNL d   1      46.640 -14.613  44.953  0.00  0.00    -0.068 Cl
ENDBRANCH   1  21
TORSDOF 10
ENDMDL
