MODEL 1
REMARK VINA RESULT:      -8.4      0.000      0.000
REMARK  2 active torsions:
REMARK  status: ('A' for Active; 'I' for Inactive)
REMARK    1  A    between atoms: N_9  and  C_3 
REMARK    2  A    between atoms: C_13  and  C_5 
ROOT
ATOM      1  N   UNL d   1      52.946  32.350  53.475  0.00  0.00    -0.196 N 
ATOM      2  C   UNL d   1      53.243  31.644  53.827  0.00  0.00     0.167 A 
ATOM      3  C   UNL d   1      53.146  33.088  53.801  0.00  0.00     0.153 A 
ATOM      4  N   UNL d   1      52.266  31.574  52.492  0.00  0.00    -0.163 NA
ATOM      5  C   UNL d   1      53.049  30.924  53.510  0.00  0.00     0.055 A 
ATOM      6  N   UNL d   1      53.729  31.701  54.493  0.00  0.00    -0.227 NA
ATOM      7  C   UNL d   1      53.627  33.127  54.458  0.00  0.00     0.052 A 
ATOM      8  C   UNL d   1      52.558  30.878  52.839  0.00  0.00     0.104 A 
ATOM      9  C   UNL d   1      53.928  32.426  54.817  0.00  0.00     0.086 A 
ATOM     10  C   UNL d   1      53.913  33.753  54.894  0.00  0.00     0.005 A 
ATOM     11  C   UNL d   1      52.366  30.145  52.523  0.00  0.00     0.023 C 
ATOM     12  C   UNL d   1      54.391  32.638  55.463  0.00  0.00     0.019 A 
ATOM     13  C   UNL d   1      54.380  33.472  55.508  0.00  0.00     0.002 A 
ENDROOT
BRANCH   5  14
ATOM     14  C   UNL d   1      53.339  30.233  53.855  0.00  0.00     0.004 A 
ATOM     15  C   UNL d   1      52.925  29.867  54.463  0.00  0.00     0.000 A 
ATOM     16  C   UNL d   1      53.219  29.169  54.811  0.00  0.00     0.000 A 
ATOM     17  C   UNL d   1      53.920  28.850  54.545  0.00  0.00     0.000 A 
ATOM     18  C   UNL d   1      54.340  29.217  53.932  0.00  0.00     0.000 A 
ATOM     19  C   UNL d   1      54.048  29.904  53.591  0.00  0.00     0.000 A 
ENDBRANCH   5  14
BRANCH   3  20
ATOM     20  N   UNL d   1      52.849  33.803  53.448  0.00  0.00    -0.271 N 
ATOM     21  C   UNL d   1      53.243  34.262  52.855  0.00  0.00     0.184 A 
ATOM     22  N   UNL d   1      52.741  34.921  52.672  0.00  0.00    -0.222 NA
ATOM     23  C   UNL d   1      52.038  34.870  53.151  0.00  0.00     0.120 A 
ATOM     24  C   UNL d   1      52.115  34.168  53.633  0.00  0.00     0.104 A 
ENDBRANCH   3  20
TORSDOF 2
ENDMDL
MODEL 2
REMARK VINA RESULT:      -8.4      1.231      2.412
REMARK  2 active torsions:
REMARK  status: ('A' for Active; 'I' for Inactive)
REMARK    1  A    between atoms: N_9  and  C_3 
REMARK    2  A    between atoms: C_13  and  C_5 
ROOT
ATOM      1  N   UNL d   1      53.099  33.431  53.836  0.00  0.00    -0.196 N 
ATOM      2  C   UNL d   1      52.859  32.669  53.566  0.00  0.00     0.167 A 
ATOM      3  C   UNL d   1      52.580  34.075  53.761  0.00  0.00     0.153 A 
ATOM      4  N   UNL d   1      54.354  32.891  54.245  0.00  0.00    -0.163 NA
ATOM      5  C   UNL d   1      53.365  32.039  53.639  0.00  0.00     0.055 A 
ATOM      6  N   UNL d   1      52.110  32.578  53.230  0.00  0.00    -0.227 NA
ATOM      7  C   UNL d   1      51.843  33.970  53.428  0.00  0.00     0.052 A 
ATOM      8  C   UNL d   1      54.118  32.141  53.979  0.00  0.00     0.104 A 
ATOM      9  C   UNL d   1      51.596  33.211  53.155  0.00  0.00     0.086 A 
ATOM     10  C   UNL d   1      51.227  34.483  53.282  0.00  0.00     0.005 A 
ATOM     11  C   UNL d   1      54.625  31.498  54.049  0.00  0.00     0.023 C 
ATOM     12  C   UNL d   1      50.836  33.277  52.849  0.00  0.00     0.019 A 
ATOM     13  C   UNL d   1      50.607  34.075  52.930  0.00  0.00     0.002 A 
ENDROOT
BRANCH   5  14
ATOM     14  C   UNL d   1      53.131  31.294  53.375  0.00  0.00     0.004 A 
ATOM     15  C   UNL d   1      53.226  31.084  52.586  0.00  0.00     0.000 A 
ATOM     16  C   UNL d   1      52.990  30.331  52.319  0.00  0.00     0.000 A 
ATOM     17  C   UNL d   1      52.662  29.802  52.845  0.00  0.00     0.000 A 
ATOM     18  C   UNL d   1      52.565  30.009  53.642  0.00  0.00     0.000 A 
ATOM     19  C   UNL d   1      52.799  30.752  53.901  0.00  0.00     0.000 A 
ENDBRANCH   5  14
BRANCH   3  20
ATOM     20  N   UNL d   1      52.818  34.846  54.033  0.00  0.00    -0.271 N 
ATOM     21  C   UNL d   1      53.226  35.428  53.571  0.00  0.00     0.184 A 
ATOM     22  N   UNL d   1      53.346  36.104  54.069  0.00  0.00    -0.222 NA
ATOM     23  C   UNL d   1      53.014  35.941  54.836  0.00  0.00     0.120 A 
ATOM     24  C   UNL d   1      52.686  35.152  54.804  0.00  0.00     0.104 A 
ENDBRANCH   3  20
TORSDOF 2
ENDMDL
MODEL 3
REMARK VINA RESULT:      -8.3      1.347      4.038
REMARK  2 active torsions:
REMARK  status: ('A' for Active; 'I' for Inactive)
REMARK    1  A    between atoms: N_9  and  C_3 
REMARK    2  A    between atoms: C_13  and  C_5 
ROOT
ATOM      1  N   UNL d   1      53.117  33.805  54.013  0.00  0.00    -0.196 N 
ATOM      2  C   UNL d   1      52.469  33.692  53.485  0.00  0.00     0.167 A 
ATOM      3  C   UNL d   1      53.642  33.179  54.159  0.00  0.00     0.153 A 
ATOM      4  N   UNL d   1      52.702  35.152  54.232  0.00  0.00    -0.163 NA
ATOM      5  C   UNL d   1      51.955  34.302  53.342  0.00  0.00     0.055 A 
ATOM      6  N   UNL d   1      52.370  32.955  53.123  0.00  0.00    -0.227 NA
ATOM      7  C   UNL d   1      53.532  32.459  53.794  0.00  0.00     0.052 A 
ATOM      8  C   UNL d   1      52.064  35.040  53.712  0.00  0.00     0.104 A 
ATOM      9  C   UNL d   1      52.887  32.336  53.265  0.00  0.00     0.086 A 
ATOM     10  C   UNL d   1      53.944  31.757  53.826  0.00  0.00     0.005 A 
ATOM     11  C   UNL d   1      51.539  35.653  53.562  0.00  0.00     0.023 C 
ATOM     12  C   UNL d   1      52.918  31.564  52.985  0.00  0.00     0.019 A 
ATOM     13  C   UNL d   1      53.583  31.202  53.339  0.00  0.00     0.002 A 
ENDROOT
BRANCH   5  14
ATOM     14  C   UNL d   1      51.321  34.191  52.826  0.00  0.00     0.004 A 
ATOM     15  C   UNL d   1      51.420  34.301  52.018  0.00  0.00     0.000 A 
ATOM     16  C   UNL d   1      50.779  34.188  51.496  0.00  0.00     0.000 A 
ATOM     17  C   UNL d   1      50.053  33.968  51.792  0.00  0.00     0.000 A 
ATOM     18  C   UNL d   1      49.950  33.856  52.607  0.00  0.00     0.000 A 
ATOM     19  C   UNL d   1      50.583  33.967  53.117  0.00  0.00     0.000 A 
ENDBRANCH   5  14
BRANCH   3  20
ATOM     20  N   UNL d   1      54.297  33.290  54.691  0.00  0.00    -0.271 N 
ATOM     21  C   UNL d   1      54.296  33.111  55.520  0.00  0.00     0.184 A 
ATOM     22  N   UNL d   1      55.064  33.311  55.821  0.00  0.00    -0.222 NA
ATOM     23  C   UNL d   1      55.539  33.612  55.180  0.00  0.00     0.120 A 
ATOM     24  C   UNL d   1      55.051  33.595  54.479  0.00  0.00     0.104 A 
ENDBRANCH   3  20
TORSDOF 2
ENDMDL
MODEL 4
REMARK VINA RESULT:      -8.2      1.668      3.590
REMARK  2 active torsions:
REMARK  status: ('A' for Active; 'I' for Inactive)
REMARK    1  A    between atoms: N_9  and  C_3 
REMARK    2  A    between atoms: C_13  and  C_5 
ROOT
ATOM      1  N   UNL d   1      52.256  34.132  53.520  0.00  0.00    -0.196 N 
ATOM      2  C   UNL d   1      52.957  33.868  53.905  0.00  0.00     0.167 A 
ATOM      3  C   UNL d   1      51.811  33.598  53.065  0.00  0.00     0.153 A 
ATOM      4  N   UNL d   1      52.458  35.441  54.049  0.00  0.00    -0.163 NA
ATOM      5  C   UNL d   1      53.392  34.388  54.350  0.00  0.00     0.055 A 
ATOM      6  N   UNL d   1      53.190  33.079  53.821  0.00  0.00    -0.227 NA
ATOM      7  C   UNL d   1      52.053  32.823  52.992  0.00  0.00     0.052 A 
ATOM      8  C   UNL d   1      53.149  35.181  54.428  0.00  0.00     0.104 A 
ATOM      9  C   UNL d   1      52.754  32.551  53.373  0.00  0.00     0.086 A 
ATOM     10  C   UNL d   1      51.741  32.185  52.593  0.00  0.00     0.005 A 
ATOM     11  C   UNL d   1      53.595  35.702  54.880  0.00  0.00     0.023 C 
ATOM     12  C   UNL d   1      52.855  31.753  53.200  0.00  0.00     0.019 A 
ATOM     13  C   UNL d   1      52.218  31.526  52.710  0.00  0.00     0.002 A 
ENDROOT
BRANCH   5  14
ATOM     14  C   UNL d   1      54.079  34.130  54.727  0.00  0.00     0.004 A 
ATOM     15  C   UNL d   1      54.807  34.192  54.351  0.00  0.00     0.000 A 
ATOM     16  C   UNL d   1      55.501  33.931  54.732  0.00  0.00     0.000 A 
ATOM     17  C   UNL d   1      55.454  33.613  55.481  0.00  0.00     0.000 A 
ATOM     18  C   UNL d   1      54.721  33.548  55.863  0.00  0.00     0.000 A 
ATOM     19  C   UNL d   1      54.040  33.806  55.485  0.00  0.00     0.000 A 
ENDBRANCH   5  14
BRANCH   3  20
ATOM     20  N   UNL d   1      51.102  33.861  52.675  0.00  0.00    -0.271 N 
ATOM     21  C   UNL d   1      51.051  34.133  51.873  0.00  0.00     0.184 A 
ATOM     22  N   UNL d   1      50.240  34.335  51.728  0.00  0.00    -0.222 NA
ATOM     23  C   UNL d   1      49.790  34.188  52.437  0.00  0.00     0.120 A 
ATOM     24  C   UNL d   1      50.337  33.892  53.022  0.00  0.00     0.104 A 
ENDBRANCH   3  20
TORSDOF 2
ENDMDL
MODEL 5
REMARK VINA RESULT:      -7.0      1.318      4.231
REMARK  2 active torsions:
REMARK  status: ('A' for Active; 'I' for Inactive)
REMARK    1  A    between atoms: N_9  and  C_3 
REMARK    2  A    between atoms: C_13  and  C_5 
ROOT
ATOM      1  N   UNL d   1      53.289  32.396  53.820  0.00  0.00    -0.196 N 
ATOM      2  C   UNL d   1      53.127  33.209  53.976  0.00  0.00     0.167 A 
ATOM      3  C   UNL d   1      52.705  31.921  53.468  0.00  0.00     0.153 A 
ATOM      4  N   UNL d   1      54.597  32.553  54.365  0.00  0.00    -0.163 NA
ATOM      5  C   UNL d   1      53.695  33.673  54.319  0.00  0.00     0.055 A 
ATOM      6  N   UNL d   1      52.387  33.517  53.774  0.00  0.00    -0.227 NA
ATOM      7  C   UNL d   1      51.981  32.239  53.275  0.00  0.00     0.052 A 
ATOM      8  C   UNL d   1      54.437  33.353  54.518  0.00  0.00     0.104 A 
ATOM      9  C   UNL d   1      51.810  33.051  53.427  0.00  0.00     0.086 A 
ATOM     10  C   UNL d   1      51.313  31.921  52.932  0.00  0.00     0.005 A 
ATOM     11  C   UNL d   1      55.008  33.831  54.866  0.00  0.00     0.023 C 
ATOM     12  C   UNL d   1      51.044  33.211  53.175  0.00  0.00     0.019 A 
ATOM     13  C   UNL d   1      50.735  32.500  52.865  0.00  0.00     0.002 A 
ENDROOT
BRANCH   5  14
ATOM     14  C   UNL d   1      53.537  34.469  54.471  0.00  0.00     0.004 A 
ATOM     15  C   UNL d   1      53.651  35.034  53.887  0.00  0.00     0.000 A 
ATOM     16  C   UNL d   1      53.491  35.838  54.040  0.00  0.00     0.000 A 
ATOM     17  C   UNL d   1      53.219  36.060  54.776  0.00  0.00     0.000 A 
ATOM     18  C   UNL d   1      53.102  35.492  55.368  0.00  0.00     0.000 A 
ATOM     19  C   UNL d   1      53.261  34.702  55.213  0.00  0.00     0.000 A 
ENDBRANCH   5  14
BRANCH   3  20
ATOM     20  N   UNL d   1      52.866  31.100  53.309  0.00  0.00    -0.271 N 
ATOM     21  C   UNL d   1      53.122  30.782  52.566  0.00  0.00     0.184 A 
ATOM     22  N   UNL d   1      53.210  29.944  52.670  0.00  0.00    -0.222 NA
ATOM     23  C   UNL d   1      53.008  29.745  53.473  0.00  0.00     0.120 A 
ATOM     24  C   UNL d   1      52.795  30.474  53.865  0.00  0.00     0.104 A 
ENDBRANCH   3  20
TORSDOF 2
ENDMDL
MODEL 6
REMARK VINA RESULT:      -6.5      2.139      3.780
REMARK  2 active torsions:
REMARK  status: ('A' for Active; 'I' for Inactive)
REMARK    1  A    between atoms: N_9  and  C_3 
REMARK    2  A    between atoms: C_13  and  C_5 
ROOT
ATOM      1  N   UNL d   1      53.112  33.658  53.995  0.00  0.00    -0.196 N 
ATOM      2  C   UNL d   1      52.428  33.952  53.599  0.00  0.00     0.167 A 
ATOM      3  C   UNL d   1      53.557  34.167  54.479  0.00  0.00     0.153 A 
ATOM      4  N   UNL d   1      52.893  32.372  53.421  0.00  0.00    -0.163 NA
ATOM      5  C   UNL d   1      51.994  33.456  53.127  0.00  0.00     0.055 A 
ATOM      6  N   UNL d   1      52.213  34.743  53.701  0.00  0.00    -0.227 NA
ATOM      7  C   UNL d   1      53.332  34.945  54.570  0.00  0.00     0.052 A 
ATOM      8  C   UNL d   1      52.219  32.660  53.031  0.00  0.00     0.104 A 
ATOM      9  C   UNL d   1      52.649  35.247  54.177  0.00  0.00     0.086 A 
ATOM     10  C   UNL d   1      53.648  35.563  54.996  0.00  0.00     0.005 A 
ATOM     11  C   UNL d   1      51.774  32.165  52.551  0.00  0.00     0.023 C 
ATOM     12  C   UNL d   1      52.563  36.041  54.372  0.00  0.00     0.019 A 
ATOM     13  C   UNL d   1      53.191  36.236  54.886  0.00  0.00     0.002 A 
ENDROOT
BRANCH   5  14
ATOM     14  C   UNL d   1      51.325  33.743  52.739  0.00  0.00     0.004 A 
ATOM     15  C   UNL d   1      50.594  33.742  53.116  0.00  0.00     0.000 A 
ATOM     16  C   UNL d   1      49.918  34.033  52.724  0.00  0.00     0.000 A 
ATOM     17  C   UNL d   1      49.985  34.318  51.963  0.00  0.00     0.000 A 
ATOM     18  C   UNL d   1      50.720  34.321  51.580  0.00  0.00     0.000 A 
ATOM     19  C   UNL d   1      51.384  34.034  51.969  0.00  0.00     0.000 A 
ENDBRANCH   5  14
BRANCH   3  20
ATOM     20  N   UNL d   1      54.248  33.874  54.881  0.00  0.00    -0.271 N 
ATOM     21  C   UNL d   1      54.251  33.467  55.625  0.00  0.00     0.184 A 
ATOM     22  N   UNL d   1      55.060  33.283  55.806  0.00  0.00    -0.222 NA
ATOM     23  C   UNL d   1      55.554  33.575  55.176  0.00  0.00     0.120 A 
ATOM     24  C   UNL d   1      55.038  33.943  54.603  0.00  0.00     0.104 A 
ENDBRANCH   3  20
TORSDOF 2
ENDMDL
MODEL 7
REMARK VINA RESULT:      -6.1      1.242      3.886
REMARK  2 active torsions:
REMARK  status: ('A' for Active; 'I' for Inactive)
REMARK    1  A    between atoms: N_9  and  C_3 
REMARK    2  A    between atoms: C_13  and  C_5 
ROOT
ATOM      1  N   UNL d   1      52.637  32.430  53.296  0.00  0.00    -0.196 N 
ATOM      2  C   UNL d   1      52.799  33.185  53.635  0.00  0.00     0.167 A 
ATOM      3  C   UNL d   1      52.965  31.748  53.637  0.00  0.00     0.153 A 
ATOM      4  N   UNL d   1      51.833  33.052  52.295  0.00  0.00    -0.163 NA
ATOM      5  C   UNL d   1      52.479  33.852  53.302  0.00  0.00     0.055 A 
ATOM      6  N   UNL d   1      53.283  33.230  54.303  0.00  0.00    -0.227 NA
ATOM      7  C   UNL d   1      53.441  31.809  54.296  0.00  0.00     0.052 A 
ATOM      8  C   UNL d   1      51.992  33.795  52.629  0.00  0.00     0.104 A 
ATOM      9  C   UNL d   1      53.608  32.560  54.641  0.00  0.00     0.086 A 
ATOM     10  C   UNL d   1      53.833  31.253  54.744  0.00  0.00     0.005 A 
ATOM     11  C   UNL d   1      51.672  34.476  52.299  0.00  0.00     0.023 C 
ATOM     12  C   UNL d   1      54.098  32.447  55.292  0.00  0.00     0.019 A 
ATOM     13  C   UNL d   1      54.237  31.626  55.354  0.00  0.00     0.002 A 
ENDROOT
BRANCH   5  14
ATOM     14  C   UNL d   1      52.637  34.590  53.634  0.00  0.00     0.004 A 
ATOM     15  C   UNL d   1      52.144  34.900  54.213  0.00  0.00     0.000 A 
ATOM     16  C   UNL d   1      52.304  35.646  54.549  0.00  0.00     0.000 A 
ATOM     17  C   UNL d   1      52.954  36.069  54.298  0.00  0.00     0.000 A 
ATOM     18  C   UNL d   1      53.454  35.760  53.714  0.00  0.00     0.000 A 
ATOM     19  C   UNL d   1      53.294  35.025  53.386  0.00  0.00     0.000 A 
ENDBRANCH   5  14
BRANCH   3  20
ATOM     20  N   UNL d   1      52.804  30.984  53.298  0.00  0.00    -0.271 N 
ATOM     21  C   UNL d   1      52.159  30.476  53.510  0.00  0.00     0.184 A 
ATOM     22  N   UNL d   1      52.221  29.778  53.029  0.00  0.00    -0.222 NA
ATOM     23  C   UNL d   1      52.902  29.856  52.522  0.00  0.00     0.120 A 
ATOM     24  C   UNL d   1      53.259  30.612  52.697  0.00  0.00     0.104 A 
ENDBRANCH   3  20
TORSDOF 2
ENDMDL
