MODEL 1
REMARK VINA RESULT:      -7.0      0.000      0.000
REMARK  8 active torsions:
REMARK  status: ('A' for Active; 'I' for Inactive)
REMARK    1  A    between atoms: C_4  and  N_1 
REMARK    2  A    between atoms: C_10  and  C_2 
REMARK    3  A    between atoms: N_14  and  C_4 
REMARK    4  A    between atoms: O_17  and  C_8 
REMARK    5  A    between atoms: O_15  and  C_10 
REMARK    6  A    between atoms: O_18  and  C_11 
REMARK    7  A    between atoms: C_16  and  O_15 
REMARK    8  A    between atoms: C_25  and  C_19 
ROOT
ATOM      1  N   UNL d   1      53.505  33.846  54.075  0.00  0.00    -0.280 N 
ATOM      2  C   UNL d   1      52.936  33.344  53.750  0.00  0.00     0.091 A 
ATOM      3  C   UNL d   1      53.101  32.549  53.659  0.00  0.00     0.020 A 
ATOM      4  C   UNL d   1      53.833  32.248  53.890  0.00  0.00     0.005 A 
ATOM      5  C   UNL d   1      52.534  32.051  53.335  0.00  0.00     0.028 A 
ATOM      6  C   UNL d   1      54.237  33.544  54.306  0.00  0.00     0.082 A 
ATOM      7  C   UNL d   1      52.696  31.248  53.241  0.00  0.00     0.116 A 
ATOM      8  C   UNL d   1      53.998  31.447  53.797  0.00  0.00     0.026 A 
ATOM      9  C   UNL d   1      53.428  30.946  53.472  0.00  0.00     0.116 A 
ATOM     10  C   UNL d   1      54.400  32.740  54.212  0.00  0.00     0.019 A 
ENDROOT
BRANCH   2  11
ATOM     11  C   UNL d   1      52.204  33.646  53.519  0.00  0.00     0.140 C 
BRANCH  11  12
ATOM     12  O   UNL d   1      52.006  33.683  52.718  0.00  0.00    -0.304 OA
BRANCH  12  13
ATOM     13  C   UNL d   1      51.263  33.957  52.489  0.00  0.00     0.100 A 
ATOM     14  C   UNL d   1      51.127  34.170  51.703  0.00  0.00     0.025 A 
ATOM     15  C   UNL d   1      50.383  34.445  51.474  0.00  0.00     0.002 A 
ATOM     16  C   UNL d   1      49.776  34.507  52.030  0.00  0.00     0.000 A 
ATOM     17  C   UNL d   1      49.913  34.294  52.816  0.00  0.00     0.002 A 
ATOM     18  C   UNL d   1      50.657  34.019  53.045  0.00  0.00     0.025 A 
BRANCH  16  19
ATOM     19  C   UNL d   1      49.033  34.781  51.801  0.00  0.00     0.000 C 
ATOM     20  C   UNL d   1      48.746  34.615  51.048  0.00  0.00     0.000 C 
ENDBRANCH  16  19
ENDBRANCH  12  13
ENDBRANCH  11  12
ENDBRANCH   2  11
BRANCH   1  21
ATOM     21  C   UNL d   1      53.345  34.658  54.172  0.00  0.00     0.206 C 
ATOM     22  S   UNL d   1      53.571  35.196  53.577  0.00  0.00    -0.038 SA
BRANCH  21  23
ATOM     23  N   UNL d   1      52.967  34.923  54.846  0.00  0.00    -0.215 NA
ATOM     24  C   UNL d   1      53.012  35.719  55.062  0.00  0.00     0.122 C 
ENDBRANCH  21  23
ENDBRANCH   1  21
BRANCH   7  25
ATOM     25  O   UNL d   1      52.126  30.741  52.915  0.00  0.00    -0.326 OA
ATOM     26  C   UNL d   1      51.483  30.475  53.374  0.00  0.00     0.181 C 
ENDBRANCH   7  25
BRANCH   9  27
ATOM     27  O   UNL d   1      53.590  30.137  53.377  0.00  0.00    -0.326 OA
ATOM     28  C   UNL d   1      54.244  29.789  53.759  0.00  0.00     0.181 C 
ENDBRANCH   9  27
TORSDOF 8
ENDMDL
MODEL 2
REMARK VINA RESULT:      -6.8      1.636      3.007
REMARK  8 active torsions:
REMARK  status: ('A' for Active; 'I' for Inactive)
REMARK    1  A    between atoms: C_4  and  N_1 
REMARK    2  A    between atoms: C_10  and  C_2 
REMARK    3  A    between atoms: N_14  and  C_4 
REMARK    4  A    between atoms: O_17  and  C_8 
REMARK    5  A    between atoms: O_15  and  C_10 
REMARK    6  A    between atoms: O_18  and  C_11 
REMARK    7  A    between atoms: C_16  and  O_15 
REMARK    8  A    between atoms: C_25  and  C_19 
ROOT
ATOM      1  N   UNL d   1      53.159  31.657  53.533  0.00  0.00    -0.280 N 
ATOM      2  C   UNL d   1      52.956  32.447  53.659  0.00  0.00     0.091 A 
ATOM      3  C   UNL d   1      53.472  32.940  54.055  0.00  0.00     0.020 A 
ATOM      4  C   UNL d   1      54.195  32.651  54.329  0.00  0.00     0.005 A 
ATOM      5  C   UNL d   1      53.268  33.726  54.180  0.00  0.00     0.028 A 
ATOM      6  C   UNL d   1      53.882  31.369  53.807  0.00  0.00     0.082 A 
ATOM      7  C   UNL d   1      53.787  34.228  54.580  0.00  0.00     0.116 A 
ATOM      8  C   UNL d   1      54.714  33.149  54.728  0.00  0.00     0.026 A 
ATOM      9  C   UNL d   1      54.510  33.939  54.854  0.00  0.00     0.116 A 
ATOM     10  C   UNL d   1      54.401  31.870  54.207  0.00  0.00     0.019 A 
ENDROOT
BRANCH   2  11
ATOM     11  C   UNL d   1      52.233  32.735  53.385  0.00  0.00     0.140 C 
BRANCH  11  12
ATOM     12  O   UNL d   1      52.213  33.275  52.761  0.00  0.00    -0.304 OA
BRANCH  12  13
ATOM     13  C   UNL d   1      51.503  33.639  52.553  0.00  0.00     0.100 A 
ATOM     14  C   UNL d   1      50.855  33.601  53.062  0.00  0.00     0.025 A 
ATOM     15  C   UNL d   1      50.145  33.965  52.854  0.00  0.00     0.002 A 
ATOM     16  C   UNL d   1      50.083  34.369  52.137  0.00  0.00     0.000 A 
ATOM     17  C   UNL d   1      50.731  34.407  51.627  0.00  0.00     0.002 A 
ATOM     18  C   UNL d   1      51.442  34.042  51.835  0.00  0.00     0.025 A 
BRANCH  16  19
ATOM     19  C   UNL d   1      49.373  34.733  51.929  0.00  0.00     0.000 C 
ATOM     20  C   UNL d   1      48.986  34.518  51.236  0.00  0.00     0.000 C 
ENDBRANCH  16  19
ENDBRANCH  12  13
ENDBRANCH  11  12
ENDBRANCH   2  11
BRANCH   1  21
ATOM     21  C   UNL d   1      52.638  31.147  53.130  0.00  0.00     0.206 C 
ATOM     22  S   UNL d   1      51.947  30.878  53.511  0.00  0.00    -0.038 SA
BRANCH  21  23
ATOM     23  N   UNL d   1      52.805  30.912  52.365  0.00  0.00    -0.215 NA
ATOM     24  C   UNL d   1      52.764  30.115  52.156  0.00  0.00     0.122 C 
ENDBRANCH  21  23
ENDBRANCH   1  21
BRANCH   7  25
ATOM     25  O   UNL d   1      53.585  35.022  54.708  0.00  0.00    -0.326 OA
ATOM     26  C   UNL d   1      52.934  35.221  55.189  0.00  0.00     0.181 C 
ENDBRANCH   7  25
BRANCH   9  27
ATOM     27  O   UNL d   1      55.031  34.446  55.256  0.00  0.00    -0.326 OA
ATOM     28  C   UNL d   1      55.811  34.204  55.422  0.00  0.00     0.181 C 
ENDBRANCH   9  27
TORSDOF 8
ENDMDL
MODEL 3
REMARK VINA RESULT:      -6.3      1.220      4.083
REMARK  8 active torsions:
REMARK  status: ('A' for Active; 'I' for Inactive)
REMARK    1  A    between atoms: C_4  and  N_1 
REMARK    2  A    between atoms: C_10  and  C_2 
REMARK    3  A    between atoms: N_14  and  C_4 
REMARK    4  A    between atoms: O_17  and  C_8 
REMARK    5  A    between atoms: O_15  and  C_10 
REMARK    6  A    between atoms: O_18  and  C_11 
REMARK    7  A    between atoms: C_16  and  O_15 
REMARK    8  A    between atoms: C_25  and  C_19 
ROOT
ATOM      1  N   UNL d   1      53.694  33.939  54.082  0.00  0.00    -0.280 N 
ATOM      2  C   UNL d   1      53.102  33.390  53.914  0.00  0.00     0.091 A 
ATOM      3  C   UNL d   1      52.407  33.638  53.565  0.00  0.00     0.020 A 
ATOM      4  C   UNL d   1      52.295  34.434  53.379  0.00  0.00     0.005 A 
ATOM      5  C   UNL d   1      51.818  33.090  53.398  0.00  0.00     0.028 A 
ATOM      6  C   UNL d   1      53.583  34.735  53.896  0.00  0.00     0.082 A 
ATOM      7  C   UNL d   1      51.113  33.336  53.045  0.00  0.00     0.116 A 
ATOM      8  C   UNL d   1      51.595  34.682  53.027  0.00  0.00     0.026 A 
ATOM      9  C   UNL d   1      51.002  34.132  52.859  0.00  0.00     0.116 A 
ATOM     10  C   UNL d   1      52.879  34.982  53.543  0.00  0.00     0.019 A 
ENDROOT
BRANCH   2  11
ATOM     11  C   UNL d   1      53.213  32.594  54.100  0.00  0.00     0.140 C 
BRANCH  11  12
ATOM     12  O   UNL d   1      53.414  32.056  53.507  0.00  0.00    -0.304 OA
BRANCH  12  13
ATOM     13  C   UNL d   1      53.403  31.246  53.664  0.00  0.00     0.100 A 
ATOM     14  C   UNL d   1      53.423  30.705  53.041  0.00  0.00     0.025 A 
ATOM     15  C   UNL d   1      53.412  29.895  53.198  0.00  0.00     0.002 A 
ATOM     16  C   UNL d   1      53.382  29.626  53.978  0.00  0.00     0.000 A 
ATOM     17  C   UNL d   1      53.363  30.168  54.601  0.00  0.00     0.002 A 
ATOM     18  C   UNL d   1      53.373  30.978  54.444  0.00  0.00     0.025 A 
BRANCH  16  19
ATOM     19  C   UNL d   1      53.371  28.816  54.134  0.00  0.00     0.000 C 
ATOM     20  C   UNL d   1      53.408  28.546  54.910  0.00  0.00     0.000 C 
ENDBRANCH  16  19
ENDBRANCH  12  13
ENDBRANCH  11  12
ENDBRANCH   2  11
BRANCH   1  21
ATOM     21  C   UNL d   1      54.406  33.695  54.439  0.00  0.00     0.206 C 
ATOM     22  S   UNL d   1      55.077  33.553  53.965  0.00  0.00    -0.038 SA
BRANCH  21  23
ATOM     23  N   UNL d   1      54.446  33.596  55.249  0.00  0.00    -0.215 NA
ATOM     24  C   UNL d   1      55.156  33.722  55.649  0.00  0.00     0.122 C 
ENDBRANCH  21  23
ENDBRANCH   1  21
BRANCH   7  25
ATOM     25  O   UNL d   1      50.516  32.786  52.875  0.00  0.00    -0.326 OA
ATOM     26  C   UNL d   1      50.316  32.194  53.427  0.00  0.00     0.181 C 
ENDBRANCH   7  25
BRANCH   9  27
ATOM     27  O   UNL d   1      50.293  34.378  52.504  0.00  0.00    -0.326 OA
ATOM     28  C   UNL d   1      49.864  35.019  52.818  0.00  0.00     0.181 C 
ENDBRANCH   9  27
TORSDOF 8
ENDMDL
MODEL 4
REMARK VINA RESULT:      -5.5      1.629      3.831
REMARK  8 active torsions:
REMARK  status: ('A' for Active; 'I' for Inactive)
REMARK    1  A    between atoms: C_4  and  N_1 
REMARK    2  A    between atoms: C_10  and  C_2 
REMARK    3  A    between atoms: N_14  and  C_4 
REMARK    4  A    between atoms: O_17  and  C_8 
REMARK    5  A    between atoms: O_15  and  C_10 
REMARK    6  A    between atoms: O_18  and  C_11 
REMARK    7  A    between atoms: C_16  and  O_15 
REMARK    8  A    between atoms: C_25  and  C_19 
ROOT
ATOM      1  N   UNL d   1      52.028  34.253  53.180  0.00  0.00    -0.280 N 
ATOM      2  C   UNL d   1      52.429  33.643  53.567  0.00  0.00     0.091 A 
ATOM      3  C   UNL d   1      53.078  33.816  54.031  0.00  0.00     0.020 A 
ATOM      4  C   UNL d   1      53.335  34.596  54.114  0.00  0.00     0.005 A 
ATOM      5  C   UNL d   1      53.476  33.208  54.415  0.00  0.00     0.028 A 
ATOM      6  C   UNL d   1      52.285  35.032  53.263  0.00  0.00     0.082 A 
ATOM      7  C   UNL d   1      54.133  33.378  54.885  0.00  0.00     0.116 A 
ATOM      8  C   UNL d   1      53.989  34.767  54.581  0.00  0.00     0.026 A 
ATOM      9  C   UNL d   1      54.389  34.157  54.968  0.00  0.00     0.116 A 
ATOM     10  C   UNL d   1      52.942  35.203  53.733  0.00  0.00     0.019 A 
ENDROOT
BRANCH   2  11
ATOM     11  C   UNL d   1      52.172  32.864  53.483  0.00  0.00     0.140 C 
BRANCH  11  12
ATOM     12  O   UNL d   1      52.491  32.385  52.891  0.00  0.00    -0.304 OA
BRANCH  12  13
ATOM     13  C   UNL d   1      52.544  31.569  53.004  0.00  0.00     0.100 A 
ATOM     14  C   UNL d   1      53.204  31.157  52.727  0.00  0.00     0.025 A 
ATOM     15  C   UNL d   1      53.257  30.342  52.840  0.00  0.00     0.002 A 
ATOM     16  C   UNL d   1      52.650  29.938  53.229  0.00  0.00     0.000 A 
ATOM     17  C   UNL d   1      51.991  30.351  53.505  0.00  0.00     0.002 A 
ATOM     18  C   UNL d   1      51.938  31.167  53.393  0.00  0.00     0.025 A 
BRANCH  16  19
ATOM     19  C   UNL d   1      52.703  29.123  53.341  0.00  0.00     0.000 C 
ATOM     20  C   UNL d   1      53.072  28.822  54.012  0.00  0.00     0.000 C 
ENDBRANCH  16  19
ENDBRANCH  12  13
ENDBRANCH  11  12
ENDBRANCH   2  11
BRANCH   1  21
ATOM     21  C   UNL d   1      51.365  34.086  52.705  0.00  0.00     0.206 C 
ATOM     22  S   UNL d   1      51.450  34.048  51.876  0.00  0.00    -0.038 SA
BRANCH  21  23
ATOM     23  N   UNL d   1      50.635  33.960  53.050  0.00  0.00    -0.215 NA
ATOM     24  C   UNL d   1      49.946  34.201  52.666  0.00  0.00     0.122 C 
ENDBRANCH  21  23
ENDBRANCH   1  21
BRANCH   7  25
ATOM     25  O   UNL d   1      54.537  32.767  55.274  0.00  0.00    -0.326 OA
ATOM     26  C   UNL d   1      54.171  32.343  55.891  0.00  0.00     0.181 C 
ENDBRANCH   7  25
BRANCH   9  27
ATOM     27  O   UNL d   1      55.050  34.326  55.441  0.00  0.00    -0.326 OA
ATOM     28  C   UNL d   1      55.776  34.540  55.092  0.00  0.00     0.181 C 
ENDBRANCH   9  27
TORSDOF 8
ENDMDL
