MODEL 1
REMARK VINA RESULT:      17.0      0.000      0.000
REMARK  3 active torsions:
REMARK  status: ('A' for Active; 'I' for Inactive)
REMARK    1  A    between atoms: C_5  and  C_3 
REMARK       I    between atoms: N_10  and  C_5 
REMARK    2  A    between atoms: C_13  and  N_10 
REMARK    3  A    between atoms: C_15  and  C_13 
ROOT
ATOM      1  N   UNL d   1      46.218 -18.762  43.277  0.00  0.00    -0.254 N 
ATOM      2  C   UNL d   1      45.947 -18.183  43.805  0.00  0.00     0.272 A 
ATOM      3  C   UNL d   1      45.853 -17.400  43.554  0.00  0.00     0.133 A 
ATOM      4  C   UNL d   1      46.392 -18.549  42.499  0.00  0.00     0.182 A 
ATOM      5  N   UNL d   1      46.299 -17.771  42.247  0.00  0.00    -0.220 NA
ATOM      6  C   UNL d   1      46.029 -17.195  42.775  0.00  0.00     0.111 A 
ATOM      7  S   UNL d   1      46.647 -19.226  42.101  0.00  0.00    -0.048 SA
ATOM      8  C   UNL d   1      46.362 -19.563  43.363  0.00  0.00     0.075 A 
ATOM      9  C   UNL d   1      46.627 -19.857  42.644  0.00  0.00     0.056 A 
ATOM     10  O   UNL d   1      45.773 -18.396  44.582  0.00  0.00    -0.266 OA
ATOM     11  C   UNL d   1      46.262 -20.003  44.049  0.00  0.00     0.020 C 
ENDROOT
BRANCH   3  12
ATOM     12  C   UNL d   1      45.581 -16.831  44.093  0.00  0.00     0.285 C 
ATOM     13  N   UNL d   1      45.513 -16.048  43.848  0.00  0.00    -0.208 NA
ATOM     14  O   UNL d   1      45.384 -17.044  44.856  0.00  0.00    -0.265 OA
BRANCH  13  15
ATOM     15  C   UNL d   1      45.244 -15.476  44.375  0.00  0.00     0.085 C 
ATOM     16  C   UNL d   1      44.701 -15.666  44.955  0.00  0.00     0.021 C 
BRANCH  15  17
ATOM     17  C   UNL d   1      45.530 -14.705  44.311  0.00  0.00     0.018 A 
ATOM     18  C   UNL d   1      45.135 -14.174  43.814  0.00  0.00     0.002 A 
ATOM     19  C   UNL d   1      45.420 -13.402  43.751  0.00  0.00     0.000 A 
ATOM     20  C   UNL d   1      46.095 -13.156  44.178  0.00  0.00     0.000 A 
ATOM     21  C   UNL d   1      46.480 -13.697  44.670  0.00  0.00     0.000 A 
ATOM     22  C   UNL d   1      46.203 -14.471  44.741  0.00  0.00     0.002 A 
ENDBRANCH  15  17
ENDBRANCH  13  15
ENDBRANCH   3  12
TORSDOF 3
ENDMDL
