MODEL 1
REMARK VINA RESULT:      -2.9      0.000      0.000
REMARK  3 active torsions:
REMARK  status: ('A' for Active; 'I' for Inactive)
REMARK    1  A    between atoms: S_9  and  C_2 
REMARK    2  A    between atoms: C_15  and  S_9 
REMARK    3  A    between atoms: C_14  and  C_15 
ROOT
ATOM      1  C   UNL d   1      32.421  21.437 -21.060  0.00  0.00     0.119 A 
ATOM      2  C   UNL d   1      32.692  22.034 -21.566  0.00  0.00     0.119 A 
ATOM      3  O   UNL d   1      32.038  21.800 -20.431  0.00  0.00    -0.300 OA
ATOM      4  O   UNL d   1      32.474  22.758 -21.243  0.00  0.00    -0.300 OA
ATOM      5  C   UNL d   1      32.073  22.610 -20.548  0.00  0.00     0.304 A 
ATOM      6  C   UNL d   1      32.559  20.652 -21.241  0.00  0.00     0.027 A 
ATOM      7  C   UNL d   1      33.096  21.833 -22.243  0.00  0.00     0.026 A 
ATOM      8  C   UNL d   1      32.969  20.451 -21.928  0.00  0.00     0.009 A 
ATOM      9  C   UNL d   1      33.240  21.048 -22.434  0.00  0.00     0.003 A 
ENDROOT
BRANCH   8  10
ATOM     10  C   UNL d   1      33.109  19.663 -22.112  0.00  0.00     0.037 C 
BRANCH  10  11
ATOM     11  S   UNL d   1      32.894  19.360 -22.853  0.00  0.00    -0.059 SA
BRANCH  11  12
ATOM     12  C   UNL d   1      32.947  18.528 -23.005  0.00  0.00     0.164 A 
ATOM     13  S   UNL d   1      32.711  18.153 -23.710  0.00  0.00    -0.039 SA
ATOM     14  C   UNL d   1      32.863  17.325 -23.620  0.00  0.00     0.134 A 
ATOM     15  N   UNL d   1      33.185  17.212 -22.868  0.00  0.00    -0.140 NA
ATOM     16  C   UNL d   1      32.708  16.739 -24.198  0.00  0.00     0.030 C 
ATOM     17  N   UNL d   1      33.241  17.954 -22.478  0.00  0.00    -0.134 NA
ENDBRANCH  11  12
ENDBRANCH  10  11
ENDBRANCH   8  10
TORSDOF 3
ENDMDL
MODEL 2
REMARK VINA RESULT:      -2.4      2.660      4.377
REMARK  3 active torsions:
REMARK  status: ('A' for Active; 'I' for Inactive)
REMARK    1  A    between atoms: S_9  and  C_2 
REMARK    2  A    between atoms: C_15  and  S_9 
REMARK    3  A    between atoms: C_14  and  C_15 
ROOT
ATOM      1  C   UNL d   1      33.156  18.515 -22.882  0.00  0.00     0.119 A 
ATOM      2  C   UNL d   1      33.164  18.642 -23.700  0.00  0.00     0.119 A 
ATOM      3  O   UNL d   1      33.121  17.705 -22.758  0.00  0.00    -0.300 OA
ATOM      4  O   UNL d   1      33.134  17.909 -24.071  0.00  0.00    -0.300 OA
ATOM      5  C   UNL d   1      33.108  17.337 -23.489  0.00  0.00     0.304 A 
ATOM      6  C   UNL d   1      33.181  19.150 -22.368  0.00  0.00     0.027 A 
ATOM      7  C   UNL d   1      33.198  19.403 -23.988  0.00  0.00     0.026 A 
ATOM      8  C   UNL d   1      33.215  19.920 -22.663  0.00  0.00     0.009 A 
ATOM      9  C   UNL d   1      33.224  20.048 -23.481  0.00  0.00     0.003 A 
ENDROOT
BRANCH   8  10
ATOM     10  C   UNL d   1      33.241  20.560 -22.148  0.00  0.00     0.037 C 
BRANCH  10  11
ATOM     11  S   UNL d   1      32.605  20.715 -21.639  0.00  0.00    -0.059 SA
BRANCH  11  12
ATOM     12  C   UNL d   1      32.562  21.452 -21.222  0.00  0.00     0.164 A 
ATOM     13  S   UNL d   1      32.758  21.561 -20.419  0.00  0.00    -0.039 SA
ATOM     14  C   UNL d   1      32.634  22.379 -20.238  0.00  0.00     0.134 A 
ATOM     15  N   UNL d   1      32.368  22.749 -20.927  0.00  0.00    -0.140 NA
ATOM     16  C   UNL d   1      32.762  22.733 -19.490  0.00  0.00     0.030 C 
ATOM     17  N   UNL d   1      32.321  22.180 -21.544  0.00  0.00    -0.134 NA
ENDBRANCH  11  12
ENDBRANCH  10  11
ENDBRANCH   8  10
TORSDOF 3
ENDMDL
MODEL 3
REMARK VINA RESULT:      -2.4      3.678      5.598
REMARK  3 active torsions:
REMARK  status: ('A' for Active; 'I' for Inactive)
REMARK    1  A    between atoms: S_9  and  C_2 
REMARK    2  A    between atoms: C_15  and  S_9 
REMARK    3  A    between atoms: C_14  and  C_15 
ROOT
ATOM      1  C   UNL d   1      29.021  15.816 -23.579  0.00  0.00     0.119 A 
ATOM      2  C   UNL d   1      28.885  15.666 -24.382  0.00  0.00     0.119 A 
ATOM      3  O   UNL d   1      28.314  15.693 -23.181  0.00  0.00    -0.300 OA
ATOM      4  O   UNL d   1      28.097  15.453 -24.470  0.00  0.00    -0.300 OA
ATOM      5  C   UNL d   1      27.750  15.470 -23.731  0.00  0.00     0.304 A 
ATOM      6  C   UNL d   1      29.765  16.043 -23.324  0.00  0.00     0.027 A 
ATOM      7  C   UNL d   1      29.496  15.745 -24.914  0.00  0.00     0.026 A 
ATOM      8  C   UNL d   1      30.382  16.122 -23.866  0.00  0.00     0.009 A 
ATOM      9  C   UNL d   1      30.246  15.972 -24.669  0.00  0.00     0.003 A 
ENDROOT
BRANCH   8  10
ATOM     10  C   UNL d   1      31.129  16.349 -23.612  0.00  0.00     0.037 C 
BRANCH  10  11
ATOM     11  S   UNL d   1      31.537  16.959 -23.999  0.00  0.00    -0.059 SA
BRANCH  11  12
ATOM     12  C   UNL d   1      32.153  17.381 -23.598  0.00  0.00     0.164 A 
ATOM     13  S   UNL d   1      32.238  18.210 -23.587  0.00  0.00    -0.039 SA
ATOM     14  C   UNL d   1      32.924  18.387 -23.123  0.00  0.00     0.134 A 
ATOM     15  N   UNL d   1      33.241  17.670 -22.863  0.00  0.00    -0.140 NA
ATOM     16  C   UNL d   1      33.216  19.156 -22.966  0.00  0.00     0.030 C 
ATOM     17  N   UNL d   1      32.768  17.039 -23.153  0.00  0.00    -0.134 NA
ENDBRANCH  11  12
ENDBRANCH  10  11
ENDBRANCH   8  10
TORSDOF 3
ENDMDL
MODEL 4
REMARK VINA RESULT:      -2.3      3.000      4.179
REMARK  3 active torsions:
REMARK  status: ('A' for Active; 'I' for Inactive)
REMARK    1  A    between atoms: S_9  and  C_2 
REMARK    2  A    between atoms: C_15  and  S_9 
REMARK    3  A    between atoms: C_14  and  C_15 
ROOT
ATOM      1  C   UNL d   1      32.493  18.555 -23.584  0.00  0.00     0.119 A 
ATOM      2  C   UNL d   1      32.752  18.679 -24.361  0.00  0.00     0.119 A 
ATOM      3  O   UNL d   1      32.798  19.161 -23.122  0.00  0.00    -0.300 OA
ATOM      4  O   UNL d   1      33.213  19.359 -24.369  0.00  0.00    -0.300 OA
ATOM      5  C   UNL d   1      33.239  19.651 -23.607  0.00  0.00     0.304 A 
ATOM      6  C   UNL d   1      32.019  17.912 -23.407  0.00  0.00     0.027 A 
ATOM      7  C   UNL d   1      32.532  18.157 -24.946  0.00  0.00     0.026 A 
ATOM      8  C   UNL d   1      31.798  17.385 -24.002  0.00  0.00     0.009 A 
ATOM      9  C   UNL d   1      32.056  17.509 -24.779  0.00  0.00     0.003 A 
ENDROOT
BRANCH   8  10
ATOM     10  C   UNL d   1      31.322  16.739 -23.826  0.00  0.00     0.037 C 
BRANCH  10  11
ATOM     11  S   UNL d   1      30.597  16.634 -24.213  0.00  0.00    -0.059 SA
BRANCH  11  12
ATOM     12  C   UNL d   1      29.967  16.212 -23.833  0.00  0.00     0.164 A 
ATOM     13  S   UNL d   1      29.180  16.177 -24.104  0.00  0.00    -0.039 SA
ATOM     14  C   UNL d   1      28.746  15.698 -23.558  0.00  0.00     0.134 A 
ATOM     15  N   UNL d   1      29.271  15.453 -22.970  0.00  0.00    -0.140 NA
ATOM     16  C   UNL d   1      27.930  15.516 -23.617  0.00  0.00     0.030 C 
ATOM     17  N   UNL d   1      30.033  15.767 -23.133  0.00  0.00    -0.134 NA
ENDBRANCH  11  12
ENDBRANCH  10  11
ENDBRANCH   8  10
TORSDOF 3
ENDMDL
