MODEL 1
REMARK VINA RESULT:      -7.5      0.000      0.000
REMARK  5 active torsions:
REMARK  status: ('A' for Active; 'I' for Inactive)
REMARK    1  A    between atoms: C_7  and  C_1 
REMARK    2  A    between atoms: C_13  and  N_3 
REMARK       I    between atoms: C_6  and  N_10 
REMARK    3  A    between atoms: C_8  and  C_6 
REMARK    4  A    between atoms: C_14  and  C_7 
REMARK    5  A    between atoms: N_10  and  C_14 
ROOT
ATOM      1  C   UNL d   1     -47.601  14.184  22.994  0.00  0.00     0.058 C 
ENDROOT
BRANCH   1   2
ATOM      2  C   UNL d   1     -47.263  13.442  23.140  0.00  0.00     0.149 A 
ATOM      3  N   UNL d   1     -47.666  12.763  23.357  0.00  0.00    -0.227 NA
ATOM      4  C   UNL d   1     -47.119  12.155  23.444  0.00  0.00     0.099 A 
ATOM      5  C   UNL d   1     -47.213  11.354  23.655  0.00  0.00     0.021 A 
ATOM      6  C   UNL d   1     -46.370  12.457  23.280  0.00  0.00     0.083 A 
ATOM      7  C   UNL d   1     -46.545  10.866  23.698  0.00  0.00     0.002 A 
ATOM      8  C   UNL d   1     -45.799  11.172  23.534  0.00  0.00     0.002 A 
ATOM      9  C   UNL d   1     -45.703  11.969  23.324  0.00  0.00     0.019 A 
ATOM     10  N   UNL d   1     -46.458  13.260  23.090  0.00  0.00    -0.289 N 
BRANCH  10  11
ATOM     11  C   UNL d   1     -45.853  13.787  22.888  0.00  0.00     0.082 C 
ATOM     12  C   UNL d   1     -45.580  13.816  22.107  0.00  0.00     0.021 C 
ENDBRANCH  10  11
ENDBRANCH   1   2
BRANCH   1  13
ATOM     13  C   UNL d   1     -48.410  14.239  22.827  0.00  0.00     0.105 C 
BRANCH  13  14
ATOM     14  N   UNL d   1     -48.787  14.966  22.833  0.00  0.00    -0.206 NA
ATOM     15  C   UNL d   1     -49.545  15.045  22.515  0.00  0.00     0.279 C 
ATOM     16  O   UNL d   1     -49.915  15.779  22.526  0.00  0.00    -0.265 OA
BRANCH  15  17
ATOM     17  C   UNL d   1     -49.923  14.393  22.191  0.00  0.00     0.058 A 
ATOM     18  C   UNL d   1     -49.768  14.176  21.414  0.00  0.00     0.007 A 
ATOM     19  C   UNL d   1     -50.146  13.523  21.090  0.00  0.00     0.030 A 
ATOM     20  C   UNL d   1     -50.680  13.082  21.535  0.00  0.00     0.140 A 
ATOM     21  C   UNL d   1     -50.832  13.304  22.313  0.00  0.00     0.030 A 
ATOM     22  F   UNL d   1     -51.064  12.421  21.209  0.00  0.00    -0.204 F 
ATOM     23  C   UNL d   1     -50.457  13.951  22.637  0.00  0.00     0.007 A 
ENDBRANCH  15  17
ENDBRANCH  13  14
ENDBRANCH   1  13
TORSDOF 5
ENDMDL
MODEL 2
REMARK VINA RESULT:      -7.4      1.439      2.321
REMARK  5 active torsions:
REMARK  status: ('A' for Active; 'I' for Inactive)
REMARK    1  A    between atoms: C_7  and  C_1 
REMARK    2  A    between atoms: C_13  and  N_3 
REMARK       I    between atoms: C_6  and  N_10 
REMARK    3  A    between atoms: C_8  and  C_6 
REMARK    4  A    between atoms: C_14  and  C_7 
REMARK    5  A    between atoms: N_10  and  C_14 
ROOT
ATOM      1  C   UNL d   1     -48.125  12.024  23.698  0.00  0.00     0.058 C 
ENDROOT
BRANCH   1   2
ATOM      2  C   UNL d   1     -47.482  12.431  23.373  0.00  0.00     0.149 A 
ATOM      3  N   UNL d   1     -47.435  13.239  23.248  0.00  0.00    -0.227 NA
ATOM      4  C   UNL d   1     -46.702  13.408  22.917  0.00  0.00     0.099 A 
ATOM      5  C   UNL d   1     -46.357  14.127  22.677  0.00  0.00     0.021 A 
ATOM      6  C   UNL d   1     -46.288  12.699  22.835  0.00  0.00     0.083 A 
ATOM      7  C   UNL d   1     -45.594  14.123  22.356  0.00  0.00     0.002 A 
ATOM      8  C   UNL d   1     -45.184  13.414  22.276  0.00  0.00     0.002 A 
ATOM      9  C   UNL d   1     -45.525  12.696  22.513  0.00  0.00     0.019 A 
ATOM     10  N   UNL d   1     -46.773  12.090  23.119  0.00  0.00    -0.289 N 
BRANCH  10  11
ATOM     11  C   UNL d   1     -46.586  11.284  23.145  0.00  0.00     0.082 C 
ATOM     12  C   UNL d   1     -46.035  11.009  23.698  0.00  0.00     0.021 C 
ENDBRANCH  10  11
ENDBRANCH   1   2
BRANCH   1  13
ATOM     13  C   UNL d   1     -48.892  12.193  23.433  0.00  0.00     0.105 C 
BRANCH  13  14
ATOM     14  N   UNL d   1     -49.499  11.656  23.550  0.00  0.00    -0.206 NA
ATOM     15  C   UNL d   1     -50.243  11.791  23.219  0.00  0.00     0.279 C 
ATOM     16  O   UNL d   1     -50.847  11.246  23.343  0.00  0.00    -0.265 OA
BRANCH  15  17
ATOM     17  C   UNL d   1     -50.376  12.465  22.771  0.00  0.00     0.058 A 
ATOM     18  C   UNL d   1     -50.205  12.460  21.967  0.00  0.00     0.007 A 
ATOM     19  C   UNL d   1     -50.338  13.135  21.519  0.00  0.00     0.030 A 
ATOM     20  C   UNL d   1     -50.641  13.818  21.864  0.00  0.00     0.140 A 
ATOM     21  C   UNL d   1     -50.810  13.817  22.670  0.00  0.00     0.030 A 
ATOM     22  F   UNL d   1     -50.776  14.502  21.412  0.00  0.00    -0.204 F 
ATOM     23  C   UNL d   1     -50.679  13.149  23.117  0.00  0.00     0.007 A 
ENDBRANCH  15  17
ENDBRANCH  13  14
ENDBRANCH   1  13
TORSDOF 5
ENDMDL
MODEL 3
REMARK VINA RESULT:      -7.1      2.038      4.515
REMARK  5 active torsions:
REMARK  status: ('A' for Active; 'I' for Inactive)
REMARK    1  A    between atoms: C_7  and  C_1 
REMARK    2  A    between atoms: C_13  and  N_3 
REMARK       I    between atoms: C_6  and  N_10 
REMARK    3  A    between atoms: C_8  and  C_6 
REMARK    4  A    between atoms: C_14  and  C_7 
REMARK    5  A    between atoms: N_10  and  C_14 
ROOT
ATOM      1  C   UNL d   1     -49.079  12.564  23.299  0.00  0.00     0.058 C 
ENDROOT
BRANCH   1   2
ATOM      2  C   UNL d   1     -49.485  13.283  23.237  0.00  0.00     0.149 A 
ATOM      3  N   UNL d   1     -49.322  13.968  23.656  0.00  0.00    -0.227 NA
ATOM      4  C   UNL d   1     -49.858  14.546  23.424  0.00  0.00     0.099 A 
ATOM      5  C   UNL d   1     -49.953  15.339  23.663  0.00  0.00     0.021 A 
ATOM      6  C   UNL d   1     -50.360  14.220  22.856  0.00  0.00     0.083 A 
ATOM      7  C   UNL d   1     -50.555  15.795  23.325  0.00  0.00     0.002 A 
ATOM      8  C   UNL d   1     -51.053  15.466  22.758  0.00  0.00     0.002 A 
ATOM      9  C   UNL d   1     -50.961  14.677  22.518  0.00  0.00     0.019 A 
ATOM     10  N   UNL d   1     -50.128  13.433  22.738  0.00  0.00    -0.289 N 
BRANCH  10  11
ATOM     11  C   UNL d   1     -50.474  12.891  22.218  0.00  0.00     0.082 C 
ATOM     12  C   UNL d   1     -50.172  12.807  21.452  0.00  0.00     0.021 C 
ENDBRANCH  10  11
ENDBRANCH   1   2
BRANCH   1  13
ATOM     13  C   UNL d   1     -48.251  12.565  23.335  0.00  0.00     0.105 C 
BRANCH  13  14
ATOM     14  N   UNL d   1     -47.846  11.891  23.566  0.00  0.00    -0.206 NA
ATOM     15  C   UNL d   1     -47.031  11.836  23.449  0.00  0.00     0.279 C 
ATOM     16  O   UNL d   1     -46.632  11.156  23.684  0.00  0.00    -0.265 OA
BRANCH  15  17
ATOM     17  C   UNL d   1     -46.624  12.458  23.101  0.00  0.00     0.058 A 
ATOM     18  C   UNL d   1     -46.620  12.535  22.283  0.00  0.00     0.007 A 
ATOM     19  C   UNL d   1     -46.214  13.157  21.935  0.00  0.00     0.030 A 
ATOM     20  C   UNL d   1     -45.808  13.706  22.395  0.00  0.00     0.140 A 
ATOM     21  C   UNL d   1     -45.815  13.624  23.214  0.00  0.00     0.030 A 
ATOM     22  F   UNL d   1     -45.395  14.337  22.045  0.00  0.00    -0.204 F 
ATOM     23  C   UNL d   1     -46.218  13.007  23.562  0.00  0.00     0.007 A 
ENDBRANCH  15  17
ENDBRANCH  13  14
ENDBRANCH   1  13
TORSDOF 5
ENDMDL
MODEL 4
REMARK VINA RESULT:      -6.6      8.225     10.045
REMARK  5 active torsions:
REMARK  status: ('A' for Active; 'I' for Inactive)
REMARK    1  A    between atoms: C_7  and  C_1 
REMARK    2  A    between atoms: C_13  and  N_3 
REMARK       I    between atoms: C_6  and  N_10 
REMARK    3  A    between atoms: C_8  and  C_6 
REMARK    4  A    between atoms: C_14  and  C_7 
REMARK    5  A    between atoms: N_10  and  C_14 
ROOT
ATOM      1  C   UNL d   1     -40.568  14.738  18.498  0.00  0.00     0.058 C 
ENDROOT
BRANCH   1   2
ATOM      2  C   UNL d   1     -39.986  14.397  18.018  0.00  0.00     0.149 A 
ATOM      3  N   UNL d   1     -39.664  13.649  18.108  0.00  0.00    -0.227 NA
ATOM      4  C   UNL d   1     -39.108  13.534  17.514  0.00  0.00     0.099 A 
ATOM      5  C   UNL d   1     -38.616  12.885  17.336  0.00  0.00     0.021 A 
ATOM      6  C   UNL d   1     -39.082  14.215  17.049  0.00  0.00     0.083 A 
ATOM      7  C   UNL d   1     -38.102  12.932  16.689  0.00  0.00     0.002 A 
ATOM      8  C   UNL d   1     -38.079  13.614  16.228  0.00  0.00     0.002 A 
ATOM      9  C   UNL d   1     -38.568  14.262  16.403  0.00  0.00     0.019 A 
ATOM     10  N   UNL d   1     -39.630  14.754  17.363  0.00  0.00    -0.289 N 
BRANCH  10  11
ATOM     11  C   UNL d   1     -39.793  15.513  17.076  0.00  0.00     0.082 C 
ATOM     12  C   UNL d   1     -40.453  15.635  16.592  0.00  0.00     0.021 C 
ENDBRANCH  10  11
ENDBRANCH   1   2
BRANCH   1  13
ATOM     13  C   UNL d   1     -40.471  14.737  19.321  0.00  0.00     0.105 C 
BRANCH  13  14
ATOM     14  N   UNL d   1     -41.115  14.851  19.814  0.00  0.00    -0.206 NA
ATOM     15  C   UNL d   1     -41.001  15.046  20.608  0.00  0.00     0.279 C 
ATOM     16  O   UNL d   1     -41.653  15.159  21.096  0.00  0.00    -0.265 OA
BRANCH  15  17
ATOM     17  C   UNL d   1     -40.240  15.125  20.905  0.00  0.00     0.058 A 
ATOM     18  C   UNL d   1     -39.869  14.479  21.252  0.00  0.00     0.007 A 
ATOM     19  C   UNL d   1     -39.108  14.559  21.549  0.00  0.00     0.030 A 
ATOM     20  C   UNL d   1     -38.711  15.279  21.504  0.00  0.00     0.140 A 
ATOM     21  C   UNL d   1     -39.087  15.922  21.156  0.00  0.00     0.030 A 
ATOM     22  F   UNL d   1     -37.940  15.361  21.804  0.00  0.00    -0.204 F 
ATOM     23  C   UNL d   1     -39.843  15.846  20.860  0.00  0.00     0.007 A 
ENDBRANCH  15  17
ENDBRANCH  13  14
ENDBRANCH   1  13
TORSDOF 5
ENDMDL
MODEL 5
REMARK VINA RESULT:      -6.1      8.117      9.880
REMARK  5 active torsions:
REMARK  status: ('A' for Active; 'I' for Inactive)
REMARK    1  A    between atoms: C_7  and  C_1 
REMARK    2  A    between atoms: C_13  and  N_3 
REMARK       I    between atoms: C_6  and  N_10 
REMARK    3  A    between atoms: C_8  and  C_6 
REMARK    4  A    between atoms: C_14  and  C_7 
REMARK    5  A    between atoms: N_10  and  C_14 
ROOT
ATOM      1  C   UNL d   1     -40.664  15.742  19.345  0.00  0.00     0.058 C 
ENDROOT
BRANCH   1   2
ATOM      2  C   UNL d   1     -40.120  15.714  19.969  0.00  0.00     0.149 A 
ATOM      3  N   UNL d   1     -39.327  15.914  19.928  0.00  0.00    -0.227 NA
ATOM      4  C   UNL d   1     -38.994  15.806  20.671  0.00  0.00     0.099 A 
ATOM      5  C   UNL d   1     -38.217  15.921  20.950  0.00  0.00     0.021 A 
ATOM      6  C   UNL d   1     -39.583  15.535  21.181  0.00  0.00     0.083 A 
ATOM      7  C   UNL d   1     -38.044  15.761  21.744  0.00  0.00     0.002 A 
ATOM      8  C   UNL d   1     -38.636  15.491  22.249  0.00  0.00     0.002 A 
ATOM      9  C   UNL d   1     -39.410  15.376  21.974  0.00  0.00     0.019 A 
ATOM     10  N   UNL d   1     -40.286  15.478  20.744  0.00  0.00    -0.289 N 
BRANCH  10  11
ATOM     11  C   UNL d   1     -41.023  15.230  21.028  0.00  0.00     0.082 C 
ATOM     12  C   UNL d   1     -41.195  14.421  21.068  0.00  0.00     0.021 C 
ENDBRANCH  10  11
ENDBRANCH   1   2
BRANCH   1  13
ATOM     13  C   UNL d   1     -40.429  15.503  18.588  0.00  0.00     0.105 C 
BRANCH  13  14
ATOM     14  N   UNL d   1     -40.940  15.578  17.952  0.00  0.00    -0.206 NA
ATOM     15  C   UNL d   1     -40.758  15.227  17.228  0.00  0.00     0.279 C 
ATOM     16  O   UNL d   1     -41.277  15.308  16.595  0.00  0.00    -0.265 OA
BRANCH  15  17
ATOM     17  C   UNL d   1     -40.062  14.800  17.143  0.00  0.00     0.058 A 
ATOM     18  C   UNL d   1     -40.027  14.022  17.404  0.00  0.00     0.007 A 
ATOM     19  C   UNL d   1     -39.331  13.595  17.320  0.00  0.00     0.030 A 
ATOM     20  C   UNL d   1     -38.665  13.938  16.976  0.00  0.00     0.140 A 
ATOM     21  C   UNL d   1     -38.706  14.718  16.717  0.00  0.00     0.030 A 
ATOM     22  F   UNL d   1     -37.959  13.508  16.890  0.00  0.00    -0.204 F 
ATOM     23  C   UNL d   1     -39.396  15.143  16.800  0.00  0.00     0.007 A 
ENDBRANCH  15  17
ENDBRANCH  13  14
ENDBRANCH   1  13
TORSDOF 5
ENDMDL
MODEL 6
REMARK VINA RESULT:      -6.1      8.157     10.246
REMARK  5 active torsions:
REMARK  status: ('A' for Active; 'I' for Inactive)
REMARK    1  A    between atoms: C_7  and  C_1 
REMARK    2  A    between atoms: C_13  and  N_3 
REMARK       I    between atoms: C_6  and  N_10 
REMARK    3  A    between atoms: C_8  and  C_6 
REMARK    4  A    between atoms: C_14  and  C_7 
REMARK    5  A    between atoms: N_10  and  C_14 
ROOT
ATOM      1  C   UNL d   1     -38.462  13.757  19.291  0.00  0.00     0.058 C 
ENDROOT
BRANCH   1   2
ATOM      2  C   UNL d   1     -38.511  14.129  18.553  0.00  0.00     0.149 A 
ATOM      3  N   UNL d   1     -38.442  14.933  18.413  0.00  0.00    -0.227 NA
ATOM      4  C   UNL d   1     -38.525  15.062  17.605  0.00  0.00     0.099 A 
ATOM      5  C   UNL d   1     -38.505  15.762  17.153  0.00  0.00     0.021 A 
ATOM      6  C   UNL d   1     -38.647  14.334  17.239  0.00  0.00     0.083 A 
ATOM      7  C   UNL d   1     -38.609  15.718  16.333  0.00  0.00     0.002 A 
ATOM      8  C   UNL d   1     -38.730  14.988  15.971  0.00  0.00     0.002 A 
ATOM      9  C   UNL d   1     -38.751  14.290  16.419  0.00  0.00     0.019 A 
ATOM     10  N   UNL d   1     -38.638  13.751  17.829  0.00  0.00    -0.289 N 
BRANCH  10  11
ATOM     11  C   UNL d   1     -38.739  12.937  17.718  0.00  0.00     0.082 C 
ATOM     12  C   UNL d   1     -38.077  12.456  17.590  0.00  0.00     0.021 C 
ENDBRANCH  10  11
ENDBRANCH   1   2
BRANCH   1  13
ATOM     13  C   UNL d   1     -38.845  14.092  19.944  0.00  0.00     0.105 C 
BRANCH  13  14
ATOM     14  N   UNL d   1     -38.662  13.846  20.704  0.00  0.00    -0.206 NA
ATOM     15  C   UNL d   1     -39.144  14.062  21.338  0.00  0.00     0.279 C 
ATOM     16  O   UNL d   1     -38.952  13.810  22.097  0.00  0.00    -0.265 OA
BRANCH  15  17
ATOM     17  C   UNL d   1     -39.809  14.525  21.208  0.00  0.00     0.058 A 
ATOM     18  C   UNL d   1     -40.521  14.168  21.009  0.00  0.00     0.007 A 
ATOM     19  C   UNL d   1     -41.187  14.631  20.879  0.00  0.00     0.030 A 
ATOM     20  C   UNL d   1     -41.149  15.450  20.946  0.00  0.00     0.140 A 
ATOM     21  C   UNL d   1     -40.433  15.803  21.147  0.00  0.00     0.030 A 
ATOM     22  F   UNL d   1     -41.822  15.922  20.815  0.00  0.00    -0.204 F 
ATOM     23  C   UNL d   1     -39.771  15.345  21.276  0.00  0.00     0.007 A 
ENDBRANCH  15  17
ENDBRANCH  13  14
ENDBRANCH   1  13
TORSDOF 5
ENDMDL
MODEL 7
REMARK VINA RESULT:      -5.9      1.267      1.663
REMARK  5 active torsions:
REMARK  status: ('A' for Active; 'I' for Inactive)
REMARK    1  A    between atoms: C_7  and  C_1 
REMARK    2  A    between atoms: C_13  and  N_3 
REMARK       I    between atoms: C_6  and  N_10 
REMARK    3  A    between atoms: C_8  and  C_6 
REMARK    4  A    between atoms: C_14  and  C_7 
REMARK    5  A    between atoms: N_10  and  C_14 
ROOT
ATOM      1  C   UNL d   1     -46.223  13.291  22.598  0.00  0.00     0.058 C 
ENDROOT
BRANCH   1   2
ATOM      2  C   UNL d   1     -45.808  12.608  22.811  0.00  0.00     0.149 A 
ATOM      3  N   UNL d   1     -46.108  11.973  23.232  0.00  0.00    -0.227 NA
ATOM      4  C   UNL d   1     -45.509  11.416  23.322  0.00  0.00     0.099 A 
ATOM      5  C   UNL d   1     -45.499  10.672  23.698  0.00  0.00     0.021 A 
ATOM      6  C   UNL d   1     -44.831  11.706  22.954  0.00  0.00     0.083 A 
ATOM      7  C   UNL d   1     -44.800  10.229  23.698  0.00  0.00     0.002 A 
ATOM      8  C   UNL d   1     -44.125  10.522  23.330  0.00  0.00     0.002 A 
ATOM      9  C   UNL d   1     -44.132  11.262  22.955  0.00  0.00     0.019 A 
ATOM     10  N   UNL d   1     -45.015  12.449  22.635  0.00  0.00    -0.289 N 
BRANCH  10  11
ATOM     11  C   UNL d   1     -44.503  12.946  22.216  0.00  0.00     0.082 C 
ATOM     12  C   UNL d   1     -44.475  12.902  21.390  0.00  0.00     0.021 C 
ENDBRANCH  10  11
ENDBRANCH   1   2
BRANCH   1  13
ATOM     13  C   UNL d   1     -47.018  13.372  22.817  0.00  0.00     0.105 C 
BRANCH  13  14
ATOM     14  N   UNL d   1     -47.343  14.115  22.931  0.00  0.00    -0.206 NA
ATOM     15  C   UNL d   1     -48.152  14.237  22.819  0.00  0.00     0.279 C 
ATOM     16  O   UNL d   1     -48.469  14.986  22.936  0.00  0.00    -0.265 OA
BRANCH  15  17
ATOM     17  C   UNL d   1     -48.633  13.611  22.593  0.00  0.00     0.058 A 
ATOM     18  C   UNL d   1     -48.827  13.512  21.801  0.00  0.00     0.007 A 
ATOM     19  C   UNL d   1     -49.308  12.886  21.575  0.00  0.00     0.030 A 
ATOM     20  C   UNL d   1     -49.598  12.355  22.133  0.00  0.00     0.140 A 
ATOM     21  C   UNL d   1     -49.400  12.459  22.925  0.00  0.00     0.030 A 
ATOM     22  F   UNL d   1     -50.085  11.721  21.906  0.00  0.00    -0.204 F 
ATOM     23  C   UNL d   1     -48.923  13.079  23.152  0.00  0.00     0.007 A 
ENDBRANCH  15  17
ENDBRANCH  13  14
ENDBRANCH   1  13
TORSDOF 5
ENDMDL
MODEL 8
REMARK VINA RESULT:      -5.0      8.751     10.320
REMARK  5 active torsions:
REMARK  status: ('A' for Active; 'I' for Inactive)
REMARK    1  A    between atoms: C_7  and  C_1 
REMARK    2  A    between atoms: C_13  and  N_3 
REMARK       I    between atoms: C_6  and  N_10 
REMARK    3  A    between atoms: C_8  and  C_6 
REMARK    4  A    between atoms: C_14  and  C_7 
REMARK    5  A    between atoms: N_10  and  C_14 
ROOT
ATOM      1  C   UNL d   1     -39.974  14.155  19.432  0.00  0.00     0.058 C 
ENDROOT
BRANCH   1   2
ATOM      2  C   UNL d   1     -39.729  14.521  20.134  0.00  0.00     0.149 A 
ATOM      3  N   UNL d   1     -39.022  14.389  20.525  0.00  0.00    -0.227 NA
ATOM      4  C   UNL d   1     -39.004  14.865  21.195  0.00  0.00     0.099 A 
ATOM      5  C   UNL d   1     -38.429  14.959  21.790  0.00  0.00     0.021 A 
ATOM      6  C   UNL d   1     -39.706  15.298  21.222  0.00  0.00     0.083 A 
ATOM      7  C   UNL d   1     -38.570  15.492  22.409  0.00  0.00     0.002 A 
ATOM      8  C   UNL d   1     -39.272  15.922  22.431  0.00  0.00     0.002 A 
ATOM      9  C   UNL d   1     -39.846  15.830  21.840  0.00  0.00     0.019 A 
ATOM     10  N   UNL d   1     -40.159  15.084  20.560  0.00  0.00    -0.289 N 
BRANCH  10  11
ATOM     11  C   UNL d   1     -40.906  15.378  20.360  0.00  0.00     0.082 C 
ATOM     12  C   UNL d   1     -40.979  15.922  19.740  0.00  0.00     0.021 C 
ENDBRANCH  10  11
ENDBRANCH   1   2
BRANCH   1  13
ATOM     13  C   UNL d   1     -39.425  14.027  18.825  0.00  0.00     0.105 C 
BRANCH  13  14
ATOM     14  N   UNL d   1     -39.358  13.288  18.477  0.00  0.00    -0.206 NA
ATOM     15  C   UNL d   1     -39.086  13.218  17.700  0.00  0.00     0.279 C 
ATOM     16  O   UNL d   1     -39.021  12.473  17.359  0.00  0.00    -0.265 OA
BRANCH  15  17
ATOM     17  C   UNL d   1     -38.882  13.890  17.276  0.00  0.00     0.058 A 
ATOM     18  C   UNL d   1     -38.143  14.233  17.385  0.00  0.00     0.007 A 
ATOM     19  C   UNL d   1     -37.940  14.905  16.960  0.00  0.00     0.030 A 
ATOM     20  C   UNL d   1     -38.467  15.241  16.424  0.00  0.00     0.140 A 
ATOM     21  C   UNL d   1     -39.206  14.894  16.319  0.00  0.00     0.030 A 
ATOM     22  F   UNL d   1     -38.263  15.922  15.993  0.00  0.00    -0.204 F 
ATOM     23  C   UNL d   1     -39.410  14.226  16.740  0.00  0.00     0.007 A 
ENDBRANCH  15  17
ENDBRANCH  13  14
ENDBRANCH   1  13
TORSDOF 5
ENDMDL
MODEL 9
REMARK VINA RESULT:      -4.8      2.085      4.461
REMARK  5 active torsions:
REMARK  status: ('A' for Active; 'I' for Inactive)
REMARK    1  A    between atoms: C_7  and  C_1 
REMARK    2  A    between atoms: C_13  and  N_3 
REMARK       I    between atoms: C_6  and  N_10 
REMARK    3  A    between atoms: C_8  and  C_6 
REMARK    4  A    between atoms: C_14  and  C_7 
REMARK    5  A    between atoms: N_10  and  C_14 
ROOT
ATOM      1  C   UNL d   1     -48.282  12.997  23.546  0.00  0.00     0.058 C 
ENDROOT
BRANCH   1   2
ATOM      2  C   UNL d   1     -48.918  13.110  23.029  0.00  0.00     0.149 A 
ATOM      3  N   UNL d   1     -49.203  12.565  22.488  0.00  0.00    -0.227 NA
ATOM      4  C   UNL d   1     -49.837  12.904  22.090  0.00  0.00     0.099 A 
ATOM      5  C   UNL d   1     -50.333  12.609  21.488  0.00  0.00     0.021 A 
ATOM      6  C   UNL d   1     -49.948  13.667  22.383  0.00  0.00     0.083 A 
ATOM      7  C   UNL d   1     -50.937  13.089  21.189  0.00  0.00     0.002 A 
ATOM      8  C   UNL d   1     -51.044  13.850  21.485  0.00  0.00     0.002 A 
ATOM      9  C   UNL d   1     -50.553  14.146  22.084  0.00  0.00     0.019 A 
ATOM     10  N   UNL d   1     -49.376  13.797  22.969  0.00  0.00    -0.289 N 
BRANCH  10  11
ATOM     11  C   UNL d   1     -49.276  14.486  23.415  0.00  0.00     0.082 C 
ATOM     12  C   UNL d   1     -48.937  15.155  23.066  0.00  0.00     0.021 C 
ENDBRANCH  10  11
ENDBRANCH   1   2
BRANCH   1  13
ATOM     13  C   UNL d   1     -47.551  12.745  23.247  0.00  0.00     0.105 C 
BRANCH  13  14
ATOM     14  N   UNL d   1     -47.199  12.063  23.534  0.00  0.00    -0.206 NA
ATOM     15  C   UNL d   1     -46.395  11.925  23.406  0.00  0.00     0.279 C 
ATOM     16  O   UNL d   1     -46.050  11.239  23.697  0.00  0.00    -0.265 OA
BRANCH  15  17
ATOM     17  C   UNL d   1     -45.947  12.473  22.989  0.00  0.00     0.058 A 
ATOM     18  C   UNL d   1     -45.957  13.263  23.214  0.00  0.00     0.007 A 
ATOM     19  C   UNL d   1     -45.509  13.810  22.797  0.00  0.00     0.030 A 
ATOM     20  C   UNL d   1     -45.048  13.577  22.156  0.00  0.00     0.140 A 
ATOM     21  C   UNL d   1     -45.042  12.784  21.935  0.00  0.00     0.030 A 
ATOM     22  F   UNL d   1     -44.594  14.129  21.732  0.00  0.00    -0.204 F 
ATOM     23  C   UNL d   1     -45.486  12.239  22.347  0.00  0.00     0.007 A 
ENDBRANCH  15  17
ENDBRANCH  13  14
ENDBRANCH   1  13
TORSDOF 5
ENDMDL
