MODEL 1
REMARK VINA RESULT:      74.7      0.000      0.000
REMARK  6 active torsions:
REMARK  status: ('A' for Active; 'I' for Inactive)
REMARK    1  A    between atoms: N_3  and  C_1 
REMARK    2  A    between atoms: S_2  and  C_10 
REMARK    3  A    between atoms: N_8  and  S_2 
REMARK       I    between atoms: C_9  and  N_3 
REMARK    4  A    between atoms: C_23  and  N_4 
REMARK    5  A    between atoms: C_13  and  C_9 
REMARK    6  A    between atoms: O_25  and  C_14 
ROOT
ATOM      1  N   UNL d   1     -50.096  27.098  34.103  0.00  0.00    -0.184 NA
ATOM      2  C   UNL d   1     -49.272  27.213  34.111  0.00  0.00     0.281 C 
ATOM      3  O   UNL d   1     -48.768  26.582  33.933  0.00  0.00    -0.265 OA
ENDROOT
BRANCH   2   4
ATOM      4  C   UNL d   1     -48.958  27.957  34.296  0.00  0.00     0.058 A 
ATOM      5  C   UNL d   1     -48.380  28.020  34.878  0.00  0.00     0.005 A 
ATOM      6  C   UNL d   1     -48.067  28.761  35.063  0.00  0.00     0.013 A 
ATOM      7  C   UNL d   1     -48.333  29.438  34.667  0.00  0.00     0.104 A 
ATOM      8  C   UNL d   1     -48.920  29.364  34.078  0.00  0.00     0.013 A 
ATOM      9  C   UNL d   1     -49.235  28.624  33.890  0.00  0.00     0.005 A 
BRANCH   7  10
ATOM     10  S   UNL d   1     -48.021  30.180  34.851  0.00  0.00     0.272 S 
ATOM     11  O   UNL d   1     -48.159  30.394  34.056  0.00  0.00    -0.200 OA
ATOM     12  O   UNL d   1     -47.887  29.964  35.631  0.00  0.00    -0.200 OA
BRANCH  10  13
ATOM     13  N   UNL d   1     -47.710  30.920  35.033  0.00  0.00    -0.225 N 
ATOM     14  C   UNL d   1     -47.282  31.018  35.724  0.00  0.00     0.118 A 
ATOM     15  C   UNL d   1     -46.969  31.759  35.909  0.00  0.00     0.142 A 
ATOM     16  O   UNL d   1     -47.087  32.398  35.400  0.00  0.00    -0.300 OA
ATOM     17  C   UNL d   1     -47.519  32.292  34.705  0.00  0.00     0.142 A 
ATOM     18  C   UNL d   1     -47.832  31.551  34.520  0.00  0.00     0.118 A 
ENDBRANCH  10  13
ENDBRANCH   7  10
ENDBRANCH   2   4
BRANCH   1  19
ATOM     19  C   UNL d   1     -50.406  26.345  33.916  0.00  0.00     0.182 A 
ATOM     20  N   UNL d   1     -51.198  26.170  33.807  0.00  0.00    -0.283 N 
ATOM     21  C   UNL d   1     -51.270  25.368  33.631  0.00  0.00     0.094 A 
ATOM     22  C   UNL d   1     -51.936  24.885  33.468  0.00  0.00     0.111 A 
ATOM     23  C   UNL d   1     -50.520  25.040  33.629  0.00  0.00     0.050 A 
ATOM     24  C   UNL d   1     -51.824  24.087  33.309  0.00  0.00     0.026 A 
ATOM     25  C   UNL d   1     -51.073  23.751  33.306  0.00  0.00     0.003 A 
ATOM     26  C   UNL d   1     -50.417  24.230  33.467  0.00  0.00     0.008 A 
ATOM     27  S   UNL d   1     -49.977  25.637  33.804  0.00  0.00    -0.048 SA
BRANCH  20  28
ATOM     28  C   UNL d   1     -51.826  26.703  33.863  0.00  0.00     0.082 C 
ATOM     29  C   UNL d   1     -52.431  26.784  33.308  0.00  0.00     0.021 C 
ENDBRANCH  20  28
BRANCH  22  30
ATOM     30  O   UNL d   1     -52.683  25.208  33.469  0.00  0.00    -0.327 OA
ATOM     31  C   UNL d   1     -53.338  24.733  33.347  0.00  0.00     0.181 C 
ENDBRANCH  22  30
ENDBRANCH   1  19
TORSDOF 6
ENDMDL
