MODEL 1
REMARK VINA RESULT:      -1.2      0.000      0.000
REMARK  6 active torsions:
REMARK  status: ('A' for Active; 'I' for Inactive)
REMARK    1  A    between atoms: C_6  and  C_1 
REMARK    2  A    between atoms: C_9  and  C_2 
REMARK    3  A    between atoms: N_8  and  C_3 
REMARK       I    between atoms: N_7  and  C_6 
REMARK    4  A    between atoms: C_13  and  N_7 
REMARK    5  A    between atoms: C_12  and  N_8 
REMARK    6  A    between atoms: O_19  and  C_14 
ROOT
ATOM      1  C   UNL d   1      31.981  18.196 -24.138  0.00  0.00     0.108 A 
ATOM      2  C   UNL d   1      32.732  17.860 -24.038  0.00  0.00     0.094 A 
ATOM      3  C   UNL d   1      32.797  19.148 -23.736  0.00  0.00     0.194 A 
ATOM      4  N   UNL d   1      33.240  18.458 -23.787  0.00  0.00    -0.221 NA
ATOM      5  S   UNL d   1      32.044  18.993 -23.946  0.00  0.00    -0.042 SA
ENDROOT
BRANCH   1   6
ATOM      6  C   UNL d   1      31.296  17.815 -24.383  0.00  0.00     0.287 C 
ATOM      7  N   UNL d   1      30.605  17.862 -23.932  0.00  0.00    -0.206 NA
ATOM      8  O   UNL d   1      31.283  17.373 -25.090  0.00  0.00    -0.265 OA
BRANCH   7   9
ATOM      9  C   UNL d   1      29.921  17.483 -24.173  0.00  0.00     0.104 A 
ATOM     10  C   UNL d   1      29.500  17.800 -24.787  0.00  0.00     0.118 A 
ATOM     11  N   UNL d   1      28.813  17.417 -25.025  0.00  0.00    -0.241 NA
ATOM     12  C   UNL d   1      28.575  16.756 -24.659  0.00  0.00     0.099 A 
ATOM     13  C   UNL d   1      28.996  16.439 -24.045  0.00  0.00     0.022 A 
ATOM     14  C   UNL d   1      29.690  16.806 -23.787  0.00  0.00     0.022 A 
ENDBRANCH   7   9
ENDBRANCH   1   6
BRANCH   2  15
ATOM     15  C   UNL d   1      32.850  17.074 -24.186  0.00  0.00     0.018 A 
ATOM     16  C   UNL d   1      32.719  16.513 -23.592  0.00  0.00     0.002 A 
ATOM     17  C   UNL d   1      32.843  15.711 -23.755  0.00  0.00     0.000 A 
ATOM     18  C   UNL d   1      33.098  15.477 -24.513  0.00  0.00     0.000 A 
ATOM     19  C   UNL d   1      33.223  16.010 -25.077  0.00  0.00     0.000 A 
ATOM     20  C   UNL d   1      33.104  16.825 -24.934  0.00  0.00     0.002 A 
ENDBRANCH   2  15
BRANCH   3  21
ATOM     21  N   UNL d   1      33.089  19.868 -23.507  0.00  0.00    -0.221 NA
BRANCH  21  22
ATOM     22  C   UNL d   1      32.940  20.143 -22.741  0.00  0.00     0.084 A 
ATOM     23  C   UNL d   1      32.498  20.837 -22.635  0.00  0.00     0.021 A 
ATOM     24  C   UNL d   1      32.347  21.114 -21.891  0.00  0.00     0.026 A 
ATOM     25  C   UNL d   1      32.644  20.689 -21.236  0.00  0.00     0.094 A 
ATOM     26  C   UNL d   1      33.063  20.030 -21.336  0.00  0.00     0.026 A 
ATOM     27  C   UNL d   1      33.223  19.739 -22.100  0.00  0.00     0.021 A 
BRANCH  25  28
ATOM     28  O   UNL d   1      32.497  20.961 -20.447  0.00  0.00    -0.328 OA
ATOM     29  C   UNL d   1      32.556  21.764 -20.246  0.00  0.00     0.181 C 
ENDBRANCH  25  28
ENDBRANCH  21  22
ENDBRANCH   3  21
TORSDOF 6
ENDMDL
MODEL 2
REMARK VINA RESULT:       0.9      1.654      5.257
REMARK  6 active torsions:
REMARK  status: ('A' for Active; 'I' for Inactive)
REMARK    1  A    between atoms: C_6  and  C_1 
REMARK    2  A    between atoms: C_9  and  C_2 
REMARK    3  A    between atoms: N_8  and  C_3 
REMARK       I    between atoms: N_7  and  C_6 
REMARK    4  A    between atoms: C_13  and  N_7 
REMARK    5  A    between atoms: C_12  and  N_8 
REMARK    6  A    between atoms: O_19  and  C_14 
ROOT
ATOM      1  C   UNL d   1      33.068  20.459 -22.665  0.00  0.00     0.108 A 
ATOM      2  C   UNL d   1      32.852  20.192 -21.912  0.00  0.00     0.094 A 
ATOM      3  C   UNL d   1      33.132  19.143 -22.671  0.00  0.00     0.194 A 
ATOM      4  N   UNL d   1      32.893  19.369 -21.918  0.00  0.00    -0.221 NA
ATOM      5  S   UNL d   1      33.237  19.794 -23.119  0.00  0.00    -0.042 SA
ENDROOT
BRANCH   1   6
ATOM      6  C   UNL d   1      33.110  21.238 -22.923  0.00  0.00     0.287 C 
ATOM      7  N   UNL d   1      33.115  21.414 -23.730  0.00  0.00    -0.206 NA
ATOM      8  O   UNL d   1      33.147  21.866 -22.376  0.00  0.00    -0.265 OA
BRANCH   7   9
ATOM      9  C   UNL d   1      33.157  22.189 -23.990  0.00  0.00     0.104 A 
ATOM     10  C   UNL d   1      33.152  22.329 -24.786  0.00  0.00     0.118 A 
ATOM     11  N   UNL d   1      33.194  23.108 -25.044  0.00  0.00    -0.241 NA
ATOM     12  C   UNL d   1      33.237  23.702 -24.521  0.00  0.00     0.099 A 
ATOM     13  C   UNL d   1      33.241  23.562 -23.724  0.00  0.00     0.022 A 
ATOM     14  C   UNL d   1      33.200  22.786 -23.440  0.00  0.00     0.022 A 
ENDBRANCH   7   9
ENDBRANCH   1   6
BRANCH   2  15
ATOM     15  C   UNL d   1      32.652  20.721 -21.334  0.00  0.00     0.018 A 
ATOM     16  C   UNL d   1      31.858  20.914 -21.201  0.00  0.00     0.002 A 
ATOM     17  C   UNL d   1      31.665  21.457 -20.607  0.00  0.00     0.000 A 
ATOM     18  C   UNL d   1      32.269  21.802 -20.149  0.00  0.00     0.000 A 
ATOM     19  C   UNL d   1      33.023  21.619 -20.275  0.00  0.00     0.000 A 
ATOM     20  C   UNL d   1      33.240  21.074 -20.870  0.00  0.00     0.002 A 
ENDBRANCH   2  15
BRANCH   3  21
ATOM     21  N   UNL d   1      33.241  18.377 -22.910  0.00  0.00    -0.221 NA
BRANCH  21  22
ATOM     22  C   UNL d   1      32.610  17.965 -23.253  0.00  0.00     0.084 A 
ATOM     23  C   UNL d   1      32.313  18.210 -23.987  0.00  0.00     0.021 A 
ATOM     24  C   UNL d   1      31.698  17.814 -24.330  0.00  0.00     0.026 A 
ATOM     25  C   UNL d   1      31.370  17.157 -23.932  0.00  0.00     0.094 A 
ATOM     26  C   UNL d   1      31.652  16.925 -23.234  0.00  0.00     0.026 A 
ATOM     27  C   UNL d   1      32.286  17.328 -22.875  0.00  0.00     0.021 A 
BRANCH  25  28
ATOM     28  O   UNL d   1      30.724  16.728 -24.273  0.00  0.00    -0.328 OA
ATOM     29  C   UNL d   1      30.225  17.072 -24.839  0.00  0.00     0.181 C 
ENDBRANCH  25  28
ENDBRANCH  21  22
ENDBRANCH   3  21
TORSDOF 6
ENDMDL
