MODEL 1
REMARK VINA RESULT:      -6.1      0.000      0.000
REMARK  4 active torsions:
REMARK  status: ('A' for Active; 'I' for Inactive)
REMARK       I    between atoms: N_3  and  C_1 
REMARK    1  A    between atoms: O_5  and  C_1 
REMARK    2  A    between atoms: C_2  and  O_8 
REMARK       I    between atoms: N_4  and  C_2 
REMARK    3  A    between atoms: C_6  and  O_5 
REMARK    4  A    between atoms: O_8  and  C_12 
ROOT
ATOM      1  C   UNL d   1     -47.219  12.077  23.611  0.00  0.00     0.105 A 
ATOM      2  C   UNL d   1     -48.017  11.877  23.626  0.00  0.00     0.025 A 
ATOM      3  C   UNL d   1     -48.589  12.468  23.611  0.00  0.00     0.027 A 
ATOM      4  C   UNL d   1     -49.407  12.273  23.625  0.00  0.00     0.105 A 
ATOM      5  C   UNL d   1     -48.240  11.095  23.655  0.00  0.00     0.002 A 
ATOM      6  C   UNL d   1     -49.040  10.886  23.669  0.00  0.00     0.002 A 
ATOM      7  C   UNL d   1     -49.630  11.492  23.654  0.00  0.00     0.025 A 
ATOM      8  C   UNL d   1     -46.647  11.486  23.626  0.00  0.00     0.025 A 
ATOM      9  C   UNL d   1     -46.870  10.705  23.655  0.00  0.00     0.002 A 
ATOM     10  C   UNL d   1     -47.670  10.495  23.670  0.00  0.00     0.000 A 
ENDROOT
BRANCH   1  11
ATOM     11  O   UNL d   1     -46.993  12.870  23.582  0.00  0.00    -0.259 OA
BRANCH  11  12
ATOM     12  C   UNL d   1     -46.286  13.084  23.212  0.00  0.00     0.378 C 
ATOM     13  N   UNL d   1     -46.201  13.839  22.859  0.00  0.00    -0.247 N 
ATOM     14  C   UNL d   1     -45.487  14.044  22.490  0.00  0.00     0.112 A 
ATOM     15  C   UNL d   1     -46.830  14.371  22.884  0.00  0.00     0.112 A 
ATOM     16  C   UNL d   1     -45.411  14.797  22.142  0.00  0.00     0.142 A 
ATOM     17  O   UNL d   1     -46.051  15.335  22.168  0.00  0.00    -0.300 OA
ATOM     18  C   UNL d   1     -46.755  15.116  22.539  0.00  0.00     0.142 A 
ATOM     19  O   UNL d   1     -45.649  12.556  23.182  0.00  0.00    -0.237 OA
ENDBRANCH  11  12
ENDBRANCH   1  11
BRANCH   4  20
ATOM     20  O   UNL d   1     -49.979  12.868  23.611  0.00  0.00    -0.259 OA
BRANCH  20  21
ATOM     21  C   UNL d   1     -50.250  13.160  22.895  0.00  0.00     0.378 C 
ATOM     22  N   UNL d   1     -50.522  13.939  22.837  0.00  0.00    -0.247 N 
ATOM     23  C   UNL d   1     -50.792  14.216  22.107  0.00  0.00     0.112 A 
ATOM     24  C   UNL d   1     -50.520  14.420  23.498  0.00  0.00     0.112 A 
ATOM     25  C   UNL d   1     -51.063  14.992  22.049  0.00  0.00     0.142 A 
ATOM     26  O   UNL d   1     -51.064  15.483  22.712  0.00  0.00    -0.300 OA
ATOM     27  C   UNL d   1     -50.793  15.196  23.435  0.00  0.00     0.142 A 
ATOM     28  O   UNL d   1     -50.247  12.667  22.235  0.00  0.00    -0.237 OA
ENDBRANCH  20  21
ENDBRANCH   4  20
TORSDOF 4
ENDMDL
MODEL 2
REMARK VINA RESULT:      -5.7      1.742      2.152
REMARK  4 active torsions:
REMARK  status: ('A' for Active; 'I' for Inactive)
REMARK       I    between atoms: N_3  and  C_1 
REMARK    1  A    between atoms: O_5  and  C_1 
REMARK    2  A    between atoms: C_2  and  O_8 
REMARK       I    between atoms: N_4  and  C_2 
REMARK    3  A    between atoms: C_6  and  O_5 
REMARK    4  A    between atoms: O_8  and  C_12 
ROOT
ATOM      1  C   UNL d   1     -45.751  11.655  23.090  0.00  0.00     0.105 A 
ATOM      2  C   UNL d   1     -46.541  11.867  23.179  0.00  0.00     0.025 A 
ATOM      3  C   UNL d   1     -46.790  12.621  22.963  0.00  0.00     0.027 A 
ATOM      4  C   UNL d   1     -47.595  12.847  23.049  0.00  0.00     0.105 A 
ATOM      5  C   UNL d   1     -47.075  11.333  23.479  0.00  0.00     0.002 A 
ATOM      6  C   UNL d   1     -47.871  11.539  23.570  0.00  0.00     0.002 A 
ATOM      7  C   UNL d   1     -48.129  12.313  23.349  0.00  0.00     0.025 A 
ATOM      8  C   UNL d   1     -45.502  10.901  23.306  0.00  0.00     0.025 A 
ATOM      9  C   UNL d   1     -46.036  10.366  23.606  0.00  0.00     0.002 A 
ATOM     10  C   UNL d   1     -46.832  10.572  23.698  0.00  0.00     0.000 A 
ENDROOT
BRANCH   1  11
ATOM     11  O   UNL d   1     -45.209  12.197  22.786  0.00  0.00    -0.259 OA
BRANCH  11  12
ATOM     12  C   UNL d   1     -44.419  11.977  22.682  0.00  0.00     0.378 C 
ATOM     13  N   UNL d   1     -43.941  12.363  22.113  0.00  0.00    -0.247 N 
ATOM     14  C   UNL d   1     -43.148  12.135  22.017  0.00  0.00     0.112 A 
ATOM     15  C   UNL d   1     -44.264  12.967  21.655  0.00  0.00     0.112 A 
ATOM     16  C   UNL d   1     -42.680  12.524  21.448  0.00  0.00     0.142 A 
ATOM     17  O   UNL d   1     -43.010  13.136  20.984  0.00  0.00    -0.300 OA
ATOM     18  C   UNL d   1     -43.800  13.352  21.092  0.00  0.00     0.142 A 
ATOM     19  O   UNL d   1     -44.087  11.372  23.139  0.00  0.00    -0.237 OA
ENDBRANCH  11  12
ENDBRANCH   1  11
BRANCH   4  20
ATOM     20  O   UNL d   1     -47.842  13.604  22.831  0.00  0.00    -0.259 OA
BRANCH  20  21
ATOM     21  C   UNL d   1     -48.490  13.701  22.340  0.00  0.00     0.378 C 
ATOM     22  N   UNL d   1     -48.982  14.361  22.419  0.00  0.00    -0.247 N 
ATOM     23  C   UNL d   1     -49.631  14.441  21.915  0.00  0.00     0.112 A 
ATOM     24  C   UNL d   1     -48.820  14.920  22.992  0.00  0.00     0.112 A 
ATOM     25  C   UNL d   1     -50.120  15.098  21.994  0.00  0.00     0.142 A 
ATOM     26  O   UNL d   1     -49.962  15.667  22.570  0.00  0.00    -0.300 OA
ATOM     27  C   UNL d   1     -49.313  15.577  23.068  0.00  0.00     0.142 A 
ATOM     28  O   UNL d   1     -48.645  13.130  21.765  0.00  0.00    -0.237 OA
ENDBRANCH  20  21
ENDBRANCH   4  20
TORSDOF 4
ENDMDL
MODEL 3
REMARK VINA RESULT:      -5.4      9.100     10.649
REMARK  4 active torsions:
REMARK  status: ('A' for Active; 'I' for Inactive)
REMARK       I    between atoms: N_3  and  C_1 
REMARK    1  A    between atoms: O_5  and  C_1 
REMARK    2  A    between atoms: C_2  and  O_8 
REMARK       I    between atoms: N_4  and  C_2 
REMARK    3  A    between atoms: C_6  and  O_5 
REMARK    4  A    between atoms: O_8  and  C_12 
ROOT
ATOM      1  C   UNL d   1     -39.098  13.950  17.619  0.00  0.00     0.105 A 
ATOM      2  C   UNL d   1     -38.719  13.669  18.294  0.00  0.00     0.025 A 
ATOM      3  C   UNL d   1     -38.739  14.107  18.990  0.00  0.00     0.027 A 
ATOM      4  C   UNL d   1     -38.355  13.828  19.683  0.00  0.00     0.105 A 
ATOM      5  C   UNL d   1     -38.324  12.959  18.272  0.00  0.00     0.002 A 
ATOM      6  C   UNL d   1     -37.940  12.669  18.945  0.00  0.00     0.002 A 
ATOM      7  C   UNL d   1     -37.960  13.118  19.661  0.00  0.00     0.025 A 
ATOM      8  C   UNL d   1     -39.077  13.511  16.924  0.00  0.00     0.025 A 
ATOM      9  C   UNL d   1     -38.682  12.801  16.902  0.00  0.00     0.002 A 
ATOM     10  C   UNL d   1     -38.299  12.512  17.575  0.00  0.00     0.000 A 
ENDROOT
BRANCH   1  11
ATOM     11  O   UNL d   1     -39.499  14.671  17.642  0.00  0.00    -0.259 OA
BRANCH  11  12
ATOM     12  C   UNL d   1     -39.820  14.986  16.948  0.00  0.00     0.378 C 
ATOM     13  N   UNL d   1     -40.596  15.298  16.941  0.00  0.00    -0.247 N 
ATOM     14  C   UNL d   1     -40.908  15.613  16.239  0.00  0.00     0.112 A 
ATOM     15  C   UNL d   1     -41.043  15.289  17.634  0.00  0.00     0.112 A 
ATOM     16  C   UNL d   1     -41.682  15.922  16.241  0.00  0.00     0.142 A 
ATOM     17  O   UNL d   1     -42.134  15.911  16.945  0.00  0.00    -0.300 OA
ATOM     18  C   UNL d   1     -41.809  15.594  17.636  0.00  0.00     0.142 A 
ATOM     19  O   UNL d   1     -39.377  15.000  16.248  0.00  0.00    -0.237 OA
ENDBRANCH  11  12
ENDBRANCH   1  11
BRANCH   4  20
ATOM     20  O   UNL d   1     -38.377  14.271  20.380  0.00  0.00    -0.259 OA
BRANCH  20  21
ATOM     21  C   UNL d   1     -38.892  14.064  20.982  0.00  0.00     0.378 C 
ATOM     22  N   UNL d   1     -38.747  14.305  21.760  0.00  0.00    -0.247 N 
ATOM     23  C   UNL d   1     -39.278  14.087  22.353  0.00  0.00     0.112 A 
ATOM     24  C   UNL d   1     -38.084  14.752  21.927  0.00  0.00     0.112 A 
ATOM     25  C   UNL d   1     -39.133  14.328  23.127  0.00  0.00     0.142 A 
ATOM     26  O   UNL d   1     -38.466  14.779  23.304  0.00  0.00    -0.300 OA
ATOM     27  C   UNL d   1     -37.943  14.991  22.705  0.00  0.00     0.142 A 
ATOM     28  O   UNL d   1     -39.559  13.612  20.801  0.00  0.00    -0.237 OA
ENDBRANCH  20  21
ENDBRANCH   4  20
TORSDOF 4
ENDMDL
MODEL 4
REMARK VINA RESULT:      -4.8      1.650      5.349
REMARK  4 active torsions:
REMARK  status: ('A' for Active; 'I' for Inactive)
REMARK       I    between atoms: N_3  and  C_1 
REMARK    1  A    between atoms: O_5  and  C_1 
REMARK    2  A    between atoms: C_2  and  O_8 
REMARK       I    between atoms: N_4  and  C_2 
REMARK    3  A    between atoms: C_6  and  O_5 
REMARK    4  A    between atoms: O_8  and  C_12 
ROOT
ATOM      1  C   UNL d   1     -47.897  13.896  22.718  0.00  0.00     0.105 A 
ATOM      2  C   UNL d   1     -47.081  13.791  22.695  0.00  0.00     0.025 A 
ATOM      3  C   UNL d   1     -46.760  13.040  22.794  0.00  0.00     0.027 A 
ATOM      4  C   UNL d   1     -45.928  12.923  22.772  0.00  0.00     0.105 A 
ATOM      5  C   UNL d   1     -46.592  14.429  22.574  0.00  0.00     0.002 A 
ATOM      6  C   UNL d   1     -45.771  14.332  22.550  0.00  0.00     0.002 A 
ATOM      7  C   UNL d   1     -45.439  13.561  22.651  0.00  0.00     0.025 A 
ATOM      8  C   UNL d   1     -48.217  14.647  22.619  0.00  0.00     0.025 A 
ATOM      9  C   UNL d   1     -47.728  15.286  22.498  0.00  0.00     0.002 A 
ATOM     10  C   UNL d   1     -46.907  15.188  22.474  0.00  0.00     0.000 A 
ENDROOT
BRANCH   1  11
ATOM     11  O   UNL d   1     -48.393  13.249  22.840  0.00  0.00    -0.259 OA
BRANCH  11  12
ATOM     12  C   UNL d   1     -49.211  13.332  22.752  0.00  0.00     0.378 C 
ATOM     13  N   UNL d   1     -49.733  12.744  23.039  0.00  0.00    -0.247 N 
ATOM     14  C   UNL d   1     -50.552  12.838  22.945  0.00  0.00     0.112 A 
ATOM     15  C   UNL d   1     -49.425  12.076  23.412  0.00  0.00     0.112 A 
ATOM     16  C   UNL d   1     -51.065  12.248  23.234  0.00  0.00     0.142 A 
ATOM     17  O   UNL d   1     -50.750  11.571  23.612  0.00  0.00    -0.300 OA
ATOM     18  C   UNL d   1     -49.932  11.492  23.697  0.00  0.00     0.142 A 
ATOM     19  O   UNL d   1     -49.527  14.000  22.378  0.00  0.00    -0.237 OA
ENDBRANCH  11  12
ENDBRANCH   1  11
BRANCH   4  20
ATOM     20  O   UNL d   1     -45.610  12.168  22.872  0.00  0.00    -0.259 OA
BRANCH  20  21
ATOM     21  C   UNL d   1     -44.814  12.035  22.732  0.00  0.00     0.378 C 
ATOM     22  N   UNL d   1     -44.448  11.346  23.008  0.00  0.00    -0.247 N 
ATOM     23  C   UNL d   1     -43.645  11.230  22.857  0.00  0.00     0.112 A 
ATOM     24  C   UNL d   1     -44.886  10.795  23.424  0.00  0.00     0.112 A 
ATOM     25  C   UNL d   1     -43.282  10.544  23.133  0.00  0.00     0.142 A 
ATOM     26  O   UNL d   1     -43.717   9.983  23.553  0.00  0.00    -0.300 OA
ATOM     27  C   UNL d   1     -44.517  10.110  23.698  0.00  0.00     0.142 A 
ATOM     28  O   UNL d   1     -44.383  12.598  22.311  0.00  0.00    -0.237 OA
ENDBRANCH  20  21
ENDBRANCH   4  20
TORSDOF 4
ENDMDL
MODEL 5
REMARK VINA RESULT:      -4.5      1.981      4.916
REMARK  4 active torsions:
REMARK  status: ('A' for Active; 'I' for Inactive)
REMARK       I    between atoms: N_3  and  C_1 
REMARK    1  A    between atoms: O_5  and  C_1 
REMARK    2  A    between atoms: C_2  and  O_8 
REMARK       I    between atoms: N_4  and  C_2 
REMARK    3  A    between atoms: C_6  and  O_5 
REMARK    4  A    between atoms: O_8  and  C_12 
ROOT
ATOM      1  C   UNL d   1     -47.474  12.654  22.969  0.00  0.00     0.105 A 
ATOM      2  C   UNL d   1     -46.706  12.357  22.966  0.00  0.00     0.025 A 
ATOM      3  C   UNL d   1     -46.104  12.780  22.600  0.00  0.00     0.027 A 
ATOM      4  C   UNL d   1     -45.317  12.485  22.592  0.00  0.00     0.105 A 
ATOM      5  C   UNL d   1     -46.544  11.646  23.327  0.00  0.00     0.002 A 
ATOM      6  C   UNL d   1     -45.775  11.341  23.329  0.00  0.00     0.002 A 
ATOM      7  C   UNL d   1     -45.154  11.774  22.952  0.00  0.00     0.025 A 
ATOM      8  C   UNL d   1     -48.077  12.230  23.336  0.00  0.00     0.025 A 
ATOM      9  C   UNL d   1     -47.914  11.520  23.696  0.00  0.00     0.002 A 
ATOM     10  C   UNL d   1     -47.145  11.215  23.698  0.00  0.00     0.000 A 
ENDROOT
BRANCH   1  11
ATOM     11  O   UNL d   1     -47.639  13.375  22.603  0.00  0.00    -0.259 OA
BRANCH  11  12
ATOM     12  C   UNL d   1     -48.332  13.465  22.161  0.00  0.00     0.378 C 
ATOM     13  N   UNL d   1     -48.780  14.170  22.210  0.00  0.00    -0.247 N 
ATOM     14  C   UNL d   1     -49.474  14.250  21.762  0.00  0.00     0.112 A 
ATOM     15  C   UNL d   1     -48.526  14.778  22.705  0.00  0.00     0.112 A 
ATOM     16  C   UNL d   1     -49.915  14.955  21.817  0.00  0.00     0.142 A 
ATOM     17  O   UNL d   1     -49.655  15.571  22.319  0.00  0.00    -0.300 OA
ATOM     18  C   UNL d   1     -48.962  15.476  22.759  0.00  0.00     0.142 A 
ATOM     19  O   UNL d   1     -48.594  12.858  21.662  0.00  0.00    -0.237 OA
ENDBRANCH  11  12
ENDBRANCH   1  11
BRANCH   4  20
ATOM     20  O   UNL d   1     -44.714  12.912  22.223  0.00  0.00    -0.259 OA
BRANCH  20  21
ATOM     21  C   UNL d   1     -44.008  12.545  22.032  0.00  0.00     0.378 C 
ATOM     22  N   UNL d   1     -43.400  12.970  21.664  0.00  0.00    -0.247 N 
ATOM     23  C   UNL d   1     -42.695  12.582  21.479  0.00  0.00     0.112 A 
ATOM     24  C   UNL d   1     -43.507  13.761  21.492  0.00  0.00     0.112 A 
ATOM     25  C   UNL d   1     -42.091  13.006  21.113  0.00  0.00     0.142 A 
ATOM     26  O   UNL d   1     -42.191  13.805  20.936  0.00  0.00    -0.300 OA
ATOM     27  C   UNL d   1     -42.899  14.181  21.125  0.00  0.00     0.142 A 
ATOM     28  O   UNL d   1     -43.911  11.745  22.211  0.00  0.00    -0.237 OA
ENDBRANCH  20  21
ENDBRANCH   4  20
TORSDOF 4
ENDMDL
MODEL 6
REMARK VINA RESULT:      -4.0      6.466      9.284
REMARK  4 active torsions:
REMARK  status: ('A' for Active; 'I' for Inactive)
REMARK       I    between atoms: N_3  and  C_1 
REMARK    1  A    between atoms: O_5  and  C_1 
REMARK    2  A    between atoms: C_2  and  O_8 
REMARK       I    between atoms: N_4  and  C_2 
REMARK    3  A    between atoms: C_6  and  O_5 
REMARK    4  A    between atoms: O_8  and  C_12 
ROOT
ATOM      1  C   UNL d   1     -38.955  15.022  19.689  0.00  0.00     0.105 A 
ATOM      2  C   UNL d   1     -39.368  14.887  20.388  0.00  0.00     0.025 A 
ATOM      3  C   UNL d   1     -40.006  14.367  20.393  0.00  0.00     0.027 A 
ATOM      4  C   UNL d   1     -40.434  14.222  21.102  0.00  0.00     0.105 A 
ATOM      5  C   UNL d   1     -39.146  15.266  21.072  0.00  0.00     0.002 A 
ATOM      6  C   UNL d   1     -39.557  15.135  21.778  0.00  0.00     0.002 A 
ATOM      7  C   UNL d   1     -40.212  14.602  21.786  0.00  0.00     0.025 A 
ATOM      8  C   UNL d   1     -38.317  15.542  19.683  0.00  0.00     0.025 A 
ATOM      9  C   UNL d   1     -38.095  15.922  20.367  0.00  0.00     0.002 A 
ATOM     10  C   UNL d   1     -38.506  15.791  21.073  0.00  0.00     0.000 A 
ENDROOT
BRANCH   1  11
ATOM     11  O   UNL d   1     -39.180  14.637  18.995  0.00  0.00    -0.259 OA
BRANCH  11  12
ATOM     12  C   UNL d   1     -39.081  15.011  18.264  0.00  0.00     0.378 C 
ATOM     13  N   UNL d   1     -38.931  14.563  17.573  0.00  0.00    -0.247 N 
ATOM     14  C   UNL d   1     -38.834  14.948  16.844  0.00  0.00     0.112 A 
ATOM     15  C   UNL d   1     -38.882  13.742  17.625  0.00  0.00     0.112 A 
ATOM     16  C   UNL d   1     -38.685  14.495  16.161  0.00  0.00     0.142 A 
ATOM     17  O   UNL d   1     -38.636  13.662  16.216  0.00  0.00    -0.300 OA
ATOM     18  C   UNL d   1     -38.735  13.293  16.949  0.00  0.00     0.142 A 
ATOM     19  O   UNL d   1     -39.129  15.835  18.204  0.00  0.00    -0.237 OA
ENDBRANCH  11  12
ENDBRANCH   1  11
BRANCH   4  20
ATOM     20  O   UNL d   1     -41.073  13.700  21.105  0.00  0.00    -0.259 OA
BRANCH  20  21
ATOM     21  C   UNL d   1     -41.839  13.987  21.106  0.00  0.00     0.378 C 
ATOM     22  N   UNL d   1     -42.475  13.488  21.283  0.00  0.00    -0.247 N 
ATOM     23  C   UNL d   1     -43.241  13.797  21.279  0.00  0.00     0.112 A 
ATOM     24  C   UNL d   1     -42.336  12.703  21.459  0.00  0.00     0.112 A 
ATOM     25  C   UNL d   1     -43.873  13.299  21.456  0.00  0.00     0.142 A 
ATOM     26  O   UNL d   1     -43.740  12.505  21.634  0.00  0.00    -0.300 OA
ATOM     27  C   UNL d   1     -42.972  12.208  21.635  0.00  0.00     0.142 A 
ATOM     28  O   UNL d   1     -41.969  14.783  20.927  0.00  0.00    -0.237 OA
ENDBRANCH  20  21
ENDBRANCH   4  20
TORSDOF 4
ENDMDL
MODEL 7
REMARK VINA RESULT:      -3.4      1.299      3.454
REMARK  4 active torsions:
REMARK  status: ('A' for Active; 'I' for Inactive)
REMARK       I    between atoms: N_3  and  C_1 
REMARK    1  A    between atoms: O_5  and  C_1 
REMARK    2  A    between atoms: C_2  and  O_8 
REMARK       I    between atoms: N_4  and  C_2 
REMARK    3  A    between atoms: C_6  and  O_5 
REMARK    4  A    between atoms: O_8  and  C_12 
ROOT
ATOM      1  C   UNL d   1     -49.127  14.933  23.311  0.00  0.00     0.105 A 
ATOM      2  C   UNL d   1     -49.697  14.341  23.259  0.00  0.00     0.025 A 
ATOM      3  C   UNL d   1     -49.471  13.551  23.280  0.00  0.00     0.027 A 
ATOM      4  C   UNL d   1     -50.046  12.939  23.227  0.00  0.00     0.105 A 
ATOM      5  C   UNL d   1     -50.482  14.538  23.188  0.00  0.00     0.002 A 
ATOM      6  C   UNL d   1     -51.061  13.949  23.135  0.00  0.00     0.002 A 
ATOM      7  C   UNL d   1     -50.831  13.136  23.156  0.00  0.00     0.025 A 
ATOM      8  C   UNL d   1     -49.353  15.724  23.290  0.00  0.00     0.025 A 
ATOM      9  C   UNL d   1     -50.139  15.921  23.219  0.00  0.00     0.002 A 
ATOM     10  C   UNL d   1     -50.717  15.332  23.167  0.00  0.00     0.000 A 
ENDROOT
BRANCH   1  11
ATOM     11  O   UNL d   1     -48.330  14.733  23.383  0.00  0.00    -0.259 OA
BRANCH  11  12
ATOM     12  C   UNL d   1     -47.790  14.971  22.804  0.00  0.00     0.378 C 
ATOM     13  N   UNL d   1     -47.013  14.661  22.793  0.00  0.00    -0.247 N 
ATOM     14  C   UNL d   1     -46.478  14.907  22.206  0.00  0.00     0.112 A 
ATOM     15  C   UNL d   1     -46.786  14.115  23.366  0.00  0.00     0.112 A 
ATOM     16  C   UNL d   1     -45.707  14.594  22.203  0.00  0.00     0.142 A 
ATOM     17  O   UNL d   1     -45.479  14.039  22.786  0.00  0.00    -0.300 OA
ATOM     18  C   UNL d   1     -46.022  13.804  23.363  0.00  0.00     0.142 A 
ATOM     19  O   UNL d   1     -48.010  15.520  22.224  0.00  0.00    -0.237 OA
ENDBRANCH  11  12
ENDBRANCH   1  11
BRANCH   4  20
ATOM     20  O   UNL d   1     -49.816  12.147  23.248  0.00  0.00    -0.259 OA
BRANCH  20  21
ATOM     21  C   UNL d   1     -49.384  11.827  22.631  0.00  0.00     0.378 C 
ATOM     22  N   UNL d   1     -48.705  11.379  22.781  0.00  0.00    -0.247 N 
ATOM     23  C   UNL d   1     -48.282  11.064  22.145  0.00  0.00     0.112 A 
ATOM     24  C   UNL d   1     -48.465  11.254  23.552  0.00  0.00     0.112 A 
ATOM     25  C   UNL d   1     -47.607  10.618  22.296  0.00  0.00     0.142 A 
ATOM     26  O   UNL d   1     -47.359  10.488  23.072  0.00  0.00    -0.300 OA
ATOM     27  C   UNL d   1     -47.788  10.806  23.698  0.00  0.00     0.142 A 
ATOM     28  O   UNL d   1     -49.635  11.960  21.856  0.00  0.00    -0.237 OA
ENDBRANCH  20  21
ENDBRANCH   4  20
TORSDOF 4
ENDMDL
