MODEL 1
REMARK VINA RESULT:      -5.3      0.000      0.000
REMARK  4 active torsions:
REMARK  status: ('A' for Active; 'I' for Inactive)
REMARK    1  A    between atoms: C_2  and  N_1 
REMARK       I    between atoms: C_3  and  N_1 
REMARK    2  A    between atoms: N_4  and  C_2 
REMARK    3  A    between atoms: C_7  and  C_3 
REMARK    4  A    between atoms: C_8  and  N_4 
ROOT
ATOM      1  C   UNL d   1      58.348  -0.149  30.200  0.00  0.00     0.179 C 
ATOM      2  S   UNL d   1      58.790   0.551  30.198  0.00  0.00    -0.040 SA
ENDROOT
BRANCH   1   3
ATOM      3  N   UNL d   1      57.943  -0.385  30.879  0.00  0.00    -0.299 N 
ATOM      4  C   UNL d   1      57.281   0.032  31.107  0.00  0.00     0.259 C 
ATOM      5  O   UNL d   1      57.017   0.682  30.666  0.00  0.00    -0.267 OA
ATOM      6  H   UNL d   1      58.204  -1.025  31.313  0.00  0.00     0.171 HD
BRANCH   4   7
ATOM      7  C   UNL d   1      56.867  -0.202  31.794  0.00  0.00     0.056 A 
ATOM      8  C   UNL d   1      56.582  -0.964  31.858  0.00  0.00     0.005 A 
ATOM      9  C   UNL d   1      56.172  -1.200  32.534  0.00  0.00     0.000 A 
ATOM     10  C   UNL d   1      56.054  -0.658  33.144  0.00  0.00     0.000 A 
ATOM     11  C   UNL d   1      56.340   0.104  33.081  0.00  0.00     0.000 A 
ATOM     12  C   UNL d   1      56.749   0.340  32.405  0.00  0.00     0.005 A 
ENDBRANCH   4   7
ENDBRANCH   1   3
BRANCH   1  13
ATOM     13  N   UNL d   1      58.308  -0.619  29.523  0.00  0.00    -0.332 N 
ATOM     14  H   UNL d   1      57.637  -0.617  29.059  0.00  0.00     0.168 HD
BRANCH  13  15
ATOM     15  C   UNL d   1      58.952  -1.086  29.324  0.00  0.00     0.058 A 
ATOM     16  C   UNL d   1      59.699  -0.748  29.208  0.00  0.00     0.018 A 
ATOM     17  C   UNL d   1      60.330  -1.233  29.009  0.00  0.00     0.013 A 
ATOM     18  C   UNL d   1      60.240  -2.040  28.922  0.00  0.00     0.058 A 
ATOM     19  C   UNL d   1      59.494  -2.379  29.038  0.00  0.00     0.013 A 
ATOM     20 CL   UNL d   1      60.870  -2.520  28.725  0.00  0.00    -0.082 Cl
ATOM     21  C   UNL d   1      58.848  -1.906  29.238  0.00  0.00     0.018 A 
ENDBRANCH  13  15
ENDBRANCH   1  13
TORSDOF 4
ENDMDL
MODEL 2
REMARK VINA RESULT:      -5.1      1.955      4.443
REMARK  4 active torsions:
REMARK  status: ('A' for Active; 'I' for Inactive)
REMARK    1  A    between atoms: C_2  and  N_1 
REMARK       I    between atoms: C_3  and  N_1 
REMARK    2  A    between atoms: N_4  and  C_2 
REMARK    3  A    between atoms: C_7  and  C_3 
REMARK    4  A    between atoms: C_8  and  N_4 
ROOT
ATOM      1  C   UNL d   1      57.707   0.055  30.896  0.00  0.00     0.179 C 
ATOM      2  S   UNL d   1      57.340   0.681  30.498  0.00  0.00    -0.040 SA
ENDROOT
BRANCH   1   3
ATOM      3  N   UNL d   1      58.042  -0.569  30.473  0.00  0.00    -0.299 N 
ATOM      4  C   UNL d   1      58.594  -0.402  29.897  0.00  0.00     0.259 C 
ATOM      5  O   UNL d   1      58.816   0.379  29.737  0.00  0.00    -0.267 OA
ATOM      6  H   UNL d   1      57.823  -1.339  30.630  0.00  0.00     0.171 HD
BRANCH   4   7
ATOM      7  C   UNL d   1      58.937  -1.030  29.465  0.00  0.00     0.056 A 
ATOM      8  C   UNL d   1      58.521  -1.723  29.355  0.00  0.00     0.005 A 
ATOM      9  C   UNL d   1      58.855  -2.347  28.930  0.00  0.00     0.000 A 
ATOM     10  C   UNL d   1      59.614  -2.261  28.617  0.00  0.00     0.000 A 
ATOM     11  C   UNL d   1      60.029  -1.568  28.727  0.00  0.00     0.000 A 
ATOM     12  C   UNL d   1      59.696  -0.944  29.152  0.00  0.00     0.005 A 
ENDBRANCH   4   7
ENDBRANCH   1   3
BRANCH   1  13
ATOM     13  N   UNL d   1      57.741   0.047  31.720  0.00  0.00    -0.332 N 
ATOM     14  H   UNL d   1      58.456   0.127  32.104  0.00  0.00     0.168 HD
BRANCH  13  15
ATOM     15  C   UNL d   1      57.046  -0.041  32.147  0.00  0.00     0.058 A 
ATOM     16  C   UNL d   1      56.713  -0.791  32.259  0.00  0.00     0.018 A 
ATOM     17  C   UNL d   1      56.017  -0.858  32.689  0.00  0.00     0.013 A 
ATOM     18  C   UNL d   1      55.645  -0.205  33.008  0.00  0.00     0.058 A 
ATOM     19  C   UNL d   1      55.978   0.545  32.896  0.00  0.00     0.013 A 
ATOM     20 CL   UNL d   1      54.953  -0.274  33.435  0.00  0.00    -0.082 Cl
ATOM     21  C   UNL d   1      56.678   0.631  32.467  0.00  0.00     0.018 A 
ENDBRANCH  13  15
ENDBRANCH   1  13
TORSDOF 4
ENDMDL
MODEL 3
REMARK VINA RESULT:      -4.4      2.171      4.533
REMARK  4 active torsions:
REMARK  status: ('A' for Active; 'I' for Inactive)
REMARK    1  A    between atoms: C_2  and  N_1 
REMARK       I    between atoms: C_3  and  N_1 
REMARK    2  A    between atoms: N_4  and  C_2 
REMARK    3  A    between atoms: C_7  and  C_3 
REMARK    4  A    between atoms: C_8  and  N_4 
ROOT
ATOM      1  C   UNL d   1      57.638   0.096  31.051  0.00  0.00     0.179 C 
ATOM      2  S   UNL d   1      57.118   0.682  30.783  0.00  0.00    -0.040 SA
ENDROOT
BRANCH   1   3
ATOM      3  N   UNL d   1      58.444   0.146  30.882  0.00  0.00    -0.299 N 
ATOM      4  C   UNL d   1      58.688   0.087  30.107  0.00  0.00     0.259 C 
ATOM      5  O   UNL d   1      58.139  -0.022  29.497  0.00  0.00    -0.267 OA
ATOM      6  H   UNL d   1      58.986   0.253  31.484  0.00  0.00     0.171 HD
BRANCH   4   7
ATOM      7  C   UNL d   1      59.503   0.137  29.930  0.00  0.00     0.056 A 
ATOM      8  C   UNL d   1      59.986   0.628  30.368  0.00  0.00     0.005 A 
ATOM      9  C   UNL d   1      60.791   0.681  30.198  0.00  0.00     0.000 A 
ATOM     10  C   UNL d   1      61.104   0.232  29.580  0.00  0.00     0.000 A 
ATOM     11  C   UNL d   1      60.622  -0.259  29.143  0.00  0.00     0.000 A 
ATOM     12  C   UNL d   1      59.816  -0.313  29.313  0.00  0.00     0.005 A 
ENDBRANCH   4   7
ENDBRANCH   1   3
BRANCH   1  13
ATOM     13  N   UNL d   1      57.356  -0.543  31.490  0.00  0.00    -0.332 N 
ATOM     14  H   UNL d   1      57.566  -1.306  31.288  0.00  0.00     0.168 HD
BRANCH  13  15
ATOM     15  C   UNL d   1      56.864  -0.402  32.130  0.00  0.00     0.058 A 
ATOM     16  C   UNL d   1      57.024   0.218  32.655  0.00  0.00     0.018 A 
ATOM     17  C   UNL d   1      56.518   0.343  33.290  0.00  0.00     0.013 A 
ATOM     18  C   UNL d   1      55.863  -0.127  33.415  0.00  0.00     0.058 A 
ATOM     19  C   UNL d   1      55.702  -0.746  32.889  0.00  0.00     0.013 A 
ATOM     20 CL   UNL d   1      55.362  -0.000  34.047  0.00  0.00    -0.082 Cl
ATOM     21  C   UNL d   1      56.200  -0.886  32.246  0.00  0.00     0.018 A 
ENDBRANCH  13  15
ENDBRANCH   1  13
TORSDOF 4
ENDMDL
MODEL 4
REMARK VINA RESULT:      -4.2      1.055      1.276
REMARK  4 active torsions:
REMARK  status: ('A' for Active; 'I' for Inactive)
REMARK    1  A    between atoms: C_2  and  N_1 
REMARK       I    between atoms: C_3  and  N_1 
REMARK    2  A    between atoms: N_4  and  C_2 
REMARK    3  A    between atoms: C_7  and  C_3 
REMARK    4  A    between atoms: C_8  and  N_4 
ROOT
ATOM      1  C   UNL d   1      57.988   0.387  31.019  0.00  0.00     0.179 C 
ATOM      2  S   UNL d   1      58.626   0.682  31.457  0.00  0.00    -0.040 SA
ENDROOT
BRANCH   1   3
ATOM      3  N   UNL d   1      57.354   0.022  31.401  0.00  0.00    -0.299 N 
ATOM      4  C   UNL d   1      57.231   0.172  32.192  0.00  0.00     0.259 C 
ATOM      5  O   UNL d   1      57.733   0.682  32.609  0.00  0.00    -0.267 OA
ATOM      6  H   UNL d   1      56.859  -0.480  30.989  0.00  0.00     0.171 HD
BRANCH   4   7
ATOM      7  C   UNL d   1      56.591  -0.195  32.583  0.00  0.00     0.056 A 
ATOM      8  C   UNL d   1      56.364  -0.950  32.373  0.00  0.00     0.005 A 
ATOM      9  C   UNL d   1      55.732  -1.318  32.756  0.00  0.00     0.000 A 
ATOM     10  C   UNL d   1      55.332  -0.913  33.353  0.00  0.00     0.000 A 
ATOM     11  C   UNL d   1      55.558  -0.158  33.563  0.00  0.00     0.000 A 
ATOM     12  C   UNL d   1      56.190   0.209  33.180  0.00  0.00     0.005 A 
ENDBRANCH   4   7
ENDBRANCH   1   3
BRANCH   1  13
ATOM     13  N   UNL d   1      57.979   0.456  30.197  0.00  0.00    -0.332 N 
ATOM     14  H   UNL d   1      57.353   0.818  29.820  0.00  0.00     0.168 HD
BRANCH  13  15
ATOM     15  C   UNL d   1      58.609   0.156  29.766  0.00  0.00     0.058 A 
ATOM     16  C   UNL d   1      59.254   0.637  29.571  0.00  0.00     0.018 A 
ATOM     17  C   UNL d   1      59.874   0.316  29.138  0.00  0.00     0.013 A 
ATOM     18  C   UNL d   1      59.870  -0.463  28.896  0.00  0.00     0.058 A 
ATOM     19  C   UNL d   1      59.225  -0.944  29.090  0.00  0.00     0.013 A 
ATOM     20 CL   UNL d   1      60.488  -0.779  28.466  0.00  0.00    -0.082 Cl
ATOM     21  C   UNL d   1      58.593  -0.639  29.525  0.00  0.00     0.018 A 
ENDBRANCH  13  15
ENDBRANCH   1  13
TORSDOF 4
ENDMDL
MODEL 5
REMARK VINA RESULT:      -3.5      2.783      5.190
REMARK  4 active torsions:
REMARK  status: ('A' for Active; 'I' for Inactive)
REMARK    1  A    between atoms: C_2  and  N_1 
REMARK       I    between atoms: C_3  and  N_1 
REMARK    2  A    between atoms: N_4  and  C_2 
REMARK    3  A    between atoms: C_7  and  C_3 
REMARK    4  A    between atoms: C_8  and  N_4 
ROOT
ATOM      1  C   UNL d   1      56.334  -0.065  32.446  0.00  0.00     0.179 C 
ATOM      2  S   UNL d   1      56.215  -0.844  32.702  0.00  0.00    -0.040 SA
ENDROOT
BRANCH   1   3
ATOM      3  N   UNL d   1      56.923   0.107  31.894  0.00  0.00    -0.299 N 
ATOM      4  C   UNL d   1      57.104  -0.448  31.326  0.00  0.00     0.259 C 
ATOM      5  O   UNL d   1      56.705  -1.173  31.299  0.00  0.00    -0.267 OA
ATOM      6  H   UNL d   1      57.316   0.821  31.920  0.00  0.00     0.171 HD
BRANCH   4   7
ATOM      7  C   UNL d   1      57.699  -0.279  30.765  0.00  0.00     0.056 A 
ATOM      8  C   UNL d   1      57.874   0.496  30.577  0.00  0.00     0.005 A 
ATOM      9  C   UNL d   1      58.462   0.668  30.024  0.00  0.00     0.000 A 
ATOM     10  C   UNL d   1      58.870   0.049  29.662  0.00  0.00     0.000 A 
ATOM     11  C   UNL d   1      58.695  -0.725  29.850  0.00  0.00     0.000 A 
ATOM     12  C   UNL d   1      58.108  -0.898  30.403  0.00  0.00     0.005 A 
ENDBRANCH   4   7
ENDBRANCH   1   3
BRANCH   1  13
ATOM     13  N   UNL d   1      55.865   0.546  32.739  0.00  0.00    -0.332 N 
ATOM     14  H   UNL d   1      55.562   1.112  32.235  0.00  0.00     0.168 HD
BRANCH  13  15
ATOM     15  C   UNL d   1      55.707   0.577  33.544  0.00  0.00     0.058 A 
ATOM     16  C   UNL d   1      54.929   0.537  33.822  0.00  0.00     0.018 A 
ATOM     17  C   UNL d   1      54.793   0.569  34.632  0.00  0.00     0.013 A 
ATOM     18  C   UNL d   1      55.405   0.640  35.167  0.00  0.00     0.058 A 
ATOM     19  C   UNL d   1      56.183   0.681  34.888  0.00  0.00     0.013 A 
ATOM     20 CL   UNL d   1      55.267   0.673  35.971  0.00  0.00    -0.082 Cl
ATOM     21  C   UNL d   1      56.339   0.650  34.078  0.00  0.00     0.018 A 
ENDBRANCH  13  15
ENDBRANCH   1  13
TORSDOF 4
ENDMDL
MODEL 6
REMARK VINA RESULT:      -2.5      8.812      9.337
REMARK  4 active torsions:
REMARK  status: ('A' for Active; 'I' for Inactive)
REMARK    1  A    between atoms: C_2  and  N_1 
REMARK       I    between atoms: C_3  and  N_1 
REMARK    2  A    between atoms: N_4  and  C_2 
REMARK    3  A    between atoms: C_7  and  C_3 
REMARK    4  A    between atoms: C_8  and  N_4 
ROOT
ATOM      1  C   UNL d   1      59.734  -9.412  34.869  0.00  0.00     0.179 C 
ATOM      2  S   UNL d   1      59.250  -9.818  35.404  0.00  0.00    -0.040 SA
ENDROOT
BRANCH   1   3
ATOM      3  N   UNL d   1      60.004  -8.652  35.044  0.00  0.00    -0.299 N 
ATOM      4  C   UNL d   1      59.767  -8.301  35.740  0.00  0.00     0.259 C 
ATOM      5  O   UNL d   1      59.263  -8.698  36.264  0.00  0.00    -0.267 OA
ATOM      6  H   UNL d   1      60.500  -8.261  34.528  0.00  0.00     0.171 HD
BRANCH   4   7
ATOM      7  C   UNL d   1      60.037  -7.532  35.923  0.00  0.00     0.056 A 
ATOM      8  C   UNL d   1      59.503  -6.919  35.991  0.00  0.00     0.005 A 
ATOM      9  C   UNL d   1      59.765  -6.157  36.171  0.00  0.00     0.000 A 
ATOM     10  C   UNL d   1      60.571  -6.023  36.283  0.00  0.00     0.000 A 
ATOM     11  C   UNL d   1      61.105  -6.636  36.215  0.00  0.00     0.000 A 
ATOM     12  C   UNL d   1      60.843  -7.398  36.035  0.00  0.00     0.005 A 
ENDBRANCH   4   7
ENDBRANCH   1   3
BRANCH   1  13
ATOM     13  N   UNL d   1      59.952  -9.763  34.154  0.00  0.00    -0.332 N 
ATOM     14  H   UNL d   1      60.692 -10.095  34.067  0.00  0.00     0.168 HD
BRANCH  13  15
ATOM     15  C   UNL d   1      59.415  -9.772  33.535  0.00  0.00     0.058 A 
ATOM     16  C   UNL d   1      59.677  -9.749  32.750  0.00  0.00     0.018 A 
ATOM     17  C   UNL d   1      59.123  -9.759  32.143  0.00  0.00     0.013 A 
ATOM     18  C   UNL d   1      58.321  -9.791  32.296  0.00  0.00     0.058 A 
ATOM     19  C   UNL d   1      58.059  -9.813  33.081  0.00  0.00     0.013 A 
ATOM     20 CL   UNL d   1      57.773  -9.800  31.691  0.00  0.00    -0.082 Cl
ATOM     21  C   UNL d   1      58.602  -9.804  33.702  0.00  0.00     0.018 A 
ENDBRANCH  13  15
ENDBRANCH   1  13
TORSDOF 4
ENDMDL
