MODEL 1
REMARK VINA RESULT:      -7.4      0.000      0.000
REMARK  4 active torsions:
REMARK  status: ('A' for Active; 'I' for Inactive)
REMARK    1  A    between atoms: C_6  and  S_1 
REMARK    2  A    between atoms: N_8  and  S_1 
REMARK    3  A    between atoms: C_17  and  N_8 
REMARK    4  A    between atoms: N_16  and  C_15 
ROOT
ATOM      1  N   UNL d   1     -45.016  11.915  22.871  0.00  0.00    -0.273 N 
ATOM      2  C   UNL d   1     -44.728  11.232  23.268  0.00  0.00     0.265 A 
ATOM      3  C   UNL d   1     -45.835  11.935  22.969  0.00  0.00     0.067 A 
ATOM      4  C   UNL d   1     -46.207  11.344  23.395  0.00  0.00     0.022 A 
ATOM      5  C   UNL d   1     -47.466  11.978  23.161  0.00  0.00     0.105 A 
ATOM      6  C   UNL d   1     -46.275  12.548  22.637  0.00  0.00     0.017 A 
ATOM      7  C   UNL d   1     -45.626  10.802  23.663  0.00  0.00     0.063 A 
ATOM      8  C   UNL d   1     -47.026  11.364  23.493  0.00  0.00     0.015 A 
ATOM      9  C   UNL d   1     -47.087  12.572  22.732  0.00  0.00     0.014 A 
ATOM     10  O   UNL d   1     -43.917  11.067  23.264  0.00  0.00    -0.267 OA
ATOM     11  C   UNL d   1     -44.636  12.509  22.442  0.00  0.00     0.083 A 
ATOM     12  C   UNL d   1     -45.888  13.132  22.213  0.00  0.00     0.003 A 
ATOM     13  C   UNL d   1     -45.076  13.123  22.110  0.00  0.00     0.019 A 
ENDROOT
BRANCH   5  14
ATOM     14  S   UNL d   1     -48.293  11.994  23.262  0.00  0.00     0.285 S 
ATOM     15  O   UNL d   1     -48.211  12.691  23.698  0.00  0.00    -0.198 OA
ATOM     16  O   UNL d   1     -48.360  11.291  22.821  0.00  0.00    -0.198 OA
BRANCH  14  17
ATOM     17  N   UNL d   1     -49.110  12.011  23.362  0.00  0.00    -0.158 NA
BRANCH  17  18
ATOM     18  C   UNL d   1     -49.545  12.650  23.073  0.00  0.00     0.094 A 
ATOM     19  C   UNL d   1     -49.854  12.628  22.313  0.00  0.00     0.021 A 
ATOM     20  C   UNL d   1     -50.288  13.268  22.024  0.00  0.00     0.019 A 
ATOM     21  C   UNL d   1     -50.413  13.929  22.495  0.00  0.00     0.064 A 
ATOM     22  C   UNL d   1     -50.103  13.952  23.260  0.00  0.00     0.019 A 
ATOM     23  C   UNL d   1     -49.669  13.313  23.549  0.00  0.00     0.021 A 
BRANCH  21  24
ATOM     24  N   UNL d   1     -50.847  14.568  22.207  0.00  0.00    -0.301 N 
ATOM     25  C   UNL d   1     -51.064  15.181  22.714  0.00  0.00     0.100 C 
ATOM     26  C   UNL d   1     -51.064  14.593  21.411  0.00  0.00     0.100 C 
ENDBRANCH  21  24
ENDBRANCH  17  18
ENDBRANCH  14  17
ENDBRANCH   5  14
TORSDOF 4
ENDMDL
MODEL 2
REMARK VINA RESULT:      -6.0      1.368      5.015
REMARK  4 active torsions:
REMARK  status: ('A' for Active; 'I' for Inactive)
REMARK    1  A    between atoms: C_6  and  S_1 
REMARK    2  A    between atoms: N_8  and  S_1 
REMARK    3  A    between atoms: C_17  and  N_8 
REMARK    4  A    between atoms: N_16  and  C_15 
ROOT
ATOM      1  N   UNL d   1     -50.255  14.011  21.941  0.00  0.00    -0.273 N 
ATOM      2  C   UNL d   1     -50.385  14.809  22.172  0.00  0.00     0.265 A 
ATOM      3  C   UNL d   1     -49.542  13.766  22.275  0.00  0.00     0.067 A 
ATOM      4  C   UNL d   1     -49.110  14.285  22.737  0.00  0.00     0.022 A 
ATOM      5  C   UNL d   1     -48.122  13.273  22.940  0.00  0.00     0.105 A 
ATOM      6  C   UNL d   1     -49.267  12.999  22.144  0.00  0.00     0.017 A 
ATOM      7  C   UNL d   1     -49.521  15.015  22.772  0.00  0.00     0.063 A 
ATOM      8  C   UNL d   1     -48.397  14.040  23.071  0.00  0.00     0.015 A 
ATOM      9  C   UNL d   1     -48.561  12.751  22.473  0.00  0.00     0.014 A 
ATOM     10  O   UNL d   1     -51.064  15.205  21.916  0.00  0.00    -0.267 OA
ATOM     11  C   UNL d   1     -50.694  13.491  21.474  0.00  0.00     0.083 A 
ATOM     12  C   UNL d   1     -49.711  12.491  21.680  0.00  0.00     0.003 A 
ATOM     13  C   UNL d   1     -50.419  12.724  21.343  0.00  0.00     0.019 A 
ENDROOT
BRANCH   5  14
ATOM     14  S   UNL d   1     -47.402  13.029  23.280  0.00  0.00     0.285 S 
ATOM     15  O   UNL d   1     -47.167  13.820  23.315  0.00  0.00    -0.198 OA
ATOM     16  O   UNL d   1     -47.652  12.235  23.237  0.00  0.00    -0.198 OA
BRANCH  14  17
ATOM     17  N   UNL d   1     -46.690  12.787  23.615  0.00  0.00    -0.158 NA
BRANCH  17  18
ATOM     18  C   UNL d   1     -46.013  12.738  23.146  0.00  0.00     0.094 A 
ATOM     19  C   UNL d   1     -45.729  13.404  22.760  0.00  0.00     0.021 A 
ATOM     20  C   UNL d   1     -45.052  13.354  22.291  0.00  0.00     0.019 A 
ATOM     21  C   UNL d   1     -44.659  12.638  22.208  0.00  0.00     0.064 A 
ATOM     22  C   UNL d   1     -44.943  11.967  22.596  0.00  0.00     0.019 A 
ATOM     23  C   UNL d   1     -45.620  12.016  23.065  0.00  0.00     0.021 A 
BRANCH  21  24
ATOM     24  N   UNL d   1     -43.982  12.588  21.739  0.00  0.00    -0.301 N 
ATOM     25  C   UNL d   1     -43.957  12.972  21.009  0.00  0.00     0.100 C 
ATOM     26  C   UNL d   1     -43.331  12.154  22.000  0.00  0.00     0.100 C 
ENDBRANCH  21  24
ENDBRANCH  17  18
ENDBRANCH  14  17
ENDBRANCH   5  14
TORSDOF 4
ENDMDL
MODEL 3
REMARK VINA RESULT:      -5.0      1.148      4.915
REMARK  4 active torsions:
REMARK  status: ('A' for Active; 'I' for Inactive)
REMARK    1  A    between atoms: C_6  and  S_1 
REMARK    2  A    between atoms: N_8  and  S_1 
REMARK    3  A    between atoms: C_17  and  N_8 
REMARK    4  A    between atoms: N_16  and  C_15 
ROOT
ATOM      1  N   UNL d   1     -50.599  14.140  21.882  0.00  0.00    -0.273 N 
ATOM      2  C   UNL d   1     -50.581  14.848  22.335  0.00  0.00     0.265 A 
ATOM      3  C   UNL d   1     -50.090  13.600  22.242  0.00  0.00     0.067 A 
ATOM      4  C   UNL d   1     -49.685  13.812  22.919  0.00  0.00     0.022 A 
ATOM      5  C   UNL d   1     -49.079  12.519  22.956  0.00  0.00     0.105 A 
ATOM      6  C   UNL d   1     -49.993  12.847  21.918  0.00  0.00     0.017 A 
ATOM      7  C   UNL d   1     -49.891  14.601  23.117  0.00  0.00     0.063 A 
ATOM      8  C   UNL d   1     -49.176  13.272  23.279  0.00  0.00     0.015 A 
ATOM      9  C   UNL d   1     -49.490  12.307  22.272  0.00  0.00     0.014 A 
ATOM     10  O   UNL d   1     -51.042  15.495  22.103  0.00  0.00    -0.267 OA
ATOM     11  C   UNL d   1     -51.010  13.930  21.198  0.00  0.00     0.083 A 
ATOM     12  C   UNL d   1     -50.406  12.648  21.240  0.00  0.00     0.003 A 
ATOM     13  C   UNL d   1     -50.913  13.177  20.875  0.00  0.00     0.019 A 
ENDROOT
BRANCH   5  14
ATOM     14  S   UNL d   1     -48.564  11.975  23.322  0.00  0.00     0.285 S 
ATOM     15  O   UNL d   1     -48.188  12.607  23.698  0.00  0.00    -0.198 OA
ATOM     16  O   UNL d   1     -48.953  11.348  22.936  0.00  0.00    -0.198 OA
BRANCH  14  17
ATOM     17  N   UNL d   1     -48.056  11.438  23.684  0.00  0.00    -0.158 NA
BRANCH  17  18
ATOM     18  C   UNL d   1     -47.251  11.453  23.505  0.00  0.00     0.094 A 
ATOM     19  C   UNL d   1     -46.887  10.788  23.189  0.00  0.00     0.021 A 
ATOM     20  C   UNL d   1     -46.081  10.803  23.010  0.00  0.00     0.019 A 
ATOM     21  C   UNL d   1     -45.640  11.482  23.147  0.00  0.00     0.064 A 
ATOM     22  C   UNL d   1     -46.005  12.151  23.464  0.00  0.00     0.019 A 
ATOM     23  C   UNL d   1     -46.810  12.137  23.643  0.00  0.00     0.021 A 
BRANCH  21  24
ATOM     24  N   UNL d   1     -44.835  11.497  22.968  0.00  0.00    -0.301 N 
ATOM     25  C   UNL d   1     -44.325  10.952  23.319  0.00  0.00     0.100 C 
ATOM     26  C   UNL d   1     -44.541  12.056  22.437  0.00  0.00     0.100 C 
ENDBRANCH  21  24
ENDBRANCH  17  18
ENDBRANCH  14  17
ENDBRANCH   5  14
TORSDOF 4
ENDMDL
