MODEL 1
REMARK VINA RESULT:      15.8      0.000      0.000
REMARK  7 active torsions:
REMARK  status: ('A' for Active; 'I' for Inactive)
REMARK    1  A    between atoms: S_6  and  C_1 
REMARK    2  A    between atoms: C_12  and  N_2 
REMARK       I    between atoms: N_4  and  C_8 
REMARK    3  A    between atoms: C_5  and  N_4 
REMARK    4  A    between atoms: C_15  and  S_6 
REMARK    5  A    between atoms: O_18  and  C_7 
REMARK    6  A    between atoms: C_8  and  C_15 
REMARK    7  A    between atoms: O_19  and  C_16 
ROOT
ATOM      1  N   UNL d   1      46.445 -17.412  44.397  0.00  0.00    -0.206 NA
ATOM      2  C   UNL d   1      46.034 -16.710  44.322  0.00  0.00     0.286 C 
ATOM      3  O   UNL d   1      45.657 -16.520  43.615  0.00  0.00    -0.265 OA
ENDROOT
BRANCH   2   4
ATOM      4  C   UNL d   1      45.994 -16.195  44.948  0.00  0.00     0.101 C 
BRANCH   4   5
ATOM      5  S   UNL d   1      45.820 -15.397  44.826  0.00  0.00    -0.044 SA
BRANCH   5   6
ATOM      6  C   UNL d   1      45.033 -15.141  44.800  0.00  0.00     0.180 A 
ATOM      7  N   UNL d   1      44.783 -14.383  44.619  0.00  0.00    -0.284 N 
ATOM      8  C   UNL d   1      43.957 -14.378  44.660  0.00  0.00     0.103 A 
ATOM      9  C   UNL d   1      43.703 -15.147  44.870  0.00  0.00     0.120 A 
ATOM     10  N   UNL d   1      44.369 -15.602  44.953  0.00  0.00    -0.219 NA
BRANCH   7  11
ATOM     11  C   UNL d   1      45.235 -13.720  44.426  0.00  0.00     0.066 A 
ATOM     12  C   UNL d   1      45.127 -13.345  43.700  0.00  0.00     0.018 A 
ATOM     13  C   UNL d   1      45.579 -12.682  43.507  0.00  0.00     0.002 A 
ATOM     14  C   UNL d   1      46.140 -12.396  44.041  0.00  0.00     0.000 A 
ATOM     15  C   UNL d   1      46.244 -12.772  44.760  0.00  0.00     0.002 A 
ATOM     16  C   UNL d   1      45.792 -13.434  44.952  0.00  0.00     0.018 A 
ENDBRANCH   7  11
ENDBRANCH   5   6
ENDBRANCH   4   5
ENDBRANCH   2   4
BRANCH   1  17
ATOM     17  C   UNL d   1      46.489 -17.936  43.769  0.00  0.00     0.107 A 
ATOM     18  C   UNL d   1      46.471 -18.742  43.900  0.00  0.00     0.114 A 
ATOM     19  C   UNL d   1      46.515 -19.262  43.275  0.00  0.00     0.050 A 
ATOM     20  C   UNL d   1      46.578 -18.976  42.501  0.00  0.00     0.096 A 
ATOM     21  C   UNL d   1      46.596 -18.159  42.361  0.00  0.00     0.026 A 
ATOM     22  C   UNL d   1      46.551 -17.643  43.000  0.00  0.00     0.023 A 
BRANCH  18  23
ATOM     23  O   UNL d   1      46.409 -19.036  44.663  0.00  0.00    -0.327 OA
ATOM     24  C   UNL d   1      46.646 -19.820  44.828  0.00  0.00     0.181 C 
ENDBRANCH  18  23
BRANCH  20  25
ATOM     25  O   UNL d   1      46.622 -19.512  41.865  0.00  0.00    -0.328 OA
ATOM     26  C   UNL d   1      45.925 -19.816  41.533  0.00  0.00     0.181 C 
ENDBRANCH  20  25
ENDBRANCH   1  17
TORSDOF 7
ENDMDL
