MODEL 1
REMARK VINA RESULT:      74.9      0.000      0.000
REMARK  3 active torsions:
REMARK  status: ('A' for Active; 'I' for Inactive)
REMARK    1  A    between atoms: C_8  and  C_6 
REMARK    2  A    between atoms: C_9  and  C_8 
REMARK       I    between atoms: N_10  and  C_9 
REMARK    3  A    between atoms: C_13  and  N_10 
ROOT
ATOM      1  N   UNL d   1      58.934  49.592  49.592  0.00  0.00    -0.207 NA
ATOM      2  N   UNL d   1      58.871  49.506  51.266  0.00  0.00    -0.240 NA
ATOM      3  C   UNL d   1      59.515  49.538  50.166  0.00  0.00     0.297 A 
ATOM      4  C   UNL d   1      58.111  49.620  49.688  0.00  0.00     0.086 A 
ATOM      5  C   UNL d   1      58.071  49.546  51.112  0.00  0.00     0.083 A 
ATOM      6  C   UNL d   1      59.485  49.510  50.726  0.00  0.00     0.144 A 
ATOM      7  C   UNL d   1      57.673  49.600  50.393  0.00  0.00     0.035 A 
ATOM      8  O   UNL d   1      60.279  49.524  49.869  0.00  0.00    -0.264 OA
ATOM      9  C   UNL d   1      56.855  49.634  50.361  0.00  0.00     0.003 A 
ATOM     10  C   UNL d   1      57.719  49.674  48.960  0.00  0.00     0.019 A 
ATOM     11  C   UNL d   1      57.636  49.526  51.817  0.00  0.00     0.019 A 
ATOM     12  C   UNL d   1      56.805  49.560  51.794  0.00  0.00     0.002 A 
ATOM     13  C   UNL d   1      56.894  49.708  48.941  0.00  0.00     0.002 A 
ATOM     14  C   UNL d   1      56.416  49.614  51.066  0.00  0.00     0.000 A 
ATOM     15  C   UNL d   1      56.465  49.688  49.633  0.00  0.00     0.000 A 
ENDROOT
BRANCH   6  16
ATOM     16  C   UNL d   1      60.230  49.461  51.078  0.00  0.00     0.086 C 
BRANCH  16  17
ATOM     17  C   UNL d   1      60.292  49.215  51.869  0.00  0.00     0.281 C 
ATOM     18  N   UNL d   1      60.605  48.477  52.044  0.00  0.00    -0.208 NA
ATOM     19  O   UNL d   1      60.039  49.707  52.482  0.00  0.00    -0.265 OA
BRANCH  18  20
ATOM     20  C   UNL d   1      60.859  47.980  51.439  0.00  0.00     0.085 A 
ATOM     21  C   UNL d   1      61.587  48.108  51.072  0.00  0.00     0.019 A 
ATOM     22  C   UNL d   1      61.835  47.612  50.472  0.00  0.00     0.002 A 
ATOM     23  C   UNL d   1      62.556  47.741  50.111  0.00  0.00     0.000 C 
ATOM     24  C   UNL d   1      61.364  46.984  50.229  0.00  0.00     0.000 A 
ATOM     25  C   UNL d   1      60.631  46.854  50.597  0.00  0.00     0.002 A 
ATOM     26  C   UNL d   1      60.384  47.356  51.202  0.00  0.00     0.019 A 
ENDBRANCH  18  20
ENDBRANCH  16  17
ENDBRANCH   6  16
TORSDOF 3
ENDMDL
