MODEL 1
REMARK VINA RESULT:      -2.0      0.000      0.000
REMARK  8 active torsions:
REMARK  status: ('A' for Active; 'I' for Inactive)
REMARK    1  A    between atoms: C_8  and  N_3 
REMARK    2  A    between atoms: S_7  and  C_5 
REMARK    3  A    between atoms: C_17  and  S_7 
REMARK    4  A    between atoms: C_20  and  C_8 
REMARK    5  A    between atoms: C_9  and  C_17 
REMARK       I    between atoms: N_12  and  C_9 
REMARK    6  A    between atoms: C_11  and  C_13 
REMARK    7  A    between atoms: C_13  and  N_12 
REMARK    8  A    between atoms: O_21  and  C_15 
ROOT
ATOM      1  N   UNL d   1      31.732  18.112 -23.852  0.00  0.00    -0.185 NA
ATOM      2  C   UNL d   1      31.222  17.623 -24.282  0.00  0.00     0.354 A 
ATOM      3  N   UNL d   1      31.400  16.820 -24.370  0.00  0.00    -0.258 N 
ATOM      4  C   UNL d   1      32.582  17.002 -23.606  0.00  0.00     0.040 A 
ATOM      5  C   UNL d   1      32.412  17.801 -23.514  0.00  0.00     0.117 A 
ATOM      6  C   UNL d   1      32.079  16.509 -24.032  0.00  0.00     0.070 A 
ATOM      7  O   UNL d   1      30.529  17.940 -24.627  0.00  0.00    -0.244 OA
ATOM      8  C   UNL d   1      33.205  16.531 -23.341  0.00  0.00     0.004 A 
ATOM      9  C   UNL d   1      32.376  15.745 -24.039  0.00  0.00     0.018 A 
ATOM     10  C   UNL d   1      33.086  15.762 -23.602  0.00  0.00     0.002 A 
ENDROOT
BRANCH   5  11
ATOM     11  S   UNL d   1      32.922  18.290 -23.083  0.00  0.00    -0.062 SA
BRANCH  11  12
ATOM     12  C   UNL d   1      32.873  19.109 -23.156  0.00  0.00     0.099 C 
BRANCH  12  13
ATOM     13  C   UNL d   1      33.053  19.589 -22.505  0.00  0.00     0.286 C 
ATOM     14  N   UNL d   1      33.061  20.402 -22.578  0.00  0.00    -0.206 NA
ATOM     15  O   UNL d   1      33.229  19.239 -21.768  0.00  0.00    -0.265 OA
BRANCH  14  16
ATOM     16  C   UNL d   1      33.241  20.881 -21.928  0.00  0.00     0.104 C 
BRANCH  16  17
ATOM     17  C   UNL d   1      33.150  21.695 -21.974  0.00  0.00     0.042 A 
ATOM     18  C   UNL d   1      32.976  22.136 -21.295  0.00  0.00     0.096 A 
ATOM     19  C   UNL d   1      32.885  22.954 -21.344  0.00  0.00     0.024 A 
ATOM     20  C   UNL d   1      32.967  23.339 -22.065  0.00  0.00     0.002 A 
ATOM     21  C   UNL d   1      33.141  22.907 -22.751  0.00  0.00     0.000 A 
ATOM     22  C   UNL d   1      33.235  22.080 -22.709  0.00  0.00     0.004 A 
BRANCH  18  23
ATOM     23  O   UNL d   1      32.892  21.755 -20.562  0.00  0.00    -0.328 OA
ATOM     24  C   UNL d   1      33.233  22.097 -19.888  0.00  0.00     0.181 C 
ENDBRANCH  18  23
ENDBRANCH  16  17
ENDBRANCH  14  16
ENDBRANCH  12  13
ENDBRANCH  11  12
ENDBRANCH   5  11
BRANCH   3  25
ATOM     25  C   UNL d   1      30.890  16.331 -24.801  0.00  0.00     0.085 C 
BRANCH  25  26
ATOM     26  C   UNL d   1      30.146  16.140 -24.493  0.00  0.00     0.021 A 
ATOM     27  C   UNL d   1      30.090  15.750 -23.774  0.00  0.00     0.022 A 
ATOM     28  C   UNL d   1      29.342  15.564 -23.474  0.00  0.00     0.099 A 
ATOM     29  N   UNL d   1      28.660  15.765 -23.890  0.00  0.00    -0.242 NA
ATOM     30  C   UNL d   1      28.723  16.152 -24.605  0.00  0.00     0.099 A 
ATOM     31  C   UNL d   1      29.476  16.347 -24.919  0.00  0.00     0.022 A 
ENDBRANCH  25  26
ENDBRANCH   3  25
TORSDOF 8
ENDMDL
MODEL 2
REMARK VINA RESULT:      -0.7      1.528      6.191
REMARK  8 active torsions:
REMARK  status: ('A' for Active; 'I' for Inactive)
REMARK    1  A    between atoms: C_8  and  N_3 
REMARK    2  A    between atoms: S_7  and  C_5 
REMARK    3  A    between atoms: C_17  and  S_7 
REMARK    4  A    between atoms: C_20  and  C_8 
REMARK    5  A    between atoms: C_9  and  C_17 
REMARK       I    between atoms: N_12  and  C_9 
REMARK    6  A    between atoms: C_11  and  C_13 
REMARK    7  A    between atoms: C_13  and  N_12 
REMARK    8  A    between atoms: O_21  and  C_15 
ROOT
ATOM      1  N   UNL d   1      33.232  20.691 -22.836  0.00  0.00    -0.185 NA
ATOM      2  C   UNL d   1      33.235  21.377 -22.375  0.00  0.00     0.354 A 
ATOM      3  N   UNL d   1      33.238  22.118 -22.742  0.00  0.00    -0.258 N 
ATOM      4  C   UNL d   1      33.235  21.485 -24.013  0.00  0.00     0.040 A 
ATOM      5  C   UNL d   1      33.232  20.745 -23.655  0.00  0.00     0.117 A 
ATOM      6  C   UNL d   1      33.238  22.172 -23.560  0.00  0.00     0.070 A 
ATOM      7  O   UNL d   1      33.235  21.322 -21.540  0.00  0.00    -0.244 OA
ATOM      8  C   UNL d   1      33.236  21.722 -24.803  0.00  0.00     0.004 A 
ATOM      9  C   UNL d   1      33.241  22.830 -24.050  0.00  0.00     0.018 A 
ATOM     10  C   UNL d   1      33.240  22.542 -24.833  0.00  0.00     0.002 A 
ENDROOT
BRANCH   5  11
ATOM     11  S   UNL d   1      33.229  20.057 -24.116  0.00  0.00    -0.062 SA
BRANCH  11  12
ATOM     12  C   UNL d   1      32.607  19.522 -24.060  0.00  0.00     0.099 C 
BRANCH  12  13
ATOM     13  C   UNL d   1      32.681  18.771 -24.403  0.00  0.00     0.286 C 
ATOM     14  N   UNL d   1      32.253  18.139 -24.115  0.00  0.00    -0.206 NA
ATOM     15  O   UNL d   1      33.199  18.659 -25.048  0.00  0.00    -0.265 OA
BRANCH  14  16
ATOM     16  C   UNL d   1      32.328  17.388 -24.457  0.00  0.00     0.104 C 
BRANCH  16  17
ATOM     17  C   UNL d   1      31.756  16.815 -24.329  0.00  0.00     0.042 A 
ATOM     18  C   UNL d   1      31.897  16.193 -23.800  0.00  0.00     0.096 A 
ATOM     19  C   UNL d   1      31.321  15.618 -23.673  0.00  0.00     0.024 A 
ATOM     20  C   UNL d   1      30.602  15.654 -24.068  0.00  0.00     0.002 A 
ATOM     21  C   UNL d   1      30.450  16.272 -24.599  0.00  0.00     0.000 A 
ATOM     22  C   UNL d   1      31.027  16.858 -24.733  0.00  0.00     0.004 A 
BRANCH  18  23
ATOM     23  O   UNL d   1      32.623  16.148 -23.397  0.00  0.00    -0.328 OA
ATOM     24  C   UNL d   1      32.734  15.548 -22.835  0.00  0.00     0.181 C 
ENDBRANCH  18  23
ENDBRANCH  16  17
ENDBRANCH  14  16
ENDBRANCH  12  13
ENDBRANCH  11  12
ENDBRANCH   5  11
BRANCH   3  25
ATOM     25  C   UNL d   1      33.241  22.806 -22.281  0.00  0.00     0.085 C 
BRANCH  25  26
ATOM     26  C   UNL d   1      32.530  23.099 -21.975  0.00  0.00     0.021 A 
ATOM     27  C   UNL d   1      31.940  23.352 -22.485  0.00  0.00     0.022 A 
ATOM     28  C   UNL d   1      31.233  23.643 -22.170  0.00  0.00     0.099 A 
ATOM     29  N   UNL d   1      31.119  23.680 -21.354  0.00  0.00    -0.242 NA
ATOM     30  C   UNL d   1      31.711  23.426 -20.853  0.00  0.00     0.099 A 
ATOM     31  C   UNL d   1      32.432  23.129 -21.161  0.00  0.00     0.022 A 
ENDBRANCH  25  26
ENDBRANCH   3  25
TORSDOF 8
ENDMDL
MODEL 3
REMARK VINA RESULT:      -0.5      1.406      6.076
REMARK  8 active torsions:
REMARK  status: ('A' for Active; 'I' for Inactive)
REMARK    1  A    between atoms: C_8  and  N_3 
REMARK    2  A    between atoms: S_7  and  C_5 
REMARK    3  A    between atoms: C_17  and  S_7 
REMARK    4  A    between atoms: C_20  and  C_8 
REMARK    5  A    between atoms: C_9  and  C_17 
REMARK       I    between atoms: N_12  and  C_9 
REMARK    6  A    between atoms: C_11  and  C_13 
REMARK    7  A    between atoms: C_13  and  N_12 
REMARK    8  A    between atoms: O_21  and  C_15 
ROOT
ATOM      1  N   UNL d   1      32.965  20.791 -23.047  0.00  0.00    -0.185 NA
ATOM      2  C   UNL d   1      33.062  21.559 -22.758  0.00  0.00     0.354 A 
ATOM      3  N   UNL d   1      33.140  21.685 -21.943  0.00  0.00    -0.258 N 
ATOM      4  C   UNL d   1      33.024  20.287 -21.722  0.00  0.00     0.040 A 
ATOM      5  C   UNL d   1      32.946  20.155 -22.529  0.00  0.00     0.117 A 
ATOM      6  C   UNL d   1      33.121  21.049 -21.426  0.00  0.00     0.070 A 
ATOM      7  O   UNL d   1      33.082  22.208 -23.286  0.00  0.00    -0.244 OA
ATOM      8  C   UNL d   1      33.027  19.780 -21.071  0.00  0.00     0.004 A 
ATOM      9  C   UNL d   1      33.184  21.027 -20.608  0.00  0.00     0.018 A 
ATOM     10  C   UNL d   1      33.125  20.224 -20.389  0.00  0.00     0.002 A 
ENDROOT
BRANCH   5  11
ATOM     11  S   UNL d   1      32.849  19.387 -22.820  0.00  0.00    -0.062 SA
BRANCH  11  12
ATOM     12  C   UNL d   1      33.170  19.173 -23.547  0.00  0.00     0.099 C 
BRANCH  12  13
ATOM     13  C   UNL d   1      32.728  18.701 -24.066  0.00  0.00     0.286 C 
ATOM     14  N   UNL d   1      32.556  17.926 -23.878  0.00  0.00    -0.206 NA
ATOM     15  O   UNL d   1      32.457  19.021 -24.788  0.00  0.00    -0.265 OA
BRANCH  14  16
ATOM     16  C   UNL d   1      32.115  17.455 -24.397  0.00  0.00     0.104 C 
BRANCH  16  17
ATOM     17  C   UNL d   1      31.719  16.792 -24.122  0.00  0.00     0.042 A 
ATOM     18  C   UNL d   1      30.947  16.629 -24.375  0.00  0.00     0.096 A 
ATOM     19  C   UNL d   1      30.551  15.963 -24.097  0.00  0.00     0.024 A 
ATOM     20  C   UNL d   1      30.916  15.453 -23.566  0.00  0.00     0.002 A 
ATOM     21  C   UNL d   1      31.688  15.607 -23.306  0.00  0.00     0.000 A 
ATOM     22  C   UNL d   1      32.096  16.279 -23.583  0.00  0.00     0.004 A 
BRANCH  18  23
ATOM     23  O   UNL d   1      30.570  17.140 -24.912  0.00  0.00    -0.328 OA
ATOM     24  C   UNL d   1      29.742  17.183 -24.913  0.00  0.00     0.181 C 
ENDBRANCH  18  23
ENDBRANCH  16  17
ENDBRANCH  14  16
ENDBRANCH  12  13
ENDBRANCH  11  12
ENDBRANCH   5  11
BRANCH   3  25
ATOM     25  C   UNL d   1      33.237  22.454 -21.653  0.00  0.00     0.085 C 
BRANCH  25  26
ATOM     26  C   UNL d   1      32.582  22.871 -21.367  0.00  0.00     0.021 A 
ATOM     27  C   UNL d   1      32.536  23.061 -20.571  0.00  0.00     0.022 A 
ATOM     28  C   UNL d   1      31.878  23.478 -20.294  0.00  0.00     0.099 A 
ATOM     29  N   UNL d   1      31.275  23.702 -20.808  0.00  0.00    -0.242 NA
ATOM     30  C   UNL d   1      31.327  23.510 -21.599  0.00  0.00     0.099 A 
ATOM     31  C   UNL d   1      31.990  23.087 -21.892  0.00  0.00     0.022 A 
ENDBRANCH  25  26
ENDBRANCH   3  25
TORSDOF 8
ENDMDL
