MODEL 1
REMARK VINA RESULT:      56.7      0.000      0.000
REMARK  5 active torsions:
REMARK  status: ('A' for Active; 'I' for Inactive)
REMARK    1  A    between atoms: C_2  and  C_1 
REMARK       I    between atoms: N_4  and  C_2 
REMARK    2  A    between atoms: C_7  and  N_4 
REMARK    3  A    between atoms: C_12  and  C_6 
REMARK    4  A    between atoms: S_11  and  C_12 
REMARK    5  A    between atoms: C_14  and  S_11 
ROOT
ATOM      1  C   UNL d   1      60.358  49.333  51.821  0.00  0.00     0.158 A 
ATOM      2  O   UNL d   1      59.959  49.689  51.194  0.00  0.00    -0.302 OA
ATOM      3  C   UNL d   1      59.812  48.856  52.224  0.00  0.00     0.032 A 
ATOM      4  C   UNL d   1      59.181  49.439  51.205  0.00  0.00     0.107 A 
ATOM      5  C   UNL d   1      59.084  48.922  51.842  0.00  0.00     0.027 A 
ENDROOT
BRANCH   1   6
ATOM      6  C   UNL d   1      61.155  49.428  52.020  0.00  0.00     0.302 C 
ATOM      7  N   UNL d   1      61.741  49.332  51.451  0.00  0.00    -0.204 NA
ATOM      8  O   UNL d   1      61.355  49.621  52.793  0.00  0.00    -0.263 OA
BRANCH   7   9
ATOM      9  C   UNL d   1      61.523  49.136  50.671  0.00  0.00     0.112 A 
ATOM     10  C   UNL d   1      61.642  48.361  50.409  0.00  0.00     0.158 A 
ATOM     11  F   UNL d   1      61.967  47.799  50.911  0.00  0.00    -0.203 F 
ATOM     12  C   UNL d   1      61.428  48.163  49.639  0.00  0.00     0.031 A 
ATOM     13  C   UNL d   1      61.100  48.733  49.135  0.00  0.00     0.002 A 
ATOM     14  C   UNL d   1      60.985  49.503  49.403  0.00  0.00     0.002 A 
ATOM     15  C   UNL d   1      61.200  49.702  50.177  0.00  0.00     0.021 A 
ENDBRANCH   7   9
ENDBRANCH   1   6
BRANCH   4  16
ATOM     16  C   UNL d   1      58.586  49.659  50.674  0.00  0.00     0.060 C 
BRANCH  16  17
ATOM     17  S   UNL d   1      57.801  49.672  50.921  0.00  0.00    -0.084 SA
BRANCH  17  18
ATOM     18  C   UNL d   1      57.213  49.333  50.460  0.00  0.00     0.029 A 
ATOM     19  C   UNL d   1      56.856  48.631  50.693  0.00  0.00     0.006 A 
ATOM     20  C   UNL d   1      56.267  48.292  50.232  0.00  0.00     0.001 A 
ATOM     21  C   UNL d   1      56.036  48.665  49.529  0.00  0.00     0.000 A 
ATOM     22  C   UNL d   1      56.397  49.369  49.298  0.00  0.00     0.001 A 
ATOM     23  C   UNL d   1      56.986  49.707  49.760  0.00  0.00     0.006 A 
ENDBRANCH  17  18
ENDBRANCH  16  17
ENDBRANCH   4  16
TORSDOF 5
ENDMDL
