MODEL 1
REMARK VINA RESULT:      -4.6      0.000      0.000
REMARK  5 active torsions:
REMARK  status: ('A' for Active; 'I' for Inactive)
REMARK       I    between atoms: N_2  and  C_1 
REMARK       I    between atoms: N_4  and  C_1 
REMARK    1  A    between atoms: C_8  and  N_2 
REMARK    2  A    between atoms: C_3  and  C_5 
REMARK    3  A    between atoms: O_11  and  C_3 
REMARK    4  A    between atoms: C_14  and  N_4 
REMARK    5  A    between atoms: C_15  and  N_4 
ROOT
ATOM      1  C   UNL d   1      56.250  -0.120  32.535  0.00  0.00     0.063 A 
ATOM      2  C   UNL d   1      57.163  -0.014  31.164  0.00  0.00     0.086 A 
ATOM      3  C   UNL d   1      56.512  -0.807  32.156  0.00  0.00     0.007 A 
ATOM      4  C   UNL d   1      56.443   0.615  32.232  0.00  0.00     0.007 A 
ATOM      5  C   UNL d   1      56.970  -0.748  31.467  0.00  0.00     0.019 A 
ATOM      6  C   UNL d   1      56.899   0.671  31.547  0.00  0.00     0.019 A 
ENDROOT
BRANCH   2   7
ATOM      7  N   UNL d   1      57.616   0.044  30.483  0.00  0.00    -0.192 NA
ATOM      8  C   UNL d   1      58.390   0.331  30.536  0.00  0.00     0.354 C 
ATOM      9  N   UNL d   1      58.850   0.393  29.863  0.00  0.00    -0.256 N 
ATOM     10  O   UNL d   1      58.702   0.557  31.271  0.00  0.00    -0.244 OA
BRANCH   9  11
ATOM     11  C   UNL d   1      58.534   0.165  29.132  0.00  0.00     0.085 C 
ATOM     12  C   UNL d   1      58.690   0.615  28.456  0.00  0.00     0.021 C 
ENDBRANCH   9  11
BRANCH   9  13
ATOM     13  C   UNL d   1      59.624   0.680  29.921  0.00  0.00     0.085 C 
ATOM     14  C   UNL d   1      60.215   0.350  29.448  0.00  0.00     0.021 C 
ENDBRANCH   9  13
ENDBRANCH   2   7
BRANCH   1  15
ATOM     15  C   UNL d   1      55.798  -0.170  33.214  0.00  0.00     0.296 C 
ATOM     16  O   UNL d   1      55.464  -0.883  33.437  0.00  0.00    -0.259 OA
BRANCH  15  17
ATOM     17  O   UNL d   1      55.679   0.505  33.676  0.00  0.00    -0.296 OA
ATOM     18  C   UNL d   1      55.161   0.471  34.309  0.00  0.00     0.185 C 
ENDBRANCH  15  17
ENDBRANCH   1  15
TORSDOF 5
ENDMDL
MODEL 2
REMARK VINA RESULT:      -3.4      1.487      4.327
REMARK  5 active torsions:
REMARK  status: ('A' for Active; 'I' for Inactive)
REMARK       I    between atoms: N_2  and  C_1 
REMARK       I    between atoms: N_4  and  C_1 
REMARK    1  A    between atoms: C_8  and  N_2 
REMARK    2  A    between atoms: C_3  and  C_5 
REMARK    3  A    between atoms: O_11  and  C_3 
REMARK    4  A    between atoms: C_14  and  N_4 
REMARK    5  A    between atoms: C_15  and  N_4 
ROOT
ATOM      1  C   UNL d   1      57.945  -0.043  30.066  0.00  0.00     0.063 A 
ATOM      2  C   UNL d   1      56.973  -0.002  31.399  0.00  0.00     0.086 A 
ATOM      3  C   UNL d   1      57.585   0.665  30.295  0.00  0.00     0.007 A 
ATOM      4  C   UNL d   1      57.822  -0.726  30.499  0.00  0.00     0.007 A 
ATOM      5  C   UNL d   1      57.097   0.681  30.966  0.00  0.00     0.019 A 
ATOM      6  C   UNL d   1      57.336  -0.708  31.166  0.00  0.00     0.019 A 
ENDROOT
BRANCH   2   7
ATOM      7  N   UNL d   1      56.491   0.013  32.062  0.00  0.00    -0.192 NA
ATOM      8  C   UNL d   1      56.782   0.336  32.766  0.00  0.00     0.354 C 
ATOM      9  N   UNL d   1      56.309   0.357  33.433  0.00  0.00    -0.256 N 
ATOM     10  O   UNL d   1      57.553   0.641  32.798  0.00  0.00    -0.244 OA
BRANCH   9  11
ATOM     11  C   UNL d   1      55.540   0.051  33.395  0.00  0.00     0.085 C 
ATOM     12  C   UNL d   1      54.956   0.337  33.906  0.00  0.00     0.021 C 
ENDBRANCH   9  11
BRANCH   9  13
ATOM     13  C   UNL d   1      56.604   0.681  34.134  0.00  0.00     0.085 C 
ATOM     14  C   UNL d   1      56.443   0.307  34.852  0.00  0.00     0.021 C 
ENDBRANCH   9  13
ENDBRANCH   2   7
BRANCH   1  15
ATOM     15  C   UNL d   1      58.427  -0.066  29.407  0.00  0.00     0.296 C 
ATOM     16  O   UNL d   1      58.168   0.242  28.693  0.00  0.00    -0.259 OA
BRANCH  15  17
ATOM     17  O   UNL d   1      59.180  -0.402  29.461  0.00  0.00    -0.296 OA
ATOM     18  C   UNL d   1      59.559  -0.652  28.780  0.00  0.00     0.185 C 
ENDBRANCH  15  17
ENDBRANCH   1  15
TORSDOF 5
ENDMDL
MODEL 3
REMARK VINA RESULT:      -2.2      9.727     10.459
REMARK  5 active torsions:
REMARK  status: ('A' for Active; 'I' for Inactive)
REMARK       I    between atoms: N_2  and  C_1 
REMARK       I    between atoms: N_4  and  C_1 
REMARK    1  A    between atoms: C_8  and  N_2 
REMARK    2  A    between atoms: C_3  and  C_5 
REMARK    3  A    between atoms: O_11  and  C_3 
REMARK    4  A    between atoms: C_14  and  N_4 
REMARK    5  A    between atoms: C_15  and  N_4 
ROOT
ATOM      1  C   UNL d   1      57.917  -9.793  31.122  0.00  0.00     0.063 A 
ATOM      2  C   UNL d   1      58.556  -9.809  32.643  0.00  0.00     0.086 A 
ATOM      3  C   UNL d   1      57.418  -9.789  31.781  0.00  0.00     0.007 A 
ATOM      4  C   UNL d   1      58.729  -9.805  31.221  0.00  0.00     0.007 A 
ATOM      5  C   UNL d   1      57.744  -9.797  32.544  0.00  0.00     0.019 A 
ATOM      6  C   UNL d   1      59.051  -9.813  31.980  0.00  0.00     0.019 A 
ENDROOT
BRANCH   2   7
ATOM      7  N   UNL d   1      58.878  -9.817  33.398  0.00  0.00    -0.192 NA
ATOM      8  C   UNL d   1      59.228  -9.130  33.695  0.00  0.00     0.354 C 
ATOM      9  N   UNL d   1      59.552  -9.127  34.446  0.00  0.00    -0.256 N 
ATOM     10  O   UNL d   1      59.253  -8.441  33.233  0.00  0.00    -0.244 OA
BRANCH   9  11
ATOM     11  C   UNL d   1      59.525  -9.818  34.902  0.00  0.00     0.085 C 
ATOM     12  C   UNL d   1      59.328  -9.776  35.704  0.00  0.00     0.021 C 
ENDBRANCH   9  11
BRANCH   9  13
ATOM     13  C   UNL d   1      59.901  -8.437  34.739  0.00  0.00     0.085 C 
ATOM     14  C   UNL d   1      60.664  -8.471  35.052  0.00  0.00     0.021 C 
ENDBRANCH   9  13
ENDBRANCH   2   7
BRANCH   1  15
ATOM     15  C   UNL d   1      57.603  -9.784  30.367  0.00  0.00     0.296 C 
ATOM     16  O   UNL d   1      56.792  -9.782  30.256  0.00  0.00    -0.259 OA
BRANCH  15  17
ATOM     17  O   UNL d   1      58.109  -9.779  29.714  0.00  0.00    -0.296 OA
ATOM     18  C   UNL d   1      57.798  -9.661  28.966  0.00  0.00     0.185 C 
ENDBRANCH  15  17
ENDBRANCH   1  15
TORSDOF 5
ENDMDL
