MODEL 1
REMARK VINA RESULT:      -5.5      0.000      0.000
REMARK  6 active torsions:
REMARK  status: ('A' for Active; 'I' for Inactive)
REMARK    1  A    between atoms: S_9  and  C_3 
REMARK    2  A    between atoms: C_4  and  C_17 
REMARK       I    between atoms: N_8  and  C_4 
REMARK    3  A    between atoms: C_5  and  C_16 
REMARK    4  A    between atoms: C_14  and  C_6 
REMARK    5  A    between atoms: C_16  and  N_8 
REMARK    6  A    between atoms: C_17  and  S_9 
ROOT
ATOM      1  N   UNL d   1     -42.451-122.762 -49.787  0.00  0.00    -0.148 NA
ATOM      2  N   UNL d   1     -42.125-122.693 -50.542  0.00  0.00    -0.141 NA
ATOM      3  C   UNL d   1     -41.466-123.137 -50.754  0.00  0.00     0.133 A 
ATOM      4  C   UNL d   1     -42.104-123.285 -49.243  0.00  0.00     0.103 A 
ATOM      5  C   UNL d   1     -41.451-123.727 -49.449  0.00  0.00     0.023 A 
ATOM      6  C   UNL d   1     -41.124-123.661 -50.199  0.00  0.00     0.029 A 
ENDROOT
BRANCH   3   7
ATOM      7  S   UNL d   1     -41.148-123.064 -51.507  0.00  0.00    -0.061 SA
BRANCH   7   8
ATOM      8  C   UNL d   1     -41.613-122.776 -52.122  0.00  0.00     0.099 C 
BRANCH   8   9
ATOM      9  C   UNL d   1     -41.484-123.032 -52.897  0.00  0.00     0.286 C 
ATOM     10  N   UNL d   1     -41.701-122.558 -53.528  0.00  0.00    -0.204 NA
ATOM     11  O   UNL d   1     -41.136-123.764 -53.032  0.00  0.00    -0.265 OA
BRANCH  10  12
ATOM     12  C   UNL d   1     -41.575-122.808 -54.294  0.00  0.00     0.127 C 
BRANCH  12  13
ATOM     13  C   UNL d   1     -41.937-122.418 -54.919  0.00  0.00     0.119 A 
ATOM     14  O   UNL d   1     -42.742-122.388 -55.075  0.00  0.00    -0.304 OA
ATOM     15  C   UNL d   1     -42.859-121.940 -55.751  0.00  0.00     0.123 A 
ATOM     16  C   UNL d   1     -42.124-121.691 -56.016  0.00  0.00     0.029 A 
ATOM     17  C   UNL d   1     -41.548-121.981 -55.509  0.00  0.00     0.028 A 
ENDBRANCH  12  13
ENDBRANCH  10  12
ENDBRANCH   8   9
ENDBRANCH   7   8
ENDBRANCH   3   7
BRANCH   4  18
ATOM     18  C   UNL d   1     -42.428-123.357 -48.484  0.00  0.00     0.019 A 
ATOM     19  C   UNL d   1     -42.018-123.064 -47.816  0.00  0.00     0.002 A 
ATOM     20  C   UNL d   1     -42.348-123.139 -47.063  0.00  0.00     0.000 A 
ATOM     21  C   UNL d   1     -43.076-123.499 -46.964  0.00  0.00     0.000 A 
ATOM     22  C   UNL d   1     -43.491-123.793 -47.620  0.00  0.00     0.000 A 
ATOM     23  C   UNL d   1     -43.165-123.720 -48.375  0.00  0.00     0.002 A 
ENDBRANCH   4  18
TORSDOF 6
ENDMDL
MODEL 2
REMARK VINA RESULT:      -3.0      1.560      5.957
REMARK  6 active torsions:
REMARK  status: ('A' for Active; 'I' for Inactive)
REMARK    1  A    between atoms: S_9  and  C_3 
REMARK    2  A    between atoms: C_4  and  C_17 
REMARK       I    between atoms: N_8  and  C_4 
REMARK    3  A    between atoms: C_5  and  C_16 
REMARK    4  A    between atoms: C_14  and  C_6 
REMARK    5  A    between atoms: C_16  and  N_8 
REMARK    6  A    between atoms: C_17  and  S_9 
ROOT
ATOM      1  N   UNL d   1     -42.035-121.432 -53.289  0.00  0.00    -0.148 NA
ATOM      2  N   UNL d   1     -41.858-121.470 -52.484  0.00  0.00    -0.141 NA
ATOM      3  C   UNL d   1     -41.424-122.099 -52.181  0.00  0.00     0.133 A 
ATOM      4  C   UNL d   1     -41.769-122.038 -53.790  0.00  0.00     0.103 A 
ATOM      5  C   UNL d   1     -41.338-122.664 -53.494  0.00  0.00     0.023 A 
ATOM      6  C   UNL d   1     -41.160-122.704 -52.694  0.00  0.00     0.029 A 
ENDROOT
BRANCH   3   7
ATOM      7  S   UNL d   1     -41.252-122.129 -51.379  0.00  0.00    -0.061 SA
BRANCH   7   8
ATOM      8  C   UNL d   1     -41.492-122.777 -50.932  0.00  0.00     0.099 C 
BRANCH   8   9
ATOM      9  C   UNL d   1     -41.437-122.759 -50.108  0.00  0.00     0.286 C 
ATOM     10  N   UNL d   1     -41.688-123.400 -49.665  0.00  0.00    -0.204 NA
ATOM     11  O   UNL d   1     -41.129-122.095 -49.735  0.00  0.00    -0.265 OA
BRANCH  10  12
ATOM     12  C   UNL d   1     -41.634-123.385 -48.852  0.00  0.00     0.127 C 
BRANCH  12  13
ATOM     13  C   UNL d   1     -42.295-123.551 -48.392  0.00  0.00     0.119 A 
ATOM     14  O   UNL d   1     -42.307-123.665 -47.580  0.00  0.00    -0.304 OA
ATOM     15  C   UNL d   1     -43.079-123.816 -47.351  0.00  0.00     0.123 A 
ATOM     16  C   UNL d   1     -43.547-123.796 -48.023  0.00  0.00     0.029 A 
ATOM     17  C   UNL d   1     -43.072-123.632 -48.672  0.00  0.00     0.028 A 
ENDBRANCH  12  13
ENDBRANCH  10  12
ENDBRANCH   8   9
ENDBRANCH   7   8
ENDBRANCH   3   7
BRANCH   4  18
ATOM     18  C   UNL d   1     -41.945-122.004 -54.599  0.00  0.00     0.019 A 
ATOM     19  C   UNL d   1     -41.332-121.957 -55.167  0.00  0.00     0.002 A 
ATOM     20  C   UNL d   1     -41.516-121.923 -55.970  0.00  0.00     0.000 A 
ATOM     21  C   UNL d   1     -42.295-121.936 -56.218  0.00  0.00     0.000 A 
ATOM     22  C   UNL d   1     -42.911-121.982 -55.663  0.00  0.00     0.000 A 
ATOM     23  C   UNL d   1     -42.732-122.016 -54.858  0.00  0.00     0.002 A 
ENDBRANCH   4  18
TORSDOF 6
ENDMDL
