MODEL 1
REMARK VINA RESULT:       9.5      0.000      0.000
REMARK  5 active torsions:
REMARK  status: ('A' for Active; 'I' for Inactive)
REMARK    1  A    between atoms: C_7  and  C_1 
REMARK    2  A    between atoms: C_5  and  S_14 
REMARK       I    between atoms: N_13  and  C_7 
REMARK    3  A    between atoms: C_18  and  N_13 
REMARK    4  A    between atoms: S_14  and  C_19 
REMARK    5  A    between atoms: C_19  and  C_18 
ROOT
ATOM      1  C   UNL d   1      45.932 -16.967  44.859  0.00  0.00     0.056 C 
ENDROOT
BRANCH   1   2
ATOM      2  S   UNL d   1      46.093 -16.208  44.556  0.00  0.00    -0.083 SA
BRANCH   2   3
ATOM      3  C   UNL d   1      45.536 -15.598  44.652  0.00  0.00     0.050 A 
ATOM      4  C   UNL d   1      45.657 -14.807  44.459  0.00  0.00     0.025 A 
ATOM      5  C   UNL d   1      44.959 -14.391  44.644  0.00  0.00     0.082 A 
ATOM      6  C   UNL d   1      46.306 -14.400  44.140  0.00  0.00     0.002 A 
ATOM      7  C   UNL d   1      44.913 -13.577  44.510  0.00  0.00     0.019 A 
ATOM      8  N   UNL d   1      44.416 -14.938  44.949  0.00  0.00    -0.243 NA
ATOM      9  C   UNL d   1      45.560 -13.179  44.193  0.00  0.00     0.002 A 
ATOM     10  C   UNL d   1      46.262 -13.595  44.007  0.00  0.00     0.000 A 
ATOM     11  C   UNL d   1      44.773 -15.680  44.953  0.00  0.00     0.105 A 
ENDBRANCH   2   3
ENDBRANCH   1   2
BRANCH   1  12
ATOM     12  C   UNL d   1      46.248 -17.633  44.487  0.00  0.00     0.109 C 
BRANCH  12  13
ATOM     13  N   UNL d   1      46.262 -18.368  44.888  0.00  0.00    -0.204 NA
ATOM     14  C   UNL d   1      46.358 -19.068  44.465  0.00  0.00     0.302 C 
ATOM     15  O   UNL d   1      46.371 -19.790  44.865  0.00  0.00    -0.263 OA
BRANCH  14  16
ATOM     16  C   UNL d   1      46.441 -19.046  43.636  0.00  0.00     0.158 A 
ATOM     17  O   UNL d   1      46.405 -18.426  43.089  0.00  0.00    -0.296 OA
ATOM     18  C   UNL d   1      46.532 -18.745  42.340  0.00  0.00     0.134 A 
ATOM     19 BR   UNL d   1      46.543 -18.321  41.622  0.00  0.00    -0.022 Br
ATOM     20  C   UNL d   1      46.646 -19.557  42.418  0.00  0.00     0.034 A 
ATOM     21  C   UNL d   1      46.590 -19.741  43.219  0.00  0.00     0.032 A 
ENDBRANCH  14  16
ENDBRANCH  12  13
ENDBRANCH   1  12
TORSDOF 5
ENDMDL
MODEL 2
REMARK VINA RESULT:       9.7      2.171      4.802
REMARK  5 active torsions:
REMARK  status: ('A' for Active; 'I' for Inactive)
REMARK    1  A    between atoms: C_7  and  C_1 
REMARK    2  A    between atoms: C_5  and  S_14 
REMARK       I    between atoms: N_13  and  C_7 
REMARK    3  A    between atoms: C_18  and  N_13 
REMARK    4  A    between atoms: S_14  and  C_19 
REMARK    5  A    between atoms: C_19  and  C_18 
ROOT
ATOM      1  C   UNL d   1      45.922 -16.679  44.369  0.00  0.00     0.056 C 
ENDROOT
BRANCH   1   2
ATOM      2  S   UNL d   1      46.144 -17.128  43.704  0.00  0.00    -0.083 SA
BRANCH   2   3
ATOM      3  C   UNL d   1      46.271 -17.946  43.782  0.00  0.00     0.050 A 
ATOM      4  C   UNL d   1      46.386 -18.472  43.159  0.00  0.00     0.025 A 
ATOM      5  C   UNL d   1      46.491 -19.232  43.486  0.00  0.00     0.082 A 
ATOM      6  C   UNL d   1      46.411 -18.370  42.337  0.00  0.00     0.002 A 
ATOM      7  C   UNL d   1      46.620 -19.881  42.992  0.00  0.00     0.019 A 
ATOM      8  N   UNL d   1      46.438 -19.159  44.310  0.00  0.00    -0.243 NA
ATOM      9  C   UNL d   1      46.644 -19.774  42.176  0.00  0.00     0.002 A 
ATOM     10  C   UNL d   1      46.538 -19.011  41.846  0.00  0.00     0.000 A 
ATOM     11  C   UNL d   1      46.302 -18.367  44.490  0.00  0.00     0.105 A 
ENDBRANCH   2   3
ENDBRANCH   1   2
BRANCH   1  12
ATOM     12  C   UNL d   1      45.599 -15.926  44.267  0.00  0.00     0.109 C 
BRANCH  12  13
ATOM     13  N   UNL d   1      44.838 -15.752  44.572  0.00  0.00    -0.204 NA
ATOM     14  C   UNL d   1      44.589 -14.971  44.642  0.00  0.00     0.302 C 
ATOM     15  O   UNL d   1      43.838 -14.805  44.943  0.00  0.00    -0.263 OA
BRANCH  14  16
ATOM     16  C   UNL d   1      45.094 -14.349  44.410  0.00  0.00     0.158 A 
ATOM     17  O   UNL d   1      45.001 -13.728  43.872  0.00  0.00    -0.296 OA
ATOM     18  C   UNL d   1      45.695 -13.285  43.878  0.00  0.00     0.134 A 
ATOM     19 BR   UNL d   1      45.847 -12.606  43.419  0.00  0.00    -0.022 Br
ATOM     20  C   UNL d   1      46.218 -13.626  44.415  0.00  0.00     0.034 A 
ATOM     21  C   UNL d   1      45.845 -14.283  44.743  0.00  0.00     0.032 A 
ENDBRANCH  14  16
ENDBRANCH  12  13
ENDBRANCH   1  12
TORSDOF 5
ENDMDL
