MODEL 1
REMARK VINA RESULT:      -2.8      0.000      0.000
REMARK  2 active torsions:
REMARK  status: ('A' for Active; 'I' for Inactive)
REMARK    1  A    between atoms: C_4  and  N_1 
REMARK    2  A    between atoms: C_7  and  C_9 
ROOT
ATOM      1  C   UNL d   1      30.551  16.253 -24.084  0.00  0.00     0.070 A 
ATOM      2  C   UNL d   1      30.947  16.959 -23.908  0.00  0.00     0.024 A 
ATOM      3  C   UNL d   1      31.732  17.051 -24.114  0.00  0.00     0.066 A 
ATOM      4  C   UNL d   1      30.941  15.638 -24.467  0.00  0.00     0.018 A 
ATOM      5  C   UNL d   1      32.130  16.433 -24.500  0.00  0.00     0.006 A 
ATOM      6  C   UNL d   1      31.735  15.726 -24.677  0.00  0.00     0.002 A 
ENDROOT
BRANCH   1   7
ATOM      7  N   UNL d   1      29.759  16.156 -23.878  0.00  0.00    -0.242 N 
ATOM      8  C   UNL d   1      29.104  16.408 -24.330  0.00  0.00     0.267 A 
ATOM      9  C   UNL d   1      28.415  16.204 -23.926  0.00  0.00     0.066 A 
ATOM     10  O   UNL d   1      29.104  16.797 -25.060  0.00  0.00    -0.267 OA
ATOM     11  C   UNL d   1      28.637  15.826 -23.222  0.00  0.00     0.066 A 
ATOM     12  C   UNL d   1      29.456  15.797 -23.195  0.00  0.00     0.267 A 
ATOM     13  O   UNL d   1      29.869  15.453 -22.560  0.00  0.00    -0.267 OA
ENDBRANCH   1   7
BRANCH   3  14
ATOM     14  C   UNL d   1      32.135  17.745 -23.945  0.00  0.00     0.211 C 
ATOM     15  O   UNL d   1      32.494  17.856 -23.217  0.00  0.00    -0.644 OA
ATOM     16  O   UNL d   1      32.177  18.339 -24.524  0.00  0.00    -0.644 OA
ENDBRANCH   3  14
TORSDOF 2
ENDMDL
MODEL 2
REMARK VINA RESULT:      -2.8      0.042      1.179
REMARK  2 active torsions:
REMARK  status: ('A' for Active; 'I' for Inactive)
REMARK    1  A    between atoms: C_4  and  N_1 
REMARK    2  A    between atoms: C_7  and  C_9 
ROOT
ATOM      1  C   UNL d   1      30.514  16.259 -24.105  0.00  0.00     0.070 A 
ATOM      2  C   UNL d   1      30.918  16.958 -23.918  0.00  0.00     0.024 A 
ATOM      3  C   UNL d   1      31.705  17.043 -24.121  0.00  0.00     0.066 A 
ATOM      4  C   UNL d   1      30.897  15.646 -24.496  0.00  0.00     0.018 A 
ATOM      5  C   UNL d   1      32.096  16.426 -24.515  0.00  0.00     0.006 A 
ATOM      6  C   UNL d   1      31.692  15.726 -24.703  0.00  0.00     0.002 A 
ENDROOT
BRANCH   1   7
ATOM      7  N   UNL d   1      29.720  16.170 -23.902  0.00  0.00    -0.242 N 
ATOM      8  C   UNL d   1      29.434  15.800 -23.211  0.00  0.00     0.267 A 
ATOM      9  C   UNL d   1      28.610  15.829 -23.223  0.00  0.00     0.066 A 
ATOM     10  O   UNL d   1      29.867  15.453 -22.597  0.00  0.00    -0.267 OA
ATOM     11  C   UNL d   1      28.380  16.215 -23.919  0.00  0.00     0.066 A 
ATOM     12  C   UNL d   1      29.058  16.422 -24.332  0.00  0.00     0.267 A 
ATOM     13  O   UNL d   1      29.032  16.822 -25.061  0.00  0.00    -0.267 OA
ENDBRANCH   1   7
BRANCH   3  14
ATOM     14  C   UNL d   1      32.117  17.730 -23.941  0.00  0.00     0.211 C 
ATOM     15  O   UNL d   1      32.493  17.817 -23.218  0.00  0.00    -0.644 OA
ATOM     16  O   UNL d   1      32.149  18.340 -24.503  0.00  0.00    -0.644 OA
ENDBRANCH   3  14
TORSDOF 2
ENDMDL
MODEL 3
REMARK VINA RESULT:      -2.7      0.980      1.403
REMARK  2 active torsions:
REMARK  status: ('A' for Active; 'I' for Inactive)
REMARK    1  A    between atoms: C_4  and  N_1 
REMARK    2  A    between atoms: C_7  and  C_9 
ROOT
ATOM      1  C   UNL d   1      31.545  16.992 -24.095  0.00  0.00     0.070 A 
ATOM      2  C   UNL d   1      31.833  17.553 -23.558  0.00  0.00     0.024 A 
ATOM      3  C   UNL d   1      32.571  17.886 -23.669  0.00  0.00     0.066 A 
ATOM      4  C   UNL d   1      31.996  16.764 -24.744  0.00  0.00     0.018 A 
ATOM      5  C   UNL d   1      33.028  17.659 -24.324  0.00  0.00     0.006 A 
ATOM      6  C   UNL d   1      32.741  17.098 -24.862  0.00  0.00     0.002 A 
ENDROOT
BRANCH   1   7
ATOM      7  N   UNL d   1      30.802  16.653 -23.986  0.00  0.00    -0.242 N 
ATOM      8  C   UNL d   1      30.084  16.944 -24.298  0.00  0.00     0.267 A 
ATOM      9  C   UNL d   1      29.475  16.444 -24.058  0.00  0.00     0.066 A 
ATOM     10  O   UNL d   1      29.963  17.613 -24.769  0.00  0.00    -0.267 OA
ATOM     11  C   UNL d   1      29.808  15.841 -23.597  0.00  0.00     0.066 A 
ATOM     12  C   UNL d   1      30.617  15.970 -23.554  0.00  0.00     0.267 A 
ATOM     13  O   UNL d   1      31.128  15.466 -23.132  0.00  0.00    -0.267 OA
ENDBRANCH   1   7
BRANCH   3  14
ATOM     14  C   UNL d   1      32.867  18.443 -23.145  0.00  0.00     0.211 C 
ATOM     15  O   UNL d   1      32.798  19.245 -23.300  0.00  0.00    -0.644 OA
ATOM     16  O   UNL d   1      33.241  18.184 -22.450  0.00  0.00    -0.644 OA
ENDBRANCH   3  14
TORSDOF 2
ENDMDL
MODEL 4
REMARK VINA RESULT:      -2.7      1.124      3.202
REMARK  2 active torsions:
REMARK  status: ('A' for Active; 'I' for Inactive)
REMARK    1  A    between atoms: C_4  and  N_1 
REMARK    2  A    between atoms: C_7  and  C_9 
ROOT
ATOM      1  C   UNL d   1      30.521  16.398 -24.271  0.00  0.00     0.070 A 
ATOM      2  C   UNL d   1      29.853  16.495 -23.791  0.00  0.00     0.024 A 
ATOM      3  C   UNL d   1      29.164  16.089 -23.961  0.00  0.00     0.066 A 
ATOM      4  C   UNL d   1      30.500  15.896 -24.921  0.00  0.00     0.018 A 
ATOM      5  C   UNL d   1      29.139  15.580 -24.616  0.00  0.00     0.006 A 
ATOM      6  C   UNL d   1      29.807  15.483 -25.097  0.00  0.00     0.002 A 
ENDROOT
BRANCH   1   7
ATOM      7  N   UNL d   1      31.217  16.806 -24.103  0.00  0.00    -0.242 N 
ATOM      8  C   UNL d   1      31.839  16.529 -23.621  0.00  0.00     0.267 A 
ATOM      9  C   UNL d   1      32.428  17.105 -23.598  0.00  0.00     0.066 A 
ATOM     10  O   UNL d   1      31.894  15.808 -23.217  0.00  0.00    -0.267 OA
ATOM     11  C   UNL d   1      32.177  17.742 -24.065  0.00  0.00     0.066 A 
ATOM     12  C   UNL d   1      31.439  17.558 -24.372  0.00  0.00     0.267 A 
ATOM     13  O   UNL d   1      31.020  18.078 -24.870  0.00  0.00    -0.267 OA
ENDBRANCH   1   7
BRANCH   3  14
ATOM     14  C   UNL d   1      28.495  16.176 -23.493  0.00  0.00     0.211 C 
ATOM     15  O   UNL d   1      27.991  16.814 -23.596  0.00  0.00    -0.644 OA
ATOM     16  O   UNL d   1      28.334  15.608 -22.910  0.00  0.00    -0.644 OA
ENDBRANCH   3  14
TORSDOF 2
ENDMDL
MODEL 5
REMARK VINA RESULT:      -2.6      1.087      3.028
REMARK  2 active torsions:
REMARK  status: ('A' for Active; 'I' for Inactive)
REMARK    1  A    between atoms: C_4  and  N_1 
REMARK    2  A    between atoms: C_7  and  C_9 
ROOT
ATOM      1  C   UNL d   1      30.959  16.323 -24.140  0.00  0.00     0.070 A 
ATOM      2  C   UNL d   1      30.344  16.293 -23.587  0.00  0.00     0.024 A 
ATOM      3  C   UNL d   1      29.668  15.861 -23.747  0.00  0.00     0.066 A 
ATOM      4  C   UNL d   1      30.900  15.920 -24.855  0.00  0.00     0.018 A 
ATOM      5  C   UNL d   1      29.604  15.454 -24.468  0.00  0.00     0.006 A 
ATOM      6  C   UNL d   1      30.220  15.483 -25.022  0.00  0.00     0.002 A 
ENDROOT
BRANCH   1   7
ATOM      7  N   UNL d   1      31.642  16.757 -23.982  0.00  0.00    -0.242 N 
ATOM      8  C   UNL d   1      31.770  17.555 -24.191  0.00  0.00     0.267 A 
ATOM      9  C   UNL d   1      32.520  17.775 -23.931  0.00  0.00     0.066 A 
ATOM     10  O   UNL d   1      31.259  18.070 -24.590  0.00  0.00    -0.267 OA
ATOM     11  C   UNL d   1      32.862  17.117 -23.559  0.00  0.00     0.066 A 
ATOM     12  C   UNL d   1      32.325  16.498 -23.592  0.00  0.00     0.267 A 
ATOM     13  O   UNL d   1      32.488  15.748 -23.269  0.00  0.00    -0.267 OA
ENDBRANCH   1   7
BRANCH   3  14
ATOM     14  C   UNL d   1      29.052  15.824 -23.208  0.00  0.00     0.211 C 
ATOM     15  O   UNL d   1      28.319  16.147 -23.384  0.00  0.00    -0.644 OA
ATOM     16  O   UNL d   1      29.177  15.453 -22.476  0.00  0.00    -0.644 OA
ENDBRANCH   3  14
TORSDOF 2
ENDMDL
MODEL 6
REMARK VINA RESULT:      -2.0      1.853      3.869
REMARK  2 active torsions:
REMARK  status: ('A' for Active; 'I' for Inactive)
REMARK    1  A    between atoms: C_4  and  N_1 
REMARK    2  A    between atoms: C_7  and  C_9 
ROOT
ATOM      1  C   UNL d   1      32.679  17.971 -23.683  0.00  0.00     0.070 A 
ATOM      2  C   UNL d   1      31.935  17.751 -23.974  0.00  0.00     0.024 A 
ATOM      3  C   UNL d   1      31.731  16.961 -24.020  0.00  0.00     0.066 A 
ATOM      4  C   UNL d   1      33.219  17.401 -23.440  0.00  0.00     0.018 A 
ATOM      5  C   UNL d   1      32.274  16.382 -23.775  0.00  0.00     0.006 A 
ATOM      6  C   UNL d   1      33.018  16.602 -23.484  0.00  0.00     0.002 A 
ENDROOT
BRANCH   1   7
ATOM      7  N   UNL d   1      32.889  18.767 -23.635  0.00  0.00    -0.242 N 
ATOM      8  C   UNL d   1      32.967  19.208 -22.930  0.00  0.00     0.267 A 
ATOM      9  C   UNL d   1      33.183  19.978 -23.128  0.00  0.00     0.066 A 
ATOM     10  O   UNL d   1      32.855  18.953 -22.151  0.00  0.00    -0.267 OA
ATOM     11  C   UNL d   1      33.241  20.021 -23.953  0.00  0.00     0.066 A 
ATOM     12  C   UNL d   1      33.061  19.282 -24.261  0.00  0.00     0.267 A 
ATOM     13  O   UNL d   1      33.066  19.126 -25.079  0.00  0.00    -0.267 OA
ENDBRANCH   1   7
BRANCH   3  14
ATOM     14  C   UNL d   1      30.998  16.729 -24.306  0.00  0.00     0.211 C 
ATOM     15  O   UNL d   1      30.308  16.981 -23.943  0.00  0.00    -0.644 OA
ATOM     16  O   UNL d   1      30.962  16.234 -24.971  0.00  0.00    -0.644 OA
ENDBRANCH   3  14
TORSDOF 2
ENDMDL
