MODEL 1
REMARK VINA RESULT:      -3.8      0.000      0.000
REMARK  4 active torsions:
REMARK  status: ('A' for Active; 'I' for Inactive)
REMARK    1  A    between atoms: C_6  and  C_1 
REMARK       I    between atoms: N_9  and  C_6 
REMARK    2  A    between atoms: C_13  and  N_9 
REMARK    3  A    between atoms: O_12  and  C_14 
REMARK    4  A    between atoms: C_14  and  C_13 
ROOT
ATOM      1  C   UNL d   1     -42.111-122.491 -50.375  0.00  0.00     0.084 A 
ATOM      2  C   UNL d   1     -42.916-122.311 -50.306  0.00  0.00     0.137 A 
ATOM      3  S   UNL d   1     -43.193-122.654 -49.607  0.00  0.00    -0.066 SA
ATOM      4  C   UNL d   1     -41.896-122.942 -49.723  0.00  0.00     0.013 A 
ATOM      5  C   UNL d   1     -42.557-123.044 -49.250  0.00  0.00     0.031 A 
ATOM      6  N   UNL d   1     -43.367-121.865 -50.842  0.00  0.00    -0.141 N 
ATOM      7  C   UNL d   1     -41.174-123.276 -49.497  0.00  0.00     0.001 A 
ATOM      8  C   UNL d   1     -42.513-123.477 -48.548  0.00  0.00     0.006 A 
ATOM      9  C   UNL d   1     -41.128-123.711 -48.795  0.00  0.00     0.000 A 
ATOM     10  C   UNL d   1     -41.796-123.809 -48.324  0.00  0.00     0.001 A 
ENDROOT
BRANCH   1  11
ATOM     11  C   UNL d   1     -41.618-122.254 -50.996  0.00  0.00     0.281 C 
ATOM     12  O   UNL d   1     -41.122-121.603 -50.901  0.00  0.00    -0.265 OA
ATOM     13  N   UNL d   1     -41.619-122.664 -51.711  0.00  0.00    -0.204 NA
BRANCH  13  14
ATOM     14  C   UNL d   1     -41.126-122.427 -52.331  0.00  0.00     0.128 C 
BRANCH  14  15
ATOM     15  C   UNL d   1     -41.213-122.756 -53.082  0.00  0.00     0.137 C 
BRANCH  15  16
ATOM     16  O   UNL d   1     -41.138-122.284 -53.753  0.00  0.00    -0.325 OA
ATOM     17  C   UNL d   1     -41.289-122.598 -54.501  0.00  0.00     0.182 C 
ENDBRANCH  15  16
ENDBRANCH  14  15
ENDBRANCH  13  14
ENDBRANCH   1  11
TORSDOF 4
ENDMDL
MODEL 2
REMARK VINA RESULT:      -3.1      1.639      3.938
REMARK  4 active torsions:
REMARK  status: ('A' for Active; 'I' for Inactive)
REMARK    1  A    between atoms: C_6  and  C_1 
REMARK       I    between atoms: N_9  and  C_6 
REMARK    2  A    between atoms: C_13  and  N_9 
REMARK    3  A    between atoms: O_12  and  C_14 
REMARK    4  A    between atoms: C_14  and  C_13 
ROOT
ATOM      1  C   UNL d   1     -41.446-122.736 -51.839  0.00  0.00     0.084 A 
ATOM      2  C   UNL d   1     -41.255-121.931 -51.830  0.00  0.00     0.137 A 
ATOM      3  S   UNL d   1     -41.123-121.693 -52.610  0.00  0.00    -0.066 SA
ATOM      4  C   UNL d   1     -41.431-122.991 -52.620  0.00  0.00     0.013 A 
ATOM      5  C   UNL d   1     -41.233-122.354 -53.095  0.00  0.00     0.031 A 
ATOM      6  N   UNL d   1     -41.205-121.446 -51.157  0.00  0.00    -0.141 N 
ATOM      7  C   UNL d   1     -41.574-123.729 -52.962  0.00  0.00     0.001 A 
ATOM      8  C   UNL d   1     -41.173-122.439 -53.915  0.00  0.00     0.006 A 
ATOM      9  C   UNL d   1     -41.515-123.817 -53.783  0.00  0.00     0.000 A 
ATOM     10  C   UNL d   1     -41.315-123.173 -54.255  0.00  0.00     0.001 A 
ENDROOT
BRANCH   1  11
ATOM     11  C   UNL d   1     -41.620-123.195 -51.172  0.00  0.00     0.281 C 
ATOM     12  O   UNL d   1     -41.123-123.817 -50.962  0.00  0.00    -0.265 OA
ATOM     13  N   UNL d   1     -42.288-123.036 -50.717  0.00  0.00    -0.204 NA
BRANCH  13  14
ATOM     14  C   UNL d   1     -42.461-123.494 -50.052  0.00  0.00     0.128 C 
BRANCH  14  15
ATOM     15  C   UNL d   1     -42.956-123.202 -49.460  0.00  0.00     0.137 C 
BRANCH  15  16
ATOM     16  O   UNL d   1     -43.000-123.582 -48.731  0.00  0.00    -0.325 OA
ATOM     17  C   UNL d   1     -42.671-123.233 -48.060  0.00  0.00     0.182 C 
ENDBRANCH  15  16
ENDBRANCH  14  15
ENDBRANCH  13  14
ENDBRANCH   1  11
TORSDOF 4
ENDMDL
MODEL 3
REMARK VINA RESULT:      -3.1      1.626      2.393
REMARK  4 active torsions:
REMARK  status: ('A' for Active; 'I' for Inactive)
REMARK    1  A    between atoms: C_6  and  C_1 
REMARK       I    between atoms: N_9  and  C_6 
REMARK    2  A    between atoms: C_13  and  N_9 
REMARK    3  A    between atoms: O_12  and  C_14 
REMARK    4  A    between atoms: C_14  and  C_13 
ROOT
ATOM      1  C   UNL d   1     -41.496-122.664 -52.341  0.00  0.00     0.084 A 
ATOM      2  C   UNL d   1     -41.274-123.452 -52.462  0.00  0.00     0.137 A 
ATOM      3  S   UNL d   1     -41.220-123.816 -51.723  0.00  0.00    -0.066 SA
ATOM      4  C   UNL d   1     -41.578-122.546 -51.532  0.00  0.00     0.013 A 
ATOM      5  C   UNL d   1     -41.410-123.250 -51.150  0.00  0.00     0.031 A 
ATOM      6  N   UNL d   1     -41.131-123.814 -53.196  0.00  0.00    -0.141 N 
ATOM      7  C   UNL d   1     -41.787-121.879 -51.090  0.00  0.00     0.001 A 
ATOM      8  C   UNL d   1     -41.445-123.305 -50.326  0.00  0.00     0.006 A 
ATOM      9  C   UNL d   1     -41.823-121.931 -50.266  0.00  0.00     0.000 A 
ATOM     10  C   UNL d   1     -41.653-122.642 -49.888  0.00  0.00     0.001 A 
ENDROOT
BRANCH   1  11
ATOM     11  C   UNL d   1     -41.613-122.101 -52.937  0.00  0.00     0.281 C 
ATOM     12  O   UNL d   1     -41.273-121.354 -52.868  0.00  0.00    -0.265 OA
ATOM     13  N   UNL d   1     -42.067-122.282 -53.600  0.00  0.00    -0.204 NA
BRANCH  13  14
ATOM     14  C   UNL d   1     -42.183-121.720 -54.195  0.00  0.00     0.128 C 
BRANCH  14  15
ATOM     15  C   UNL d   1     -42.609-121.913 -54.874  0.00  0.00     0.137 C 
BRANCH  15  16
ATOM     16  O   UNL d   1     -42.467-121.514 -55.580  0.00  0.00    -0.325 OA
ATOM     17  C   UNL d   1     -42.353-121.935 -56.281  0.00  0.00     0.182 C 
ENDBRANCH  15  16
ENDBRANCH  14  15
ENDBRANCH  13  14
ENDBRANCH   1  11
TORSDOF 4
ENDMDL
