MODEL 1
REMARK VINA RESULT:      48.6      0.000      0.000
REMARK  8 active torsions:
REMARK  status: ('A' for Active; 'I' for Inactive)
REMARK    1  A    between atoms: N_3  and  C_1 
REMARK       I    between atoms: C_8  and  N_3 
REMARK    2  A    between atoms: O_12  and  C_4 
REMARK    3  A    between atoms: S_20  and  C_5 
REMARK    4  A    between atoms: C_13  and  C_8 
REMARK    5  A    between atoms: C_9  and  O_12 
REMARK    6  A    between atoms: C_14  and  C_9 
REMARK    7  A    between atoms: C_16  and  C_28 
REMARK    8  A    between atoms: C_28  and  S_20 
ROOT
ATOM      1  C   UNL d   1      45.670 -17.244  43.895  0.00  0.00     0.167 A 
ATOM      2  C   UNL d   1      45.541 -18.053  43.953  0.00  0.00     0.222 A 
ATOM      3  C   UNL d   1      45.823 -18.539  43.342  0.00  0.00     0.069 A 
ATOM      4  C   UNL d   1      46.068 -16.921  43.250  0.00  0.00     0.151 A 
ATOM      5  C   UNL d   1      46.221 -18.216  42.697  0.00  0.00     0.110 A 
ATOM      6  O   UNL d   1      46.341 -17.404  42.656  0.00  0.00    -0.302 OA
ATOM      7  O   UNL d   1      45.147 -18.373  44.592  0.00  0.00    -0.284 OA
ENDROOT
BRANCH   5   8
ATOM      8  C   UNL d   1      46.497 -18.704  42.096  0.00  0.00     0.062 C 
BRANCH   8   9
ATOM      9  S   UNL d   1      46.598 -18.399  41.337  0.00  0.00    -0.057 SA
BRANCH   9  10
ATOM     10  C   UNL d   1      46.214 -18.016  40.563  0.00  0.00     0.166 A 
ATOM     11  S   UNL d   1      46.330 -17.487  39.942  0.00  0.00    -0.006 SA
ATOM     12  C   UNL d   1      45.651 -17.487  39.471  0.00  0.00     0.269 A 
ATOM     13  N   UNL d   1      45.113 -18.021  39.806  0.00  0.00    -0.107 NA
ATOM     14  N   UNL d   1      45.461 -18.347  40.480  0.00  0.00    -0.132 NA
BRANCH  12  15
ATOM     15  N   UNL d   1      45.304 -17.161  38.799  0.00  0.00    -0.337 NA
ATOM     16  C   UNL d   1      44.957 -16.835  38.126  0.00  0.00     0.330 C 
ATOM     17  O   UNL d   1      44.524 -17.530  38.023  0.00  0.00    -0.251 OA
BRANCH  16  18
ATOM     18  C   UNL d   1      45.017 -16.115  37.724  0.00  0.00     0.070 A 
ATOM     19  C   UNL d   1      44.656 -15.493  37.321  0.00  0.00     0.006 A 
ATOM     20  C   UNL d   1      45.488 -15.494  37.434  0.00  0.00     0.006 A 
ENDBRANCH  16  18
ENDBRANCH  12  15
ENDBRANCH   9  10
ENDBRANCH   8   9
ENDBRANCH   5   8
BRANCH   1  21
ATOM     21  O   UNL d   1      45.392 -16.748  44.500  0.00  0.00    -0.268 OA
BRANCH  21  22
ATOM     22  C   UNL d   1      45.834 -16.083  44.722  0.00  0.00     0.300 C 
ATOM     23  O   UNL d   1      46.647 -16.159  44.870  0.00  0.00    -0.259 OA
BRANCH  22  24
ATOM     24  C   UNL d   1      45.455 -15.338  44.797  0.00  0.00     0.064 A 
ATOM     25  C   UNL d   1      45.912 -14.652  44.829  0.00  0.00     0.005 A 
ATOM     26  C   UNL d   1      45.541 -13.903  44.904  0.00  0.00     0.000 A 
ATOM     27  C   UNL d   1      46.005 -13.222  44.936  0.00  0.00     0.000 C 
ATOM     28  C   UNL d   1      44.714 -13.868  44.945  0.00  0.00     0.000 A 
ATOM     29  C   UNL d   1      44.251 -14.564  44.912  0.00  0.00     0.000 A 
ATOM     30  C   UNL d   1      44.630 -15.285  44.839  0.00  0.00     0.005 A 
ATOM     31  C   UNL d   1      43.436 -14.503  44.954  0.00  0.00     0.000 C 
ENDBRANCH  22  24
ENDBRANCH  21  22
ENDBRANCH   1  21
TORSDOF 8
ENDMDL
MODEL 2
REMARK VINA RESULT:      50.9      1.660      5.815
REMARK  8 active torsions:
REMARK  status: ('A' for Active; 'I' for Inactive)
REMARK    1  A    between atoms: N_3  and  C_1 
REMARK       I    between atoms: C_8  and  N_3 
REMARK    2  A    between atoms: O_12  and  C_4 
REMARK    3  A    between atoms: S_20  and  C_5 
REMARK    4  A    between atoms: C_13  and  C_8 
REMARK    5  A    between atoms: C_9  and  O_12 
REMARK    6  A    between atoms: C_14  and  C_9 
REMARK    7  A    between atoms: C_16  and  C_28 
REMARK    8  A    between atoms: C_28  and  S_20 
ROOT
ATOM      1  C   UNL d   1      45.603 -17.665  39.481  0.00  0.00     0.167 A 
ATOM      2  C   UNL d   1      45.030 -17.871  40.032  0.00  0.00     0.222 A 
ATOM      3  C   UNL d   1      45.279 -18.227  40.740  0.00  0.00     0.069 A 
ATOM      4  C   UNL d   1      46.403 -17.806  39.624  0.00  0.00     0.151 A 
ATOM      5  C   UNL d   1      46.078 -18.368  40.883  0.00  0.00     0.110 A 
ATOM      6  O   UNL d   1      46.637 -18.155  40.320  0.00  0.00    -0.302 OA
ATOM      7  O   UNL d   1      44.239 -17.731  39.891  0.00  0.00    -0.284 OA
ENDROOT
BRANCH   5   8
ATOM      8  C   UNL d   1      46.315 -18.720  41.586  0.00  0.00     0.062 C 
BRANCH   8   9
ATOM      9  S   UNL d   1      46.494 -18.248  42.239  0.00  0.00    -0.057 SA
BRANCH   9  10
ATOM     10  C   UNL d   1      46.278 -17.505  42.781  0.00  0.00     0.166 A 
ATOM     11  S   UNL d   1      46.475 -16.729  42.973  0.00  0.00    -0.006 SA
ATOM     12  C   UNL d   1      45.954 -16.466  43.558  0.00  0.00     0.269 A 
ATOM     13  N   UNL d   1      45.432 -17.086  43.726  0.00  0.00    -0.107 NA
ATOM     14  N   UNL d   1      45.632 -17.727  43.246  0.00  0.00    -0.132 NA
BRANCH  12  15
ATOM     15  N   UNL d   1      45.755 -15.826  44.036  0.00  0.00    -0.337 NA
ATOM     16  C   UNL d   1      45.555 -15.185  44.516  0.00  0.00     0.330 C 
ATOM     17  O   UNL d   1      45.060 -15.678  44.954  0.00  0.00    -0.251 OA
BRANCH  16  18
ATOM     18  C   UNL d   1      45.764 -14.385  44.544  0.00  0.00     0.070 A 
ATOM     19  C   UNL d   1      45.784 -13.643  44.186  0.00  0.00     0.006 A 
ATOM     20  C   UNL d   1      46.106 -13.748  44.954  0.00  0.00     0.006 A 
ENDBRANCH  16  18
ENDBRANCH  12  15
ENDBRANCH   9  10
ENDBRANCH   8   9
ENDBRANCH   5   8
BRANCH   1  21
ATOM     21  O   UNL d   1      45.368 -17.309  38.769  0.00  0.00    -0.268 OA
BRANCH  21  22
ATOM     22  C   UNL d   1      45.786 -16.656  38.477  0.00  0.00     0.300 C 
ATOM     23  O   UNL d   1      46.518 -16.453  38.810  0.00  0.00    -0.259 OA
BRANCH  22  24
ATOM     24  C   UNL d   1      45.465 -16.206  37.846  0.00  0.00     0.064 A 
ATOM     25  C   UNL d   1      45.886 -15.558  37.555  0.00  0.00     0.005 A 
ATOM     26  C   UNL d   1      45.573 -15.102  36.924  0.00  0.00     0.000 A 
ATOM     27  C   UNL d   1      46.000 -14.457  36.638  0.00  0.00     0.000 C 
ATOM     28  C   UNL d   1      44.839 -15.314  36.603  0.00  0.00     0.000 A 
ATOM     29  C   UNL d   1      44.412 -15.971  36.898  0.00  0.00     0.000 A 
ATOM     30  C   UNL d   1      44.733 -16.404  37.514  0.00  0.00     0.005 A 
ATOM     31  C   UNL d   1      43.689 -16.160  36.564  0.00  0.00     0.000 C 
ENDBRANCH  22  24
ENDBRANCH  21  22
ENDBRANCH   1  21
TORSDOF 8
ENDMDL
