MODEL 1
REMARK VINA RESULT:      -6.8      0.000      0.000
REMARK  4 active torsions:
REMARK  status: ('A' for Active; 'I' for Inactive)
REMARK    1  A    between atoms: C_7  and  C_3 
REMARK    2  A    between atoms: S_6  and  C_4 
REMARK    3  A    between atoms: C_9  and  S_6 
REMARK    4  A    between atoms: C_10  and  C_9 
ROOT
ATOM      1  O   UNL d   1     -48.298  14.118  22.966  0.00  0.00    -0.263 OA
ATOM      2  N   UNL d   1     -48.073  15.392  22.573  0.00  0.00    -0.120 NA
ATOM      3  C   UNL d   1     -48.666  14.847  22.813  0.00  0.00     0.205 A 
ATOM      4  C   UNL d   1     -47.482  14.204  22.824  0.00  0.00     0.236 A 
ATOM      5  N   UNL d   1     -47.354  14.984  22.585  0.00  0.00    -0.114 NA
ENDROOT
BRANCH   4   6
ATOM      6  S   UNL d   1     -46.913  13.619  22.907  0.00  0.00    -0.041 SA
BRANCH   6   7
ATOM      7  C   UNL d   1     -47.099  12.891  23.277  0.00  0.00     0.039 C 
BRANCH   7   8
ATOM      8  C   UNL d   1     -46.557  12.297  23.304  0.00  0.00     0.007 A 
ATOM      9  C   UNL d   1     -46.742  11.575  23.663  0.00  0.00     0.001 A 
ATOM     10  C   UNL d   1     -46.195  10.958  23.698  0.00  0.00     0.000 A 
ATOM     11  C   UNL d   1     -45.446  11.064  23.365  0.00  0.00     0.000 A 
ATOM     12  C   UNL d   1     -45.257  11.799  22.999  0.00  0.00     0.000 A 
ATOM     13  C   UNL d   1     -45.805  12.401  22.971  0.00  0.00     0.001 A 
ENDBRANCH   7   8
ENDBRANCH   6   7
ENDBRANCH   4   6
BRANCH   3  14
ATOM     14  C   UNL d   1     -49.458  15.053  22.869  0.00  0.00     0.046 A 
ATOM     15  C   UNL d   1     -49.698  15.595  23.449  0.00  0.00     0.024 A 
ATOM     16  C   UNL d   1     -50.490  15.804  23.509  0.00  0.00     0.099 A 
ATOM     17  N   UNL d   1     -51.050  15.470  22.985  0.00  0.00    -0.242 NA
ATOM     18  C   UNL d   1     -50.791  14.948  22.432  0.00  0.00     0.099 A 
ATOM     19  C   UNL d   1     -49.999  14.730  22.362  0.00  0.00     0.024 A 
ENDBRANCH   3  14
TORSDOF 4
ENDMDL
MODEL 2
REMARK VINA RESULT:      -6.7      1.633      4.739
REMARK  4 active torsions:
REMARK  status: ('A' for Active; 'I' for Inactive)
REMARK    1  A    between atoms: C_7  and  C_3 
REMARK    2  A    between atoms: S_6  and  C_4 
REMARK    3  A    between atoms: C_9  and  S_6 
REMARK    4  A    between atoms: C_10  and  C_9 
ROOT
ATOM      1  O   UNL d   1     -46.892  13.079  22.422  0.00  0.00    -0.263 OA
ATOM      2  N   UNL d   1     -46.152  14.065  22.975  0.00  0.00    -0.120 NA
ATOM      3  C   UNL d   1     -46.114  13.319  22.591  0.00  0.00     0.205 A 
ATOM      4  C   UNL d   1     -47.412  13.667  22.697  0.00  0.00     0.236 A 
ATOM      5  N   UNL d   1     -46.952  14.265  23.033  0.00  0.00    -0.114 NA
ENDROOT
BRANCH   4   6
ATOM      6  S   UNL d   1     -48.230  13.653  22.643  0.00  0.00    -0.041 SA
BRANCH   6   7
ATOM      7  C   UNL d   1     -48.616  13.880  21.935  0.00  0.00     0.039 C 
BRANCH   7   8
ATOM      8  C   UNL d   1     -49.416  13.817  21.868  0.00  0.00     0.007 A 
ATOM      9  C   UNL d   1     -49.758  13.136  21.547  0.00  0.00     0.001 A 
ATOM     10  C   UNL d   1     -50.576  13.059  21.473  0.00  0.00     0.000 A 
ATOM     11  C   UNL d   1     -51.064  13.677  21.725  0.00  0.00     0.000 A 
ATOM     12  C   UNL d   1     -50.715  14.371  22.052  0.00  0.00     0.000 A 
ATOM     13  C   UNL d   1     -49.907  14.435  22.120  0.00  0.00     0.001 A 
ENDBRANCH   7   8
ENDBRANCH   6   7
ENDBRANCH   4   6
BRANCH   3  14
ATOM     14  C   UNL d   1     -45.406  12.938  22.434  0.00  0.00     0.046 A 
ATOM     15  C   UNL d   1     -45.228  12.230  22.827  0.00  0.00     0.024 A 
ATOM     16  C   UNL d   1     -44.518  11.846  22.673  0.00  0.00     0.099 A 
ATOM     17  N   UNL d   1     -43.980  12.170  22.122  0.00  0.00    -0.242 NA
ATOM     18  C   UNL d   1     -44.176  12.857  21.755  0.00  0.00     0.099 A 
ATOM     19  C   UNL d   1     -44.884  13.252  21.901  0.00  0.00     0.024 A 
ENDBRANCH   3  14
TORSDOF 4
ENDMDL
MODEL 3
REMARK VINA RESULT:      -6.7      2.404      5.132
REMARK  4 active torsions:
REMARK  status: ('A' for Active; 'I' for Inactive)
REMARK    1  A    between atoms: C_7  and  C_3 
REMARK    2  A    between atoms: S_6  and  C_4 
REMARK    3  A    between atoms: C_9  and  S_6 
REMARK    4  A    between atoms: C_10  and  C_9 
ROOT
ATOM      1  O   UNL d   1     -46.679  11.530  23.401  0.00  0.00    -0.263 OA
ATOM      2  N   UNL d   1     -45.821  12.573  23.474  0.00  0.00    -0.120 NA
ATOM      3  C   UNL d   1     -45.874  11.737  23.407  0.00  0.00     0.205 A 
ATOM      4  C   UNL d   1     -47.127  12.229  23.463  0.00  0.00     0.236 A 
ATOM      5  N   UNL d   1     -46.596  12.860  23.507  0.00  0.00    -0.114 NA
ENDROOT
BRANCH   4   6
ATOM      6  S   UNL d   1     -47.946  12.278  23.477  0.00  0.00    -0.041 SA
BRANCH   6   7
ATOM      7  C   UNL d   1     -48.406  11.916  22.879  0.00  0.00     0.039 C 
BRANCH   7   8
ATOM      8  C   UNL d   1     -49.196  12.065  22.825  0.00  0.00     0.007 A 
ATOM      9  C   UNL d   1     -49.494  12.531  22.211  0.00  0.00     0.001 A 
ATOM     10  C   UNL d   1     -50.301  12.692  22.144  0.00  0.00     0.000 A 
ATOM     11  C   UNL d   1     -50.822  12.379  22.705  0.00  0.00     0.000 A 
ATOM     12  C   UNL d   1     -50.517  11.904  23.331  0.00  0.00     0.000 A 
ATOM     13  C   UNL d   1     -49.720  11.753  23.386  0.00  0.00     0.001 A 
ENDBRANCH   7   8
ENDBRANCH   6   7
ENDBRANCH   4   6
BRANCH   3  14
ATOM     14  C   UNL d   1     -45.212  11.256  23.360  0.00  0.00     0.046 A 
ATOM     15  C   UNL d   1     -44.533  11.532  22.974  0.00  0.00     0.024 A 
ATOM     16  C   UNL d   1     -43.868  11.054  22.924  0.00  0.00     0.099 A 
ATOM     17  N   UNL d   1     -43.878  10.290  23.264  0.00  0.00    -0.242 NA
ATOM     18  C   UNL d   1     -44.548  10.045  23.633  0.00  0.00     0.099 A 
ATOM     19  C   UNL d   1     -45.222  10.516  23.689  0.00  0.00     0.024 A 
ENDBRANCH   3  14
TORSDOF 4
ENDMDL
MODEL 4
REMARK VINA RESULT:      -5.9      1.299      2.090
REMARK  4 active torsions:
REMARK  status: ('A' for Active; 'I' for Inactive)
REMARK    1  A    between atoms: C_7  and  C_3 
REMARK    2  A    between atoms: S_6  and  C_4 
REMARK    3  A    between atoms: C_9  and  S_6 
REMARK    4  A    between atoms: C_10  and  C_9 
ROOT
ATOM      1  O   UNL d   1     -47.267  12.774  22.873  0.00  0.00    -0.263 OA
ATOM      2  N   UNL d   1     -46.856  14.044  23.091  0.00  0.00    -0.120 NA
ATOM      3  C   UNL d   1     -47.487  13.572  22.797  0.00  0.00     0.205 A 
ATOM      4  C   UNL d   1     -46.507  12.745  23.210  0.00  0.00     0.236 A 
ATOM      5  N   UNL d   1     -46.264  13.523  23.340  0.00  0.00    -0.114 NA
ENDROOT
BRANCH   4   6
ATOM      6  S   UNL d   1     -46.080  12.065  23.382  0.00  0.00    -0.041 SA
BRANCH   6   7
ATOM      7  C   UNL d   1     -45.373  11.889  22.968  0.00  0.00     0.039 C 
BRANCH   7   8
ATOM      8  C   UNL d   1     -44.925  11.254  23.179  0.00  0.00     0.007 A 
ATOM      9  C   UNL d   1     -44.103  11.273  23.092  0.00  0.00     0.001 A 
ATOM     10  C   UNL d   1     -43.632  10.630  23.304  0.00  0.00     0.000 A 
ATOM     11  C   UNL d   1     -43.991   9.951  23.610  0.00  0.00     0.000 A 
ATOM     12  C   UNL d   1     -44.829   9.931  23.698  0.00  0.00     0.000 A 
ATOM     13  C   UNL d   1     -45.283  10.573  23.485  0.00  0.00     0.001 A 
ENDBRANCH   7   8
ENDBRANCH   6   7
ENDBRANCH   4   6
BRANCH   3  14
ATOM     14  C   UNL d   1     -48.178  13.896  22.499  0.00  0.00     0.046 A 
ATOM     15  C   UNL d   1     -48.637  13.458  21.965  0.00  0.00     0.024 A 
ATOM     16  C   UNL d   1     -49.330  13.779  21.664  0.00  0.00     0.099 A 
ATOM     17  N   UNL d   1     -49.570  14.546  21.896  0.00  0.00    -0.242 NA
ATOM     18  C   UNL d   1     -49.108  14.949  22.415  0.00  0.00     0.099 A 
ATOM     19  C   UNL d   1     -48.410  14.638  22.724  0.00  0.00     0.024 A 
ENDBRANCH   3  14
TORSDOF 4
ENDMDL
MODEL 5
REMARK VINA RESULT:      -5.9      8.603      9.226
REMARK  4 active torsions:
REMARK  status: ('A' for Active; 'I' for Inactive)
REMARK    1  A    between atoms: C_7  and  C_3 
REMARK    2  A    between atoms: S_6  and  C_4 
REMARK    3  A    between atoms: C_9  and  S_6 
REMARK    4  A    between atoms: C_10  and  C_9 
ROOT
ATOM      1  O   UNL d   1     -40.221  14.993  19.126  0.00  0.00    -0.263 OA
ATOM      2  N   UNL d   1     -40.961  14.053  18.496  0.00  0.00    -0.120 NA
ATOM      3  C   UNL d   1     -40.543  14.774  18.391  0.00  0.00     0.205 A 
ATOM      4  C   UNL d   1     -40.435  14.417  19.686  0.00  0.00     0.236 A 
ATOM      5  N   UNL d   1     -40.886  13.847  19.294  0.00  0.00    -0.114 NA
ENDROOT
BRANCH   4   6
ATOM      6  S   UNL d   1     -40.233  14.417  20.481  0.00  0.00    -0.041 SA
BRANCH   6   7
ATOM      7  C   UNL d   1     -39.431  14.374  20.718  0.00  0.00     0.039 C 
BRANCH   7   8
ATOM      8  C   UNL d   1     -39.237  14.374  21.500  0.00  0.00     0.007 A 
ATOM      9  C   UNL d   1     -39.201  15.084  21.923  0.00  0.00     0.001 A 
ATOM     10  C   UNL d   1     -39.003  15.099  22.724  0.00  0.00     0.000 A 
ATOM     11  C   UNL d   1     -38.837  14.388  23.111  0.00  0.00     0.000 A 
ATOM     12  C   UNL d   1     -38.873  13.665  22.680  0.00  0.00     0.000 A 
ATOM     13  C   UNL d   1     -39.070  13.663  21.890  0.00  0.00     0.001 A 
ENDBRANCH   7   8
ENDBRANCH   6   7
ENDBRANCH   4   6
BRANCH   3  14
ATOM     14  C   UNL d   1     -40.493  15.153  17.666  0.00  0.00     0.046 A 
ATOM     15  C   UNL d   1     -41.159  15.541  17.362  0.00  0.00     0.024 A 
ATOM     16  C   UNL d   1     -41.113  15.922  16.636  0.00  0.00     0.099 A 
ATOM     17  N   UNL d   1     -40.395  15.917  16.207  0.00  0.00    -0.242 NA
ATOM     18  C   UNL d   1     -39.765  15.534  16.524  0.00  0.00     0.099 A 
ATOM     19  C   UNL d   1     -39.798  15.148  17.251  0.00  0.00     0.024 A 
ENDBRANCH   3  14
TORSDOF 4
ENDMDL
MODEL 6
REMARK VINA RESULT:      -5.6      8.619      9.651
REMARK  4 active torsions:
REMARK  status: ('A' for Active; 'I' for Inactive)
REMARK    1  A    between atoms: C_7  and  C_3 
REMARK    2  A    between atoms: S_6  and  C_4 
REMARK    3  A    between atoms: C_9  and  S_6 
REMARK    4  A    between atoms: C_10  and  C_9 
ROOT
ATOM      1  O   UNL d   1     -39.428  14.618  20.707  0.00  0.00    -0.263 OA
ATOM      2  N   UNL d   1     -40.445  14.130  21.454  0.00  0.00    -0.120 NA
ATOM      3  C   UNL d   1     -39.622  14.304  21.452  0.00  0.00     0.205 A 
ATOM      4  C   UNL d   1     -40.121  14.642  20.246  0.00  0.00     0.236 A 
ATOM      5  N   UNL d   1     -40.735  14.343  20.709  0.00  0.00    -0.114 NA
ENDROOT
BRANCH   4   6
ATOM      6  S   UNL d   1     -40.178  14.914  19.474  0.00  0.00    -0.041 SA
BRANCH   6   7
ATOM      7  C   UNL d   1     -40.377  14.391  18.851  0.00  0.00     0.039 C 
BRANCH   7   8
ATOM      8  C   UNL d   1     -40.331  14.634  18.085  0.00  0.00     0.007 A 
ATOM      9  C   UNL d   1     -40.899  15.147  17.772  0.00  0.00     0.001 A 
ATOM     10  C   UNL d   1     -40.864  15.404  16.989  0.00  0.00     0.000 A 
ATOM     11  C   UNL d   1     -40.246  15.142  16.506  0.00  0.00     0.000 A 
ATOM     12  C   UNL d   1     -39.667  14.620  16.825  0.00  0.00     0.000 A 
ATOM     13  C   UNL d   1     -39.712  14.373  17.599  0.00  0.00     0.001 A 
ENDBRANCH   7   8
ENDBRANCH   6   7
ENDBRANCH   4   6
BRANCH   3  14
ATOM     14  C   UNL d   1     -39.141  14.166  22.101  0.00  0.00     0.046 A 
ATOM     15  C   UNL d   1     -38.966  14.790  22.619  0.00  0.00     0.024 A 
ATOM     16  C   UNL d   1     -38.485  14.657  23.270  0.00  0.00     0.099 A 
ATOM     17  N   UNL d   1     -38.173  13.893  23.409  0.00  0.00    -0.242 NA
ATOM     18  C   UNL d   1     -38.358  13.306  22.893  0.00  0.00     0.099 A 
ATOM     19  C   UNL d   1     -38.840  13.427  22.235  0.00  0.00     0.024 A 
ENDBRANCH   3  14
TORSDOF 4
ENDMDL
MODEL 7
REMARK VINA RESULT:      -5.6      8.582     10.237
REMARK  4 active torsions:
REMARK  status: ('A' for Active; 'I' for Inactive)
REMARK    1  A    between atoms: C_7  and  C_3 
REMARK    2  A    between atoms: S_6  and  C_4 
REMARK    3  A    between atoms: C_9  and  S_6 
REMARK    4  A    between atoms: C_10  and  C_9 
ROOT
ATOM      1  O   UNL d   1     -39.704  14.619  18.728  0.00  0.00    -0.263 OA
ATOM      2  N   UNL d   1     -40.942  14.181  19.052  0.00  0.00    -0.120 NA
ATOM      3  C   UNL d   1     -40.235  14.516  19.359  0.00  0.00     0.205 A 
ATOM      4  C   UNL d   1     -40.073  14.351  18.032  0.00  0.00     0.236 A 
ATOM      5  N   UNL d   1     -40.827  14.086  18.238  0.00  0.00    -0.114 NA
ENDROOT
BRANCH   4   6
ATOM      6  S   UNL d   1     -39.745  14.352  17.280  0.00  0.00    -0.041 SA
BRANCH   6   7
ATOM      7  C   UNL d   1     -38.915  14.308  17.176  0.00  0.00     0.039 C 
BRANCH   7   8
ATOM      8  C   UNL d   1     -38.595  14.321  16.437  0.00  0.00     0.007 A 
ATOM      9  C   UNL d   1     -38.596  15.018  15.991  0.00  0.00     0.001 A 
ATOM     10  C   UNL d   1     -38.272  15.045  15.233  0.00  0.00     0.000 A 
ATOM     11  C   UNL d   1     -37.940  14.360  14.912  0.00  0.00     0.000 A 
ATOM     12  C   UNL d   1     -37.940  13.649  15.366  0.00  0.00     0.000 A 
ATOM     13  C   UNL d   1     -38.262  13.635  16.113  0.00  0.00     0.001 A 
ENDBRANCH   7   8
ENDBRANCH   6   7
ENDBRANCH   4   6
BRANCH   3  14
ATOM     14  C   UNL d   1     -40.140  14.692  20.154  0.00  0.00     0.046 A 
ATOM     15  C   UNL d   1     -39.742  14.156  20.645  0.00  0.00     0.024 A 
ATOM     16  C   UNL d   1     -39.644  14.328  21.442  0.00  0.00     0.099 A 
ATOM     17  N   UNL d   1     -39.946  15.042  21.755  0.00  0.00    -0.242 NA
ATOM     18  C   UNL d   1     -40.328  15.544  21.257  0.00  0.00     0.099 A 
ATOM     19  C   UNL d   1     -40.433  15.383  20.456  0.00  0.00     0.024 A 
ENDBRANCH   3  14
TORSDOF 4
ENDMDL
MODEL 8
REMARK VINA RESULT:      -5.5      8.521     10.381
REMARK  4 active torsions:
REMARK  status: ('A' for Active; 'I' for Inactive)
REMARK    1  A    between atoms: C_7  and  C_3 
REMARK    2  A    between atoms: S_6  and  C_4 
REMARK    3  A    between atoms: C_9  and  S_6 
REMARK    4  A    between atoms: C_10  and  C_9 
ROOT
ATOM      1  O   UNL d   1     -39.414  14.772  17.980  0.00  0.00    -0.263 OA
ATOM      2  N   UNL d   1     -40.070  13.685  17.514  0.00  0.00    -0.120 NA
ATOM      3  C   UNL d   1     -39.429  14.210  17.368  0.00  0.00     0.205 A 
ATOM      4  C   UNL d   1     -40.037  14.603  18.505  0.00  0.00     0.236 A 
ATOM      5  N   UNL d   1     -40.432  13.939  18.213  0.00  0.00    -0.114 NA
ENDROOT
BRANCH   4   6
ATOM      6  S   UNL d   1     -40.222  15.021  19.186  0.00  0.00    -0.041 SA
BRANCH   6   7
ATOM      7  C   UNL d   1     -40.308  14.627  19.919  0.00  0.00     0.039 C 
BRANCH   7   8
ATOM      8  C   UNL d   1     -40.150  15.010  20.609  0.00  0.00     0.007 A 
ATOM      9  C   UNL d   1     -40.708  15.522  20.943  0.00  0.00     0.001 A 
ATOM     10  C   UNL d   1     -40.559  15.921  21.649  0.00  0.00     0.000 A 
ATOM     11  C   UNL d   1     -39.835  15.807  22.032  0.00  0.00     0.000 A 
ATOM     12  C   UNL d   1     -39.266  15.286  21.692  0.00  0.00     0.000 A 
ATOM     13  C   UNL d   1     -39.425  14.897  20.995  0.00  0.00     0.001 A 
ENDBRANCH   7   8
ENDBRANCH   6   7
ENDBRANCH   4   6
BRANCH   3  14
ATOM     14  C   UNL d   1     -38.936  14.134  16.717  0.00  0.00     0.046 A 
ATOM     15  C   UNL d   1     -38.527  13.423  16.597  0.00  0.00     0.024 A 
ATOM     16  C   UNL d   1     -38.032  13.342  15.947  0.00  0.00     0.099 A 
ATOM     17  N   UNL d   1     -37.943  13.977  15.409  0.00  0.00    -0.242 NA
ATOM     18  C   UNL d   1     -38.351  14.655  15.549  0.00  0.00     0.099 A 
ATOM     19  C   UNL d   1     -38.851  14.748  16.197  0.00  0.00     0.024 A 
ENDBRANCH   3  14
TORSDOF 4
ENDMDL
