MODEL 1
REMARK VINA RESULT:       4.8      0.000      0.000
REMARK  6 active torsions:
REMARK  status: ('A' for Active; 'I' for Inactive)
REMARK    1  A    between atoms: C_9  and  N_1 
REMARK    2  A    between atoms: S_10  and  C_6 
REMARK    3  A    between atoms: C_16  and  S_10 
REMARK    4  A    between atoms: C_12  and  C_16 
REMARK    5  A    between atoms: O_20  and  C_12 
REMARK    6  A    between atoms: C_22  and  O_20 
ROOT
ATOM      1  N   UNL d   1      58.863  -5.580  28.470  0.00  0.00    -0.212 N 
ATOM      2  C   UNL d   1      58.577  -4.810  28.477  0.00  0.00     0.169 A 
ATOM      3  N   UNL d   1      59.673  -5.560  28.467  0.00  0.00    -0.162 NA
ATOM      4  C   UNL d   1      59.228  -4.303  28.478  0.00  0.00     0.081 A 
ATOM      5  C   UNL d   1      59.908  -4.766  28.472  0.00  0.00     0.126 A 
ATOM      6  C   UNL d   1      59.116  -3.489  28.484  0.00  0.00     0.117 A 
ATOM      7  N   UNL d   1      57.814  -4.504  28.482  0.00  0.00    -0.205 NA
ATOM      8  N   UNL d   1      58.351  -3.179  28.490  0.00  0.00    -0.217 NA
ATOM      9  C   UNL d   1      57.701  -3.686  28.489  0.00  0.00     0.201 A 
ENDROOT
BRANCH   1  10
ATOM     10  C   UNL d   1      58.334  -6.220  28.468  0.00  0.00     0.085 A 
ATOM     11  C   UNL d   1      58.621  -6.986  28.475  0.00  0.00     0.020 A 
ATOM     12  C   UNL d   1      58.105  -7.617  28.473  0.00  0.00     0.013 A 
ATOM     13  C   UNL d   1      57.280  -7.488  28.463  0.00  0.00     0.058 A 
ATOM     14  C   UNL d   1      57.000  -6.710  28.455  0.00  0.00     0.013 A 
ATOM     15 CL   UNL d   1      56.752  -8.128  28.460  0.00  0.00    -0.082 Cl
ATOM     16  C   UNL d   1      57.523  -6.082  28.458  0.00  0.00     0.020 A 
ENDBRANCH   1  10
BRANCH   6  17
ATOM     17  S   UNL d   1      59.766  -2.982  28.485  0.00  0.00    -0.062 SA
BRANCH  17  18
ATOM     18  C   UNL d   1      59.655  -2.176  28.541  0.00  0.00     0.105 C 
BRANCH  18  19
ATOM     19  C   UNL d   1      60.305  -1.668  28.523  0.00  0.00     0.307 C 
ATOM     20  O   UNL d   1      61.070  -1.976  28.476  0.00  0.00    -0.258 OA
BRANCH  19  21
ATOM     21  O   UNL d   1      60.191  -0.850  28.551  0.00  0.00    -0.271 OA
BRANCH  21  22
ATOM     22  C   UNL d   1      60.841  -0.344  28.594  0.00  0.00     0.126 C 
ATOM     23  C   UNL d   1      60.741   0.467  28.476  0.00  0.00     0.029 C 
ENDBRANCH  21  22
ENDBRANCH  19  21
ENDBRANCH  18  19
ENDBRANCH  17  18
ENDBRANCH   6  17
TORSDOF 6
ENDMDL
MODEL 2
REMARK VINA RESULT:       4.9      1.321      1.667
REMARK  6 active torsions:
REMARK  status: ('A' for Active; 'I' for Inactive)
REMARK    1  A    between atoms: C_9  and  N_1 
REMARK    2  A    between atoms: S_10  and  C_6 
REMARK    3  A    between atoms: C_16  and  S_10 
REMARK    4  A    between atoms: C_12  and  C_16 
REMARK    5  A    between atoms: O_20  and  C_12 
REMARK    6  A    between atoms: C_22  and  O_20 
ROOT
ATOM      1  N   UNL d   1      60.429  -5.288  28.472  0.00  0.00    -0.212 N 
ATOM      2  C   UNL d   1      59.798  -4.761  28.474  0.00  0.00     0.169 A 
ATOM      3  N   UNL d   1      61.121  -4.868  28.461  0.00  0.00    -0.162 NA
ATOM      4  C   UNL d   1      60.110  -3.998  28.465  0.00  0.00     0.081 A 
ATOM      5  C   UNL d   1      60.931  -4.061  28.457  0.00  0.00     0.126 A 
ATOM      6  C   UNL d   1      59.609  -3.347  28.465  0.00  0.00     0.117 A 
ATOM      7  N   UNL d   1      58.984  -4.874  28.483  0.00  0.00    -0.205 NA
ATOM      8  N   UNL d   1      58.791  -3.458  28.474  0.00  0.00    -0.217 NA
ATOM      9  C   UNL d   1      58.478  -4.221  28.483  0.00  0.00     0.201 A 
ENDROOT
BRANCH   1  10
ATOM     10  C   UNL d   1      60.287  -6.106  28.479  0.00  0.00     0.085 A 
ATOM     11  C   UNL d   1      60.917  -6.627  28.499  0.00  0.00     0.020 A 
ATOM     12  C   UNL d   1      60.784  -7.431  28.507  0.00  0.00     0.013 A 
ATOM     13  C   UNL d   1      60.004  -7.730  28.495  0.00  0.00     0.058 A 
ATOM     14  C   UNL d   1      59.373  -7.194  28.474  0.00  0.00     0.013 A 
ATOM     15 CL   UNL d   1      59.863  -8.548  28.502  0.00  0.00    -0.082 Cl
ATOM     16  C   UNL d   1      59.516  -6.389  28.467  0.00  0.00     0.020 A 
ENDBRANCH   1  10
BRANCH   6  17
ATOM     17  S   UNL d   1      59.921  -2.584  28.456  0.00  0.00    -0.062 SA
BRANCH  17  18
ATOM     18  C   UNL d   1      59.639  -2.022  28.975  0.00  0.00     0.105 C 
BRANCH  18  19
ATOM     19  C   UNL d   1      60.037  -1.304  29.062  0.00  0.00     0.307 C 
ATOM     20  O   UNL d   1      60.734  -1.268  29.504  0.00  0.00    -0.258 OA
BRANCH  19  21
ATOM     21  O   UNL d   1      59.738  -0.621  28.707  0.00  0.00    -0.271 OA
BRANCH  21  22
ATOM     22  C   UNL d   1      59.507   0.020  29.173  0.00  0.00     0.126 C 
ATOM     23  C   UNL d   1      59.013   0.602  28.859  0.00  0.00     0.029 C 
ENDBRANCH  21  22
ENDBRANCH  19  21
ENDBRANCH  18  19
ENDBRANCH  17  18
ENDBRANCH   6  17
TORSDOF 6
ENDMDL
