MODEL 1
REMARK VINA RESULT:       9.7      0.000      0.000
REMARK  7 active torsions:
REMARK  status: ('A' for Active; 'I' for Inactive)
REMARK    1  A    between atoms: N_15  and  C_4 
REMARK    2  A    between atoms: C_17  and  N_5 
REMARK    3  A    between atoms: C_19  and  N_10 
REMARK    4  A    between atoms: C_11  and  S_16 
REMARK    5  A    between atoms: S_16  and  C_28 
REMARK    6  A    between atoms: C_27  and  C_17 
REMARK    7  A    between atoms: C_28  and  C_27 
ROOT
ATOM      1  C   UNL d   1      58.308   0.402  34.519  0.00  0.00     0.191 A 
ATOM      2  C   UNL d   1      58.422   0.474  33.704  0.00  0.00     0.174 A 
ATOM      3  N   UNL d   1      57.502   0.267  34.674  0.00  0.00    -0.042 NA
ATOM      4  C   UNL d   1      57.120   0.258  33.929  0.00  0.00     0.722 A 
ATOM      5  N   UNL d   1      57.668   0.382  33.337  0.00  0.00    -0.136 N 
ATOM      6  N   UNL d   1      58.968   0.468  35.049  0.00  0.00    -0.239 N 
ATOM      7  C   UNL d   1      59.745   0.611  34.714  0.00  0.00     0.358 A 
ATOM      8  N   UNL d   1      59.821   0.678  33.894  0.00  0.00    -0.152 NA
ATOM      9  C   UNL d   1      59.147   0.608  33.386  0.00  0.00     0.303 A 
ATOM     10  O   UNL d   1      60.421   0.682  35.210  0.00  0.00    -0.244 OA
ATOM     11  O   UNL d   1      59.262   0.681  32.558  0.00  0.00    -0.263 OA
ATOM     12  C   UNL d   1      58.867   0.397  35.867  0.00  0.00     0.105 C 
ENDROOT
BRANCH   5  13
ATOM     13  C   UNL d   1      57.370   0.387  32.578  0.00  0.00     0.072 C 
BRANCH  13  14
ATOM     14  C   UNL d   1      57.758  -0.062  31.992  0.00  0.00     0.052 C 
ATOM     15  C   UNL d   1      57.345   0.518  31.576  0.00  0.00     0.007 C 
BRANCH  14  16
ATOM     16  C   UNL d   1      57.669   0.133  31.195  0.00  0.00     0.071 C 
BRANCH  16  17
ATOM     17  S   UNL d   1      58.072  -0.275  30.617  0.00  0.00    -0.073 SA
BRANCH  17  18
ATOM     18  C   UNL d   1      57.962  -0.098  29.819  0.00  0.00     0.215 A 
ATOM     19  N   UNL d   1      58.384  -0.417  29.188  0.00  0.00    -0.186 N 
ATOM     20  N   UNL d   1      58.097  -0.090  28.492  0.00  0.00    -0.038 NA
ATOM     21  N   UNL d   1      57.492   0.435  28.691  0.00  0.00    -0.022 NA
ATOM     22  N   UNL d   1      57.410   0.429  29.512  0.00  0.00    -0.101 NA
BRANCH  19  23
ATOM     23  C   UNL d   1      58.993  -0.970  29.245  0.00  0.00     0.087 A 
ATOM     24  C   UNL d   1      58.812  -1.773  29.237  0.00  0.00     0.019 A 
ATOM     25  C   UNL d   1      59.421  -2.327  29.294  0.00  0.00     0.002 A 
ATOM     26  C   UNL d   1      60.205  -2.077  29.359  0.00  0.00     0.000 A 
ATOM     27  C   UNL d   1      60.378  -1.266  29.367  0.00  0.00     0.002 A 
ATOM     28  C   UNL d   1      59.769  -0.712  29.309  0.00  0.00     0.019 A 
ENDBRANCH  19  23
ENDBRANCH  17  18
ENDBRANCH  16  17
ENDBRANCH  14  16
ENDBRANCH  13  14
ENDBRANCH   5  13
BRANCH   4  29
ATOM     29  N   UNL d   1      56.311   0.141  33.807  0.00  0.00    -0.136 N 
ATOM     30  C   UNL d   1      55.765   0.681  34.120  0.00  0.00     0.117 A 
ATOM     31  C   UNL d   1      54.959   0.554  33.991  0.00  0.00     0.100 A 
ATOM     32  N   UNL d   1      54.695  -0.102  33.556  0.00  0.00    -0.299 N 
ATOM     33  C   UNL d   1      55.250  -0.631  33.251  0.00  0.00     0.100 A 
ATOM     34  C   UNL d   1      53.886  -0.219  33.434  0.00  0.00     0.100 C 
ATOM     35  C   UNL d   1      56.055  -0.515  33.372  0.00  0.00     0.117 A 
ENDBRANCH   4  29
TORSDOF 7
ENDMDL
MODEL 2
REMARK VINA RESULT:       9.9      2.306      5.942
REMARK  7 active torsions:
REMARK  status: ('A' for Active; 'I' for Inactive)
REMARK    1  A    between atoms: N_15  and  C_4 
REMARK    2  A    between atoms: C_17  and  N_5 
REMARK    3  A    between atoms: C_19  and  N_10 
REMARK    4  A    between atoms: C_11  and  S_16 
REMARK    5  A    between atoms: S_16  and  C_28 
REMARK    6  A    between atoms: C_27  and  C_17 
REMARK    7  A    between atoms: C_28  and  C_27 
ROOT
ATOM      1  C   UNL d   1      58.868  -3.433  28.903  0.00  0.00     0.191 A 
ATOM      2  C   UNL d   1      58.278  -2.979  29.262  0.00  0.00     0.174 A 
ATOM      3  N   UNL d   1      59.498  -2.938  28.679  0.00  0.00    -0.042 NA
ATOM      4  C   UNL d   1      59.280  -2.163  28.910  0.00  0.00     0.722 A 
ATOM      5  N   UNL d   1      58.544  -2.178  29.263  0.00  0.00    -0.136 N 
ATOM      6  N   UNL d   1      58.767  -4.271  28.815  0.00  0.00    -0.239 N 
ATOM      7  C   UNL d   1      58.042  -4.625  29.108  0.00  0.00     0.358 A 
ATOM      8  N   UNL d   1      57.474  -4.141  29.461  0.00  0.00    -0.152 NA
ATOM      9  C   UNL d   1      57.598  -3.306  29.537  0.00  0.00     0.303 A 
ATOM     10  O   UNL d   1      57.908  -5.453  29.038  0.00  0.00    -0.244 OA
ATOM     11  O   UNL d   1      57.000  -2.845  29.901  0.00  0.00    -0.263 OA
ATOM     12  C   UNL d   1      59.350  -4.736  28.458  0.00  0.00     0.105 C 
ENDROOT
BRANCH   5  13
ATOM     13  C   UNL d   1      58.262  -1.457  29.517  0.00  0.00     0.072 C 
BRANCH  13  14
ATOM     14  C   UNL d   1      57.854  -1.419  30.244  0.00  0.00     0.052 C 
ATOM     15  C   UNL d   1      57.897  -0.638  29.983  0.00  0.00     0.007 C 
BRANCH  14  16
ATOM     16  C   UNL d   1      57.597  -0.692  30.536  0.00  0.00     0.071 C 
BRANCH  16  17
ATOM     17  S   UNL d   1      57.168  -0.646  31.226  0.00  0.00    -0.073 SA
BRANCH  17  18
ATOM     18  C   UNL d   1      57.419  -0.171  31.851  0.00  0.00     0.215 A 
ATOM     19  N   UNL d   1      57.013  -0.037  32.555  0.00  0.00    -0.186 N 
ATOM     20  N   UNL d   1      57.460   0.468  33.021  0.00  0.00    -0.038 NA
ATOM     21  N   UNL d   1      58.149   0.651  32.606  0.00  0.00    -0.022 NA
ATOM     22  N   UNL d   1      58.123   0.255  31.882  0.00  0.00    -0.101 NA
BRANCH  19  23
ATOM     23  C   UNL d   1      56.280  -0.358  32.757  0.00  0.00     0.087 A 
ATOM     24  C   UNL d   1      55.612   0.123  32.751  0.00  0.00     0.019 A 
ATOM     25  C   UNL d   1      54.879  -0.198  32.952  0.00  0.00     0.002 A 
ATOM     26  C   UNL d   1      54.817  -0.995  33.160  0.00  0.00     0.000 A 
ATOM     27  C   UNL d   1      55.496  -1.471  33.163  0.00  0.00     0.002 A 
ATOM     28  C   UNL d   1      56.228  -1.151  32.961  0.00  0.00     0.019 A 
ENDBRANCH  19  23
ENDBRANCH  17  18
ENDBRANCH  16  17
ENDBRANCH  14  16
ENDBRANCH  13  14
ENDBRANCH   5  13
BRANCH   4  29
ATOM     29  N   UNL d   1      59.737  -1.484  28.799  0.00  0.00    -0.136 N 
ATOM     30  C   UNL d   1      60.559  -1.518  28.908  0.00  0.00     0.117 A 
ATOM     31  C   UNL d   1      61.006  -0.833  28.795  0.00  0.00     0.100 A 
ATOM     32  N   UNL d   1      60.642  -0.119  28.576  0.00  0.00    -0.299 N 
ATOM     33  C   UNL d   1      59.824  -0.101  28.471  0.00  0.00     0.100 A 
ATOM     34  C   UNL d   1      61.100   0.561  28.465  0.00  0.00     0.100 C 
ATOM     35  C   UNL d   1      59.369  -0.776  28.581  0.00  0.00     0.117 A 
ENDBRANCH   4  29
TORSDOF 7
ENDMDL
