MODEL 1
REMARK VINA RESULT:      -8.8      0.000      0.000
REMARK  5 active torsions:
REMARK  status: ('A' for Active; 'I' for Inactive)
REMARK    1  A    between atoms: S_3  and  N_1 
REMARK    2  A    between atoms: S_4  and  N_8 
REMARK    3  A    between atoms: C_12  and  C_5 
REMARK    4  A    between atoms: C_9  and  C_6 
REMARK    5  A    between atoms: N_8  and  C_16 
ROOT
ATOM      1  N   UNL d   1      52.668  33.521  53.569  0.00  0.00    -0.155 N 
ATOM      2  N   UNL d   1      53.199  32.899  53.714  0.00  0.00    -0.156 NA
ATOM      3  C   UNL d   1      52.032  33.210  53.132  0.00  0.00     0.096 A 
ATOM      4  C   UNL d   1      52.895  32.213  53.371  0.00  0.00     0.104 A 
ATOM      5  C   UNL d   1      52.176  32.409  53.013  0.00  0.00     0.041 A 
ENDROOT
BRANCH   4   6
ATOM      6  C   UNL d   1      53.245  31.467  53.383  0.00  0.00     0.021 A 
ATOM      7  C   UNL d   1      52.839  30.832  53.707  0.00  0.00     0.021 A 
ATOM      8  C   UNL d   1      53.191  30.081  53.720  0.00  0.00     0.093 A 
ATOM      9  C   UNL d   1      53.952  29.972  53.406  0.00  0.00     0.020 A 
ATOM     10  C   UNL d   1      54.355  30.619  53.081  0.00  0.00     0.002 A 
ATOM     11  C   UNL d   1      54.008  31.362  53.067  0.00  0.00     0.002 A 
BRANCH   8  12
ATOM     12  N   UNL d   1      52.780  29.435  54.048  0.00  0.00    -0.162 NA
BRANCH  12  13
ATOM     13  S   UNL d   1      53.148  28.951  54.599  0.00  0.00     0.266 S 
ATOM     14  O   UNL d   1      53.530  28.278  54.906  0.00  0.00    -0.203 OA
ATOM     15  O   UNL d   1      53.198  28.422  53.963  0.00  0.00    -0.203 OA
ATOM     16  C   UNL d   1      53.105  29.466  55.237  0.00  0.00     0.165 C 
ENDBRANCH  12  13
ENDBRANCH   8  12
ENDBRANCH   4   6
BRANCH   1  17
ATOM     17  S   UNL d   1      52.763  34.304  53.817  0.00  0.00     0.266 S 
ATOM     18  O   UNL d   1      52.699  34.882  54.403  0.00  0.00    -0.203 OA
ATOM     19  O   UNL d   1      52.461  33.737  54.339  0.00  0.00    -0.203 OA
ATOM     20  C   UNL d   1      53.066  34.813  53.253  0.00  0.00     0.165 C 
ENDBRANCH   1  17
BRANCH   3  21
ATOM     21  C   UNL d   1      51.383  33.636  52.871  0.00  0.00     0.018 A 
ATOM     22  C   UNL d   1      50.711  33.680  53.347  0.00  0.00     0.002 A 
ATOM     23  C   UNL d   1      50.053  34.107  53.090  0.00  0.00     0.000 A 
ATOM     24  C   UNL d   1      50.069  34.486  52.364  0.00  0.00     0.000 A 
ATOM     25  C   UNL d   1      50.746  34.436  51.896  0.00  0.00     0.000 A 
ATOM     26  C   UNL d   1      49.410  34.914  52.107  0.00  0.00     0.000 C 
ATOM     27  C   UNL d   1      51.396  34.018  52.141  0.00  0.00     0.002 A 
ENDBRANCH   3  21
TORSDOF 5
ENDMDL
MODEL 2
REMARK VINA RESULT:      -8.5      2.244      5.104
REMARK  5 active torsions:
REMARK  status: ('A' for Active; 'I' for Inactive)
REMARK    1  A    between atoms: S_3  and  N_1 
REMARK    2  A    between atoms: S_4  and  N_8 
REMARK    3  A    between atoms: C_12  and  C_5 
REMARK    4  A    between atoms: C_9  and  C_6 
REMARK    5  A    between atoms: N_8  and  C_16 
ROOT
ATOM      1  N   UNL d   1      52.404  32.599  53.027  0.00  0.00    -0.155 N 
ATOM      2  N   UNL d   1      51.694  32.771  52.631  0.00  0.00    -0.156 NA
ATOM      3  C   UNL d   1      52.660  33.298  53.398  0.00  0.00     0.096 A 
ATOM      4  C   UNL d   1      51.516  33.568  52.756  0.00  0.00     0.104 A 
ATOM      5  C   UNL d   1      52.113  33.888  53.228  0.00  0.00     0.041 A 
ENDROOT
BRANCH   4   6
ATOM      6  C   UNL d   1      50.860  33.970  52.461  0.00  0.00     0.021 A 
ATOM      7  C   UNL d   1      50.277  34.231  52.977  0.00  0.00     0.021 A 
ATOM      8  C   UNL d   1      49.616  34.636  52.682  0.00  0.00     0.093 A 
ATOM      9  C   UNL d   1      49.544  34.777  51.866  0.00  0.00     0.020 A 
ATOM     10  C   UNL d   1      50.137  34.510  51.353  0.00  0.00     0.002 A 
ATOM     11  C   UNL d   1      50.791  34.109  51.644  0.00  0.00     0.002 A 
BRANCH   8  12
ATOM     12  N   UNL d   1      49.024  34.902  53.204  0.00  0.00    -0.162 NA
BRANCH  12  13
ATOM     13  S   UNL d   1      48.657  35.625  53.076  0.00  0.00     0.266 S 
ATOM     14  O   UNL d   1      48.492  36.436  53.162  0.00  0.00    -0.203 OA
ATOM     15  O   UNL d   1      49.189  35.892  53.652  0.00  0.00    -0.203 OA
ATOM     16  C   UNL d   1      48.125  35.372  52.503  0.00  0.00     0.165 C 
ENDBRANCH  12  13
ENDBRANCH   8  12
ENDBRANCH   4   6
BRANCH   1  17
ATOM     17  S   UNL d   1      52.779  31.862  53.045  0.00  0.00     0.266 S 
ATOM     18  O   UNL d   1      53.278  31.304  52.696  0.00  0.00    -0.203 OA
ATOM     19  O   UNL d   1      52.894  32.371  52.402  0.00  0.00    -0.203 OA
ATOM     20  C   UNL d   1      52.624  31.409  53.708  0.00  0.00     0.165 C 
ENDBRANCH   1  17
BRANCH   3  21
ATOM     21  C   UNL d   1      53.340  33.374  53.849  0.00  0.00     0.018 A 
ATOM     22  C   UNL d   1      53.285  33.337  54.671  0.00  0.00     0.002 A 
ATOM     23  C   UNL d   1      53.965  33.412  55.132  0.00  0.00     0.000 A 
ATOM     24  C   UNL d   1      54.693  33.524  54.773  0.00  0.00     0.000 A 
ATOM     25  C   UNL d   1      54.737  33.560  53.950  0.00  0.00     0.000 A 
ATOM     26  C   UNL d   1      55.374  33.599  55.235  0.00  0.00     0.000 C 
ATOM     27  C   UNL d   1      54.073  33.486  53.491  0.00  0.00     0.002 A 
ENDBRANCH   3  21
TORSDOF 5
ENDMDL
MODEL 3
REMARK VINA RESULT:      -8.1      1.897      4.878
REMARK  5 active torsions:
REMARK  status: ('A' for Active; 'I' for Inactive)
REMARK    1  A    between atoms: S_3  and  N_1 
REMARK    2  A    between atoms: S_4  and  N_8 
REMARK    3  A    between atoms: C_12  and  C_5 
REMARK    4  A    between atoms: C_9  and  C_6 
REMARK    5  A    between atoms: N_8  and  C_16 
ROOT
ATOM      1  N   UNL d   1      53.319  32.736  53.514  0.00  0.00    -0.155 N 
ATOM      2  N   UNL d   1      52.911  33.409  53.249  0.00  0.00    -0.156 NA
ATOM      3  C   UNL d   1      52.832  32.076  53.372  0.00  0.00     0.096 A 
ATOM      4  C   UNL d   1      52.182  33.167  52.946  0.00  0.00     0.104 A 
ATOM      5  C   UNL d   1      52.138  32.345  53.024  0.00  0.00     0.041 A 
ENDROOT
BRANCH   4   6
ATOM      6  C   UNL d   1      51.603  33.657  52.625  0.00  0.00     0.021 A 
ATOM      7  C   UNL d   1      50.922  33.819  53.053  0.00  0.00     0.021 A 
ATOM      8  C   UNL d   1      50.338  34.312  52.730  0.00  0.00     0.093 A 
ATOM      9  C   UNL d   1      50.444  34.642  51.975  0.00  0.00     0.020 A 
ATOM     10  C   UNL d   1      51.134  34.474  51.549  0.00  0.00     0.002 A 
ATOM     11  C   UNL d   1      51.712  33.986  51.868  0.00  0.00     0.002 A 
BRANCH   8  12
ATOM     12  N   UNL d   1      49.647  34.476  53.164  0.00  0.00    -0.162 NA
BRANCH  12  13
ATOM     13  S   UNL d   1      49.197  35.139  52.984  0.00  0.00     0.266 S 
ATOM     14  O   UNL d   1      48.897  35.912  53.049  0.00  0.00    -0.203 OA
ATOM     15  O   UNL d   1      49.584  35.465  53.640  0.00  0.00    -0.203 OA
ATOM     16  C   UNL d   1      48.807  34.826  52.332  0.00  0.00     0.165 C 
ENDBRANCH  12  13
ENDBRANCH   8  12
ENDBRANCH   4   6
BRANCH   1  17
ATOM     17  S   UNL d   1      54.072  32.732  53.857  0.00  0.00     0.266 S 
ATOM     18  O   UNL d   1      54.893  32.704  53.780  0.00  0.00    -0.203 OA
ATOM     19  O   UNL d   1      53.990  32.691  53.034  0.00  0.00    -0.203 OA
ATOM     20  C   UNL d   1      54.082  32.774  54.674  0.00  0.00     0.165 C 
ENDBRANCH   1  17
BRANCH   3  21
ATOM     21  C   UNL d   1      53.022  31.299  53.551  0.00  0.00     0.018 A 
ATOM     22  C   UNL d   1      53.208  30.777  52.940  0.00  0.00     0.002 A 
ATOM     23  C   UNL d   1      53.400  29.994  53.113  0.00  0.00     0.000 A 
ATOM     24  C   UNL d   1      53.407  29.736  53.890  0.00  0.00     0.000 A 
ATOM     25  C   UNL d   1      53.219  30.266  54.494  0.00  0.00     0.000 A 
ATOM     26  C   UNL d   1      53.599  28.951  54.063  0.00  0.00     0.000 C 
ATOM     27  C   UNL d   1      53.030  31.037  54.332  0.00  0.00     0.002 A 
ENDBRANCH   3  21
TORSDOF 5
ENDMDL
MODEL 4
REMARK VINA RESULT:      -8.1      1.912      2.215
REMARK  5 active torsions:
REMARK  status: ('A' for Active; 'I' for Inactive)
REMARK    1  A    between atoms: S_3  and  N_1 
REMARK    2  A    between atoms: S_4  and  N_8 
REMARK    3  A    between atoms: C_12  and  C_5 
REMARK    4  A    between atoms: C_9  and  C_6 
REMARK    5  A    between atoms: N_8  and  C_16 
ROOT
ATOM      1  N   UNL d   1      54.347  32.884  54.190  0.00  0.00    -0.155 N 
ATOM      2  N   UNL d   1      54.338  32.078  53.990  0.00  0.00    -0.156 NA
ATOM      3  C   UNL d   1      53.576  33.178  54.082  0.00  0.00     0.096 A 
ATOM      4  C   UNL d   1      53.570  31.877  53.761  0.00  0.00     0.104 A 
ATOM      5  C   UNL d   1      53.104  32.558  53.820  0.00  0.00     0.041 A 
ENDROOT
BRANCH   4   6
ATOM      6  C   UNL d   1      53.315  31.132  53.519  0.00  0.00     0.021 A 
ATOM      7  C   UNL d   1      53.123  30.564  54.080  0.00  0.00     0.021 A 
ATOM      8  C   UNL d   1      52.866  29.814  53.836  0.00  0.00     0.093 A 
ATOM      9  C   UNL d   1      52.804  29.638  53.027  0.00  0.00     0.020 A 
ATOM     10  C   UNL d   1      52.999  30.216  52.468  0.00  0.00     0.002 A 
ATOM     11  C   UNL d   1      53.254  30.959  52.707  0.00  0.00     0.002 A 
BRANCH   8  12
ATOM     12  N   UNL d   1      52.671  29.237  54.405  0.00  0.00    -0.162 NA
BRANCH  12  13
ATOM     13  S   UNL d   1      53.260  28.773  54.738  0.00  0.00     0.266 S 
ATOM     14  O   UNL d   1      53.822  28.163  54.802  0.00  0.00    -0.203 OA
ATOM     15  O   UNL d   1      53.211  28.360  54.021  0.00  0.00    -0.203 OA
ATOM     16  C   UNL d   1      53.318  29.175  55.452  0.00  0.00     0.165 C 
ENDBRANCH  12  13
ENDBRANCH   8  12
ENDBRANCH   4   6
BRANCH   1  17
ATOM     17  S   UNL d   1      55.008  33.309  54.448  0.00  0.00     0.266 S 
ATOM     18  O   UNL d   1      55.716  33.701  54.286  0.00  0.00    -0.203 OA
ATOM     19  O   UNL d   1      54.914  33.137  53.645  0.00  0.00    -0.203 OA
ATOM     20  C   UNL d   1      55.040  33.445  55.255  0.00  0.00     0.165 C 
ENDBRANCH   1  17
BRANCH   3  21
ATOM     21  C   UNL d   1      53.340  33.951  54.217  0.00  0.00     0.018 A 
ATOM     22  C   UNL d   1      53.230  34.457  53.575  0.00  0.00     0.002 A 
ATOM     23  C   UNL d   1      52.992  35.237  53.703  0.00  0.00     0.000 A 
ATOM     24  C   UNL d   1      52.866  35.506  54.466  0.00  0.00     0.000 A 
ATOM     25  C   UNL d   1      52.979  34.991  55.101  0.00  0.00     0.000 A 
ATOM     26  C   UNL d   1      52.628  36.287  54.595  0.00  0.00     0.000 C 
ATOM     27  C   UNL d   1      53.212  34.225  54.983  0.00  0.00     0.002 A 
ENDBRANCH   3  21
TORSDOF 5
ENDMDL
MODEL 5
REMARK VINA RESULT:      -7.8      2.581      5.410
REMARK  5 active torsions:
REMARK  status: ('A' for Active; 'I' for Inactive)
REMARK    1  A    between atoms: S_3  and  N_1 
REMARK    2  A    between atoms: S_4  and  N_8 
REMARK    3  A    between atoms: C_12  and  C_5 
REMARK    4  A    between atoms: C_9  and  C_6 
REMARK    5  A    between atoms: N_8  and  C_16 
ROOT
ATOM      1  N   UNL d   1      52.022  34.526  53.288  0.00  0.00    -0.155 N 
ATOM      2  N   UNL d   1      51.356  34.993  53.119  0.00  0.00    -0.156 NA
ATOM      3  C   UNL d   1      51.794  33.729  53.214  0.00  0.00     0.096 A 
ATOM      4  C   UNL d   1      50.725  34.491  52.942  0.00  0.00     0.104 A 
ATOM      5  C   UNL d   1      51.000  33.713  53.002  0.00  0.00     0.041 A 
ENDROOT
BRANCH   4   6
ATOM      6  C   UNL d   1      49.961  34.723  52.742  0.00  0.00     0.021 A 
ATOM      7  C   UNL d   1      49.572  35.282  53.200  0.00  0.00     0.021 A 
ATOM      8  C   UNL d   1      48.802  35.517  52.999  0.00  0.00     0.093 A 
ATOM      9  C   UNL d   1      48.426  35.186  52.336  0.00  0.00     0.020 A 
ATOM     10  C   UNL d   1      48.825  34.622  51.880  0.00  0.00     0.002 A 
ATOM     11  C   UNL d   1      49.587  34.390  52.077  0.00  0.00     0.002 A 
BRANCH   8  12
ATOM     12  N   UNL d   1      48.406  36.084  53.463  0.00  0.00    -0.162 NA
BRANCH  12  13
ATOM     13  S   UNL d   1      47.587  36.133  53.441  0.00  0.00     0.266 S 
ATOM     14  O   UNL d   1      46.798  36.017  53.677  0.00  0.00    -0.203 OA
ATOM     15  O   UNL d   1      47.634  35.686  54.137  0.00  0.00    -0.203 OA
ATOM     16  C   UNL d   1      47.527  36.577  52.753  0.00  0.00     0.165 C 
ENDBRANCH  12  13
ENDBRANCH   8  12
ENDBRANCH   4   6
BRANCH   1  17
ATOM     17  S   UNL d   1      52.771  34.811  53.493  0.00  0.00     0.266 S 
ATOM     18  O   UNL d   1      53.517  35.086  53.272  0.00  0.00    -0.203 OA
ATOM     19  O   UNL d   1      52.565  34.720  52.697  0.00  0.00    -0.203 OA
ATOM     20  C   UNL d   1      52.910  34.877  54.296  0.00  0.00     0.165 C 
ENDBRANCH   1  17
BRANCH   3  21
ATOM     21  C   UNL d   1      52.283  33.083  53.333  0.00  0.00     0.018 A 
ATOM     22  C   UNL d   1      52.506  32.620  52.688  0.00  0.00     0.002 A 
ATOM     23  C   UNL d   1      52.998  31.968  52.801  0.00  0.00     0.000 A 
ATOM     24  C   UNL d   1      53.265  31.782  53.553  0.00  0.00     0.000 A 
ATOM     25  C   UNL d   1      53.037  32.252  54.191  0.00  0.00     0.000 A 
ATOM     26  C   UNL d   1      53.759  31.129  53.666  0.00  0.00     0.000 C 
ATOM     27  C   UNL d   1      52.553  32.894  54.088  0.00  0.00     0.002 A 
ENDBRANCH   3  21
TORSDOF 5
ENDMDL
