MODEL 1
REMARK VINA RESULT:      96.6      0.000      0.000
REMARK  5 active torsions:
REMARK  status: ('A' for Active; 'I' for Inactive)
REMARK    1  A    between atoms: N_2  and  S_1 
REMARK    2  A    between atoms: C_9  and  S_1 
REMARK    3  A    between atoms: C_8  and  N_2 
REMARK       I    between atoms: C_14  and  N_2 
REMARK    4  A    between atoms: C_17  and  C_3 
REMARK    5  A    between atoms: N_6  and  C_5 
ROOT
ATOM      1  N   UNL d   1     -47.600  29.979  35.479  0.00  0.00    -0.198 N 
ATOM      2  C   UNL d   1     -47.458  29.949  36.304  0.00  0.00     0.274 C 
ATOM      3  O   UNL d   1     -47.054  30.574  36.678  0.00  0.00    -0.266 OA
ATOM      4  C   UNL d   1     -47.712  29.307  36.762  0.00  0.00     0.067 C 
ENDROOT
BRANCH   1   5
ATOM      5  S   UNL d   1     -48.012  29.334  35.120  0.00  0.00     0.274 S 
ATOM      6  O   UNL d   1     -47.290  28.987  34.945  0.00  0.00    -0.200 OA
ATOM      7  O   UNL d   1     -48.756  29.698  35.304  0.00  0.00    -0.200 OA
BRANCH   5   8
ATOM      8  C   UNL d   1     -48.395  28.697  34.766  0.00  0.00     0.106 A 
ATOM      9  C   UNL d   1     -49.067  28.805  34.342  0.00  0.00     0.037 A 
ATOM     10  C   UNL d   1     -49.473  28.181  33.975  0.00  0.00     0.138 A 
ATOM     11  C   UNL d   1     -49.127  27.379  34.074  0.00  0.00     0.080 A 
ATOM     12  C   UNL d   1     -48.435  27.288  34.513  0.00  0.00     0.014 A 
ATOM     13 CL   UNL d   1     -49.482  26.707  33.732  0.00  0.00    -0.081 Cl
ATOM     14  C   UNL d   1     -48.082  27.939  34.850  0.00  0.00     0.014 A 
BRANCH  10  15
ATOM     15  N   UNL d   1     -50.169  28.302  33.537  0.00  0.00    -0.113 N 
ATOM     16  O   UNL d   1     -50.339  29.087  33.306  0.00  0.00    -0.532 OA
ATOM     17  O   UNL d   1     -50.671  27.706  33.335  0.00  0.00    -0.532 OA
ENDBRANCH  10  15
ENDBRANCH   5   8
ENDBRANCH   1   5
BRANCH   1  18
ATOM     18  C   UNL d   1     -47.344  30.620  35.036  0.00  0.00     0.078 A 
ATOM     19  C   UNL d   1     -47.863  31.177  34.831  0.00  0.00     0.021 A 
ATOM     20  C   UNL d   1     -47.633  31.842  34.381  0.00  0.00     0.029 A 
ATOM     21  C   UNL d   1     -48.047  32.480  34.102  0.00  0.00     0.064 A 
ATOM     22  C   UNL d   1     -46.852  31.927  34.140  0.00  0.00     0.100 A 
ATOM     23  C   UNL d   1     -47.536  32.963  33.691  0.00  0.00     0.103 A 
ATOM     24  C   UNL d   1     -47.694  33.675  33.306  0.00  0.00     0.027 C 
ATOM     25  O   UNL d   1     -46.792  32.617  33.716  0.00  0.00    -0.307 OA
ATOM     26  C   UNL d   1     -46.278  31.351  34.343  0.00  0.00     0.026 A 
ATOM     27  C   UNL d   1     -46.521  30.711  34.782  0.00  0.00     0.020 A 
BRANCH  21  28
ATOM     28  C   UNL d   1     -48.865  32.627  34.213  0.00  0.00     0.198 C 
ATOM     29  O   UNL d   1     -49.433  32.259  33.759  0.00  0.00    -0.286 OA
ATOM     30  C   UNL d   1     -49.090  33.176  34.819  0.00  0.00     0.045 C 
ENDBRANCH  21  28
ENDBRANCH   1  18
TORSDOF 5
ENDMDL
