MODEL 1
REMARK VINA RESULT:      -4.2      0.000      0.000
REMARK  3 active torsions:
REMARK  status: ('A' for Active; 'I' for Inactive)
REMARK    1  A    between atoms: C_14  and  N_3 
REMARK    2  A    between atoms: O_17  and  C_12 
REMARK    3  A    between atoms: O_16  and  C_13 
ROOT
ATOM      1  C   UNL d   1      58.110  -0.884  30.256  0.00  0.00     0.166 A 
ATOM      2  C   UNL d   1      58.452  -0.141  30.477  0.00  0.00     0.117 A 
ATOM      3  N   UNL d   1      58.507  -1.151  29.577  0.00  0.00    -0.289 N 
ATOM      4  N   UNL d   1      57.485  -1.186  30.725  0.00  0.00    -0.225 NA
ATOM      5  N   UNL d   1      58.173   0.263  31.132  0.00  0.00    -0.241 NA
ATOM      6  C   UNL d   1      59.041   0.011  29.925  0.00  0.00     0.037 A 
ATOM      7  C   UNL d   1      59.075  -0.604  29.377  0.00  0.00     0.067 A 
ATOM      8  C   UNL d   1      57.205  -0.785  31.377  0.00  0.00     0.103 A 
ATOM      9  C   UNL d   1      57.549  -0.061  31.581  0.00  0.00     0.101 A 
ATOM     10  C   UNL d   1      56.604  -1.100  31.808  0.00  0.00     0.047 A 
ATOM     11  C   UNL d   1      57.271   0.344  32.236  0.00  0.00     0.047 A 
ATOM     12  C   UNL d   1      56.646   0.041  32.704  0.00  0.00     0.118 A 
ATOM     13  C   UNL d   1      56.324  -0.692  32.468  0.00  0.00     0.118 A 
ATOM     14  C   UNL d   1      59.562   0.651  29.856  0.00  0.00     0.003 A 
ATOM     15  C   UNL d   1      59.628  -0.562  28.777  0.00  0.00     0.018 A 
ATOM     16  C   UNL d   1      60.116   0.678  29.242  0.00  0.00     0.000 A 
ATOM     17  C   UNL d   1      60.150   0.063  28.694  0.00  0.00     0.002 A 
ENDROOT
BRANCH   3  18
ATOM     18  C   UNL d   1      58.353  -1.841  29.184  0.00  0.00     0.082 C 
ATOM     19  C   UNL d   1      58.875  -2.478  29.245  0.00  0.00     0.021 C 
ENDBRANCH   3  18
BRANCH  13  20
ATOM     20  O   UNL d   1      55.719  -1.005  32.904  0.00  0.00    -0.326 OA
ATOM     21  C   UNL d   1      55.693  -1.815  33.081  0.00  0.00     0.181 C 
ENDBRANCH  13  20
BRANCH  12  22
ATOM     22  O   UNL d   1      56.366   0.462  33.374  0.00  0.00    -0.326 OA
ATOM     23  C   UNL d   1      56.899   0.682  33.978  0.00  0.00     0.181 C 
ENDBRANCH  12  22
TORSDOF 3
ENDMDL
MODEL 2
REMARK VINA RESULT:      -3.9      0.514      1.901
REMARK  3 active torsions:
REMARK  status: ('A' for Active; 'I' for Inactive)
REMARK    1  A    between atoms: C_14  and  N_3 
REMARK    2  A    between atoms: O_17  and  C_12 
REMARK    3  A    between atoms: O_16  and  C_13 
ROOT
ATOM      1  C   UNL d   1      58.304  -0.155  30.533  0.00  0.00     0.166 A 
ATOM      2  C   UNL d   1      57.987  -0.928  30.394  0.00  0.00     0.117 A 
ATOM      3  N   UNL d   1      58.916  -0.033  29.983  0.00  0.00    -0.289 N 
ATOM      4  N   UNL d   1      57.971   0.306  31.148  0.00  0.00    -0.225 NA
ATOM      5  N   UNL d   1      57.371  -1.208  30.855  0.00  0.00    -0.241 NA
ATOM      6  C   UNL d   1      58.416  -1.242  29.769  0.00  0.00     0.037 A 
ATOM      7  C   UNL d   1      58.982  -0.696  29.518  0.00  0.00     0.067 A 
ATOM      8  C   UNL d   1      57.358   0.028  31.607  0.00  0.00     0.103 A 
ATOM      9  C   UNL d   1      57.057  -0.729  31.461  0.00  0.00     0.101 A 
ATOM     10  C   UNL d   1      57.058   0.493  32.191  0.00  0.00     0.047 A 
ATOM     11  C   UNL d   1      56.442  -1.010  31.920  0.00  0.00     0.047 A 
ATOM     12  C   UNL d   1      56.108  -0.550  32.535  0.00  0.00     0.118 A 
ATOM     13  C   UNL d   1      56.437   0.209  32.653  0.00  0.00     0.118 A 
ATOM     14  C   UNL d   1      58.358  -1.975  29.390  0.00  0.00     0.003 A 
ATOM     15  C   UNL d   1      59.472  -0.901  28.896  0.00  0.00     0.018 A 
ATOM     16  C   UNL d   1      58.862  -2.167  28.762  0.00  0.00     0.000 A 
ATOM     17  C   UNL d   1      59.427  -1.621  28.511  0.00  0.00     0.002 A 
ENDROOT
BRANCH   3  18
ATOM     18  C   UNL d   1      59.367   0.637  29.923  0.00  0.00     0.082 C 
ATOM     19  C   UNL d   1      60.141   0.640  30.209  0.00  0.00     0.021 C 
ENDBRANCH   3  18
BRANCH  13  20
ATOM     20  O   UNL d   1      56.132   0.673  33.242  0.00  0.00    -0.326 OA
ATOM     21  C   UNL d   1      56.455   0.663  34.006  0.00  0.00     0.181 C 
ENDBRANCH  13  20
BRANCH  12  22
ATOM     22  O   UNL d   1      55.476  -0.845  33.002  0.00  0.00    -0.326 OA
ATOM     23  C   UNL d   1      55.364  -1.669  33.073  0.00  0.00     0.181 C 
ENDBRANCH  12  22
TORSDOF 3
ENDMDL
MODEL 3
REMARK VINA RESULT:      -2.9      0.983      1.208
REMARK  3 active torsions:
REMARK  status: ('A' for Active; 'I' for Inactive)
REMARK    1  A    between atoms: C_14  and  N_3 
REMARK    2  A    between atoms: O_17  and  C_12 
REMARK    3  A    between atoms: O_16  and  C_13 
ROOT
ATOM      1  C   UNL d   1      58.342   0.085  30.551  0.00  0.00     0.166 A 
ATOM      2  C   UNL d   1      58.929   0.382  31.086  0.00  0.00     0.117 A 
ATOM      3  N   UNL d   1      58.711  -0.035  29.816  0.00  0.00    -0.289 N 
ATOM      4  N   UNL d   1      57.564  -0.024  30.839  0.00  0.00    -0.225 NA
ATOM      5  N   UNL d   1      58.730   0.556  31.861  0.00  0.00    -0.241 NA
ATOM      6  C   UNL d   1      59.626   0.431  30.655  0.00  0.00     0.037 A 
ATOM      7  C   UNL d   1      59.493   0.176  29.881  0.00  0.00     0.067 A 
ATOM      8  C   UNL d   1      57.364   0.148  31.611  0.00  0.00     0.103 A 
ATOM      9  C   UNL d   1      57.946   0.437  32.122  0.00  0.00     0.101 A 
ATOM     10  C   UNL d   1      56.607   0.033  31.859  0.00  0.00     0.047 A 
ATOM     11  C   UNL d   1      57.749   0.611  32.896  0.00  0.00     0.047 A 
ATOM     12  C   UNL d   1      56.970   0.502  33.184  0.00  0.00     0.118 A 
ATOM     13  C   UNL d   1      56.409   0.208  32.640  0.00  0.00     0.118 A 
ATOM     14  C   UNL d   1      60.382   0.681  30.880  0.00  0.00     0.003 A 
ATOM     15  C   UNL d   1      60.121   0.180  29.356  0.00  0.00     0.018 A 
ATOM     16  C   UNL d   1      61.006   0.679  30.336  0.00  0.00     0.000 A 
ATOM     17  C   UNL d   1      60.874   0.425  29.563  0.00  0.00     0.002 A 
ENDROOT
BRANCH   3  18
ATOM     18  C   UNL d   1      58.348  -0.316  29.150  0.00  0.00     0.082 C 
ATOM     19  C   UNL d   1      58.047   0.212  28.590  0.00  0.00     0.021 C 
ENDBRANCH   3  18
BRANCH  13  20
ATOM     20  O   UNL d   1      55.649   0.093  32.894  0.00  0.00    -0.326 OA
ATOM     21  C   UNL d   1      55.306  -0.662  32.892  0.00  0.00     0.181 C 
ENDBRANCH  13  20
BRANCH  12  22
ATOM     22  O   UNL d   1      56.775   0.682  33.981  0.00  0.00    -0.326 OA
ATOM     23  C   UNL d   1      57.357   0.616  34.575  0.00  0.00     0.181 C 
ENDBRANCH  12  22
TORSDOF 3
ENDMDL
MODEL 4
REMARK VINA RESULT:      -2.8      1.693      4.167
REMARK  3 active torsions:
REMARK  status: ('A' for Active; 'I' for Inactive)
REMARK    1  A    between atoms: C_14  and  N_3 
REMARK    2  A    between atoms: O_17  and  C_12 
REMARK    3  A    between atoms: O_16  and  C_13 
ROOT
ATOM      1  C   UNL d   1      56.812  -0.513  32.130  0.00  0.00     0.166 A 
ATOM      2  C   UNL d   1      57.299   0.064  32.516  0.00  0.00     0.117 A 
ATOM      3  N   UNL d   1      56.210  -0.728  32.661  0.00  0.00    -0.289 N 
ATOM      4  N   UNL d   1      57.012  -0.741  31.350  0.00  0.00    -0.225 NA
ATOM      5  N   UNL d   1      57.945   0.384  32.128  0.00  0.00    -0.241 NA
ATOM      6  C   UNL d   1      56.973   0.175  33.262  0.00  0.00     0.037 A 
ATOM      7  C   UNL d   1      56.309  -0.308  33.350  0.00  0.00     0.067 A 
ATOM      8  C   UNL d   1      57.655  -0.423  30.962  0.00  0.00     0.103 A 
ATOM      9  C   UNL d   1      58.121   0.139  31.350  0.00  0.00     0.101 A 
ATOM     10  C   UNL d   1      57.823  -0.662  30.212  0.00  0.00     0.047 A 
ATOM     11  C   UNL d   1      58.767   0.459  30.964  0.00  0.00     0.047 A 
ATOM     12  C   UNL d   1      58.967   0.231  30.183  0.00  0.00     0.118 A 
ATOM     13  C   UNL d   1      58.474  -0.338  29.823  0.00  0.00     0.118 A 
ATOM     14  C   UNL d   1      57.207   0.668  33.884  0.00  0.00     0.003 A 
ATOM     15  C   UNL d   1      55.900  -0.282  34.057  0.00  0.00     0.018 A 
ATOM     16  C   UNL d   1      56.781   0.682  34.593  0.00  0.00     0.000 A 
ATOM     17  C   UNL d   1      56.117   0.200  34.682  0.00  0.00     0.002 A 
ENDROOT
BRANCH   3  18
ATOM     18  C   UNL d   1      55.624  -1.266  32.513  0.00  0.00     0.082 C 
ATOM     19  C   UNL d   1      55.522  -1.914  33.013  0.00  0.00     0.021 C 
ENDBRANCH   3  18
BRANCH  13  20
ATOM     20  O   UNL d   1      58.647  -0.575  29.069  0.00  0.00    -0.326 OA
ATOM     21  C   UNL d   1      58.742  -1.378  28.883  0.00  0.00     0.181 C 
ENDBRANCH  13  20
BRANCH  12  22
ATOM     22  O   UNL d   1      59.632   0.564  29.793  0.00  0.00    -0.326 OA
ATOM     23  C   UNL d   1      60.343   0.682  30.213  0.00  0.00     0.181 C 
ENDBRANCH  12  22
TORSDOF 3
ENDMDL
MODEL 5
REMARK VINA RESULT:      -2.6      2.204      4.631
REMARK  3 active torsions:
REMARK  status: ('A' for Active; 'I' for Inactive)
REMARK    1  A    between atoms: C_14  and  N_3 
REMARK    2  A    between atoms: O_17  and  C_12 
REMARK    3  A    between atoms: O_16  and  C_13 
ROOT
ATOM      1  C   UNL d   1      57.602   0.662  32.824  0.00  0.00     0.166 A 
ATOM      2  C   UNL d   1      56.888   0.644  32.368  0.00  0.00     0.117 A 
ATOM      3  N   UNL d   1      57.386   0.665  33.626  0.00  0.00    -0.289 N 
ATOM      4  N   UNL d   1      58.332   0.672  32.414  0.00  0.00    -0.225 NA
ATOM      5  N   UNL d   1      56.921   0.637  31.550  0.00  0.00    -0.241 NA
ATOM      6  C   UNL d   1      56.271   0.638  32.910  0.00  0.00     0.037 A 
ATOM      7  C   UNL d   1      56.575   0.650  33.677  0.00  0.00     0.067 A 
ATOM      8  C   UNL d   1      58.368   0.665  31.600  0.00  0.00     0.103 A 
ATOM      9  C   UNL d   1      57.663   0.648  31.168  0.00  0.00     0.101 A 
ATOM     10  C   UNL d   1      59.084   0.675  31.234  0.00  0.00     0.047 A 
ATOM     11  C   UNL d   1      57.695   0.641  30.350  0.00  0.00     0.047 A 
ATOM     12  C   UNL d   1      58.425   0.651  29.941  0.00  0.00     0.118 A 
ATOM     13  C   UNL d   1      59.116   0.668  30.410  0.00  0.00     0.118 A 
ATOM     14  C   UNL d   1      55.452   0.621  32.794  0.00  0.00     0.003 A 
ATOM     15  C   UNL d   1      56.051   0.646  34.305  0.00  0.00     0.018 A 
ATOM     16  C   UNL d   1      54.935   0.617  33.440  0.00  0.00     0.000 A 
ATOM     17  C   UNL d   1      55.239   0.630  34.207  0.00  0.00     0.002 A 
ENDROOT
BRANCH   3  18
ATOM     18  C   UNL d   1      57.902   0.681  34.250  0.00  0.00     0.082 C 
ATOM     19  C   UNL d   1      57.614   0.661  35.024  0.00  0.00     0.021 C 
ENDBRANCH   3  18
BRANCH  13  20
ATOM     20  O   UNL d   1      59.834   0.678  30.038  0.00  0.00    -0.326 OA
ATOM     21  C   UNL d   1      60.514   0.385  30.412  0.00  0.00     0.181 C 
ENDBRANCH  13  20
BRANCH  12  22
ATOM     22  O   UNL d   1      58.451   0.644  29.102  0.00  0.00    -0.326 OA
ATOM     23  C   UNL d   1      57.739   0.645  28.666  0.00  0.00     0.181 C 
ENDBRANCH  12  22
TORSDOF 3
ENDMDL
MODEL 6
REMARK VINA RESULT:      -2.6      1.526      2.015
REMARK  3 active torsions:
REMARK  status: ('A' for Active; 'I' for Inactive)
REMARK    1  A    between atoms: C_14  and  N_3 
REMARK    2  A    between atoms: O_17  and  C_12 
REMARK    3  A    between atoms: O_16  and  C_13 
ROOT
ATOM      1  C   UNL d   1      58.552   0.671  31.178  0.00  0.00     0.166 A 
ATOM      2  C   UNL d   1      57.875   0.662  30.668  0.00  0.00     0.117 A 
ATOM      3  N   UNL d   1      59.229   0.671  30.695  0.00  0.00    -0.289 N 
ATOM      4  N   UNL d   1      58.425   0.676  32.005  0.00  0.00    -0.225 NA
ATOM      5  N   UNL d   1      57.121   0.660  30.987  0.00  0.00    -0.241 NA
ATOM      6  C   UNL d   1      58.167   0.658  29.901  0.00  0.00     0.037 A 
ATOM      7  C   UNL d   1      58.992   0.664  29.917  0.00  0.00     0.067 A 
ATOM      8  C   UNL d   1      57.675   0.674  32.324  0.00  0.00     0.103 A 
ATOM      9  C   UNL d   1      57.023   0.665  31.815  0.00  0.00     0.101 A 
ATOM     10  C   UNL d   1      57.583   0.679  33.123  0.00  0.00     0.047 A 
ATOM     11  C   UNL d   1      56.268   0.663  32.131  0.00  0.00     0.047 A 
ATOM     12  C   UNL d   1      56.141   0.668  32.959  0.00  0.00     0.118 A 
ATOM     13  C   UNL d   1      56.823   0.676  33.441  0.00  0.00     0.118 A 
ATOM     14  C   UNL d   1      57.772   0.650  29.174  0.00  0.00     0.003 A 
ATOM     15  C   UNL d   1      59.396   0.661  29.206  0.00  0.00     0.018 A 
ATOM     16  C   UNL d   1      58.196   0.648  28.463  0.00  0.00     0.000 A 
ATOM     17  C   UNL d   1      59.021   0.653  28.479  0.00  0.00     0.002 A 
ENDROOT
BRANCH   3  18
ATOM     18  C   UNL d   1      59.994   0.678  30.959  0.00  0.00     0.082 C 
ATOM     19  C   UNL d   1      60.505   0.062  30.760  0.00  0.00     0.021 C 
ENDBRANCH   3  18
BRANCH  13  20
ATOM     20  O   UNL d   1      56.726   0.682  34.244  0.00  0.00    -0.326 OA
ATOM     21  C   UNL d   1      57.379   0.645  34.754  0.00  0.00     0.181 C 
ENDBRANCH  13  20
BRANCH  12  22
ATOM     22  O   UNL d   1      55.364   0.666  33.276  0.00  0.00    -0.326 OA
ATOM     23  C   UNL d   1      54.869   0.005  33.155  0.00  0.00     0.181 C 
ENDBRANCH  12  22
TORSDOF 3
ENDMDL
