MODEL 1
REMARK VINA RESULT:      30.8      0.000      0.000
REMARK  7 active torsions:
REMARK  status: ('A' for Active; 'I' for Inactive)
REMARK    1  A    between atoms: C_6  and  N_2 
REMARK    2  A    between atoms: C_7  and  C_3 
REMARK    3  A    between atoms: C_8  and  C_6 
REMARK    4  A    between atoms: O_13  and  C_7 
REMARK    5  A    between atoms: C_14  and  C_8 
REMARK    6  A    between atoms: C_9  and  O_12 
REMARK    7  A    between atoms: O_12  and  C_14 
ROOT
ATOM      1  N   UNL d   1     -59.248 -98.809 -44.792  0.00  0.00    -0.225 NA
ATOM      2  N   UNL d   1     -57.988 -98.772 -45.315  0.00  0.00    -0.287 N 
ATOM      3  C   UNL d   1     -58.428 -98.794 -44.595  0.00  0.00     0.172 A 
ATOM      4  C   UNL d   1     -58.522 -98.773 -45.954  0.00  0.00     0.083 A 
ATOM      5  C   UNL d   1     -59.301 -98.796 -45.630  0.00  0.00     0.099 A 
ATOM      6  C   UNL d   1     -58.420 -98.756 -46.775  0.00  0.00     0.019 A 
ATOM      7  C   UNL d   1     -59.959 -98.801 -46.136  0.00  0.00     0.021 A 
ATOM      8  C   UNL d   1     -59.086 -98.762 -47.278  0.00  0.00     0.002 A 
ATOM      9  C   UNL d   1     -59.853 -98.784 -46.959  0.00  0.00     0.002 A 
ENDROOT
BRANCH   2  10
ATOM     10  C   UNL d   1     -57.168 -98.756 -45.204  0.00  0.00     0.084 C 
BRANCH  10  11
ATOM     11  C   UNL d   1     -56.821 -99.284 -44.674  0.00  0.00     0.046 C 
BRANCH  11  12
ATOM     12  C   UNL d   1     -56.011 -99.379 -44.668  0.00  0.00     0.124 C 
BRANCH  12  13
ATOM     13  O   UNL d   1     -55.648 -99.725 -44.017  0.00  0.00    -0.305 OA
BRANCH  13  14
ATOM     14  C   UNL d   1     -55.337-100.484 -44.077  0.00  0.00     0.100 A 
ATOM     15  C   UNL d   1     -55.124-100.886 -43.402  0.00  0.00     0.025 A 
ATOM     16  C   UNL d   1     -54.816-101.635 -43.459  0.00  0.00     0.002 A 
ATOM     17  C   UNL d   1     -54.718-101.992 -44.203  0.00  0.00     0.000 A 
ATOM     18  C   UNL d   1     -54.937-101.576 -44.877  0.00  0.00     0.002 A 
ATOM     19  C   UNL d   1     -55.246-100.822 -44.809  0.00  0.00     0.025 A 
ENDBRANCH  13  14
ENDBRANCH  12  13
ENDBRANCH  11  12
ENDBRANCH  10  11
ENDBRANCH   2  10
BRANCH   3  20
ATOM     20  C   UNL d   1     -58.240 -98.803 -43.885  0.00  0.00     0.154 C 
BRANCH  20  21
ATOM     21  O   UNL d   1     -58.632 -99.213 -43.293  0.00  0.00    -0.323 OA
ATOM     22  C   UNL d   1     -59.356 -99.102 -42.910  0.00  0.00     0.182 C 
ENDBRANCH  20  21
ENDBRANCH   3  20
TORSDOF 7
ENDMDL
