MODEL 1
REMARK VINA RESULT:     122.1      0.000      0.000
REMARK  5 active torsions:
REMARK  status: ('A' for Active; 'I' for Inactive)
REMARK    1  A    between atoms: N_6  and  C_1 
REMARK    2  A    between atoms: C_11  and  C_5 
REMARK       I    between atoms: C_7  and  N_8 
REMARK    3  A    between atoms: C_10  and  C_7 
REMARK    4  A    between atoms: O_27  and  C_14 
REMARK    5  A    between atoms: O_28  and  C_21 
ROOT
ATOM      1  C   UNL d   1      61.153  45.950  51.255  0.00  0.00     0.197 A 
ATOM      2  C   UNL d   1      61.594  45.750  50.575  0.00  0.00     0.191 A 
ATOM      3  O   UNL d   1      61.110  45.279  51.742  0.00  0.00    -0.270 OA
ATOM      4  N   UNL d   1      61.810  44.965  50.659  0.00  0.00    -0.208 NA
ATOM      5  C   UNL d   1      61.527  44.688  51.344  0.00  0.00     0.185 A 
ATOM      6  C   UNL d   1      61.780  46.263  49.922  0.00  0.00     0.124 C 
ATOM      7  N   UNL d   1      61.972  46.752  49.274  0.00  0.00    -0.190 NA
ENDROOT
BRANCH   1   8
ATOM      8  N   UNL d   1      60.911  46.748  51.209  0.00  0.00    -0.280 N 
ATOM      9  C   UNL d   1      61.304  47.314  51.697  0.00  0.00     0.101 A 
ATOM     10  C   UNL d   1      61.062  48.112  51.651  0.00  0.00     0.102 A 
ATOM     11  N   UNL d   1      60.438  48.339  51.128  0.00  0.00    -0.267 N 
ATOM     12  C   UNL d   1      60.196  49.137  51.082  0.00  0.00     0.288 C 
ATOM     13  C   UNL d   1      60.065  47.769  50.658  0.00  0.00     0.102 A 
ATOM     14  O   UNL d   1      60.569  49.707  51.551  0.00  0.00    -0.264 OA
ATOM     15  C   UNL d   1      60.315  46.971  50.711  0.00  0.00     0.101 A 
BRANCH  12  16
ATOM     16  C   UNL d   1      59.577  49.364  50.562  0.00  0.00     0.156 A 
ATOM     17  O   UNL d   1      59.554  49.503  49.747  0.00  0.00    -0.300 OA
ATOM     18  C   UNL d   1      58.797  49.708  49.554  0.00  0.00     0.123 A 
ATOM     19  C   UNL d   1      58.321  49.707  50.222  0.00  0.00     0.029 A 
ATOM     20  C   UNL d   1      58.806  49.492  50.855  0.00  0.00     0.032 A 
ENDBRANCH  12  16
ENDBRANCH   1   8
BRANCH   5  21
ATOM     21  C   UNL d   1      61.742  43.924  51.420  0.00  0.00     0.043 A 
ATOM     22  C   UNL d   1      62.262  43.583  50.905  0.00  0.00     0.030 A 
ATOM     23  C   UNL d   1      62.486  42.799  50.978  0.00  0.00     0.116 A 
ATOM     24  C   UNL d   1      62.177  42.347  51.586  0.00  0.00     0.116 A 
ATOM     25  C   UNL d   1      61.655  42.694  52.100  0.00  0.00     0.026 A 
ATOM     26  C   UNL d   1      61.431  43.476  52.028  0.00  0.00     0.006 A 
BRANCH  23  27
ATOM     27  O   UNL d   1      63.034  42.474  50.420  0.00  0.00    -0.326 OA
ATOM     28  C   UNL d   1      62.803  41.910  49.874  0.00  0.00     0.181 C 
ENDBRANCH  23  27
BRANCH  24  29
ATOM     29  O   UNL d   1      62.392  41.556  51.675  0.00  0.00    -0.326 OA
ATOM     30  C   UNL d   1      61.820  40.975  51.722  0.00  0.00     0.181 C 
ENDBRANCH  24  29
ENDBRANCH   5  21
TORSDOF 5
ENDMDL
