MODEL 1
REMARK VINA RESULT:      70.6      0.000      0.000
REMARK  6 active torsions:
REMARK  status: ('A' for Active; 'I' for Inactive)
REMARK    1  A    between atoms: C_10  and  C_2 
REMARK    2  A    between atoms: C_11  and  C_4 
REMARK    3  A    between atoms: N_12  and  C_10 
REMARK    4  A    between atoms: O_17  and  C_11 
REMARK    5  A    between atoms: C_14  and  N_12 
REMARK    6  A    between atoms: C_23  and  O_17 
ROOT
ATOM      1  C   UNL d   1      43.856 -14.437  37.717  0.00  0.00     0.035 A 
ATOM      2  C   UNL d   1      43.696 -15.086  37.213  0.00  0.00     0.060 A 
ATOM      3  C   UNL d   1      44.630 -14.182  37.842  0.00  0.00     0.100 A 
ATOM      4  C   UNL d   1      43.356 -13.938  38.168  0.00  0.00     0.088 A 
ATOM      5  O   UNL d   1      44.625 -13.544  38.353  0.00  0.00    -0.307 OA
ATOM      6  C   UNL d   1      43.841 -13.391  38.557  0.00  0.00     0.105 A 
ATOM      7  C   UNL d   1      44.313 -15.468  36.844  0.00  0.00     0.197 A 
ATOM      8  C   UNL d   1      45.247 -14.580  37.459  0.00  0.00     0.026 A 
ATOM      9  C   UNL d   1      45.087 -15.230  36.955  0.00  0.00     0.041 A 
ATOM     10  O   UNL d   1      44.151 -16.120  36.338  0.00  0.00    -0.286 OA
ATOM     11  C   UNL d   1      43.569 -12.784  39.071  0.00  0.00     0.027 C 
ATOM     12  C   UNL d   1      46.019 -14.325  37.584  0.00  0.00     0.002 A 
ATOM     13  C   UNL d   1      45.701 -15.611  36.587  0.00  0.00     0.003 A 
ATOM     14  C   UNL d   1      46.632 -14.724  37.202  0.00  0.00     0.000 A 
ATOM     15  C   UNL d   1      46.472 -15.373  36.698  0.00  0.00     0.000 A 
ENDROOT
BRANCH   2  16
ATOM     16  C   UNL d   1      42.903 -15.339  37.092  0.00  0.00     0.104 C 
BRANCH  16  17
ATOM     17  N   UNL d   1      42.694 -15.738  36.388  0.00  0.00    -0.225 NA
BRANCH  17  18
ATOM     18  C   UNL d   1      42.034 -16.236  36.371  0.00  0.00     0.163 A 
ATOM     19  N   UNL d   1      42.145 -17.050  36.354  0.00  0.00    -0.225 NA
ATOM     20  C   UNL d   1      41.488 -17.540  36.337  0.00  0.00     0.101 A 
ATOM     21  C   UNL d   1      40.731 -17.224  36.337  0.00  0.00     0.021 A 
ATOM     22  C   UNL d   1      40.616 -16.410  36.354  0.00  0.00     0.005 A 
ATOM     23  C   UNL d   1      41.277 -15.919  36.371  0.00  0.00     0.039 A 
ENDBRANCH  17  18
ENDBRANCH  16  17
ENDBRANCH   2  16
BRANCH   4  24
ATOM     24  C   UNL d   1      42.523 -13.979  38.221  0.00  0.00     0.302 C 
ATOM     25  O   UNL d   1      42.146 -14.610  38.581  0.00  0.00    -0.259 OA
BRANCH  24  26
ATOM     26  O   UNL d   1      42.076 -13.363  37.897  0.00  0.00    -0.271 OA
BRANCH  26  27
ATOM     27  C   UNL d   1      41.460 -13.540  37.389  0.00  0.00     0.126 C 
ATOM     28  C   UNL d   1      40.703 -13.219  37.556  0.00  0.00     0.029 C 
ENDBRANCH  26  27
ENDBRANCH  24  26
ENDBRANCH   4  24
TORSDOF 6
ENDMDL
MODEL 2
REMARK VINA RESULT:      70.6      1.449      3.447
REMARK  6 active torsions:
REMARK  status: ('A' for Active; 'I' for Inactive)
REMARK    1  A    between atoms: C_10  and  C_2 
REMARK    2  A    between atoms: C_11  and  C_4 
REMARK    3  A    between atoms: N_12  and  C_10 
REMARK    4  A    between atoms: O_17  and  C_11 
REMARK    5  A    between atoms: C_14  and  N_12 
REMARK    6  A    between atoms: C_23  and  O_17 
ROOT
ATOM      1  C   UNL d   1      43.837 -14.770  37.305  0.00  0.00     0.035 A 
ATOM      2  C   UNL d   1      44.312 -14.182  37.666  0.00  0.00     0.060 A 
ATOM      3  C   UNL d   1      44.181 -15.388  36.881  0.00  0.00     0.100 A 
ATOM      4  C   UNL d   1      43.007 -14.883  37.277  0.00  0.00     0.088 A 
ATOM      5  O   UNL d   1      43.593 -15.876  36.592  0.00  0.00    -0.307 OA
ATOM      6  C   UNL d   1      42.868 -15.569  36.834  0.00  0.00     0.105 A 
ATOM      7  C   UNL d   1      45.121 -14.224  37.595  0.00  0.00     0.197 A 
ATOM      8  C   UNL d   1      45.006 -15.416  36.818  0.00  0.00     0.026 A 
ATOM      9  C   UNL d   1      45.482 -14.827  37.178  0.00  0.00     0.041 A 
ATOM     10  O   UNL d   1      45.599 -13.632  37.957  0.00  0.00    -0.286 OA
ATOM     11  C   UNL d   1      42.109 -15.889  36.665  0.00  0.00     0.027 C 
ATOM     12  C   UNL d   1      45.348 -16.032  36.394  0.00  0.00     0.002 A 
ATOM     13  C   UNL d   1      46.289 -14.868  37.108  0.00  0.00     0.003 A 
ATOM     14  C   UNL d   1      46.171 -16.059  36.332  0.00  0.00     0.000 A 
ATOM     15  C   UNL d   1      46.646 -15.470  36.693  0.00  0.00     0.000 A 
ENDROOT
BRANCH   2  16
ATOM     16  C   UNL d   1      43.952 -13.556  38.097  0.00  0.00     0.104 C 
BRANCH  16  17
ATOM     17  N   UNL d   1      44.417 -12.923  38.381  0.00  0.00    -0.225 NA
BRANCH  17  18
ATOM     18  C   UNL d   1      44.326 -12.655  39.158  0.00  0.00     0.163 A 
ATOM     19  N   UNL d   1      44.966 -12.691  39.673  0.00  0.00    -0.225 NA
ATOM     20  C   UNL d   1      44.872 -12.425  40.443  0.00  0.00     0.101 A 
ATOM     21  C   UNL d   1      44.151 -12.127  40.696  0.00  0.00     0.021 A 
ATOM     22  C   UNL d   1      43.509 -12.089  40.185  0.00  0.00     0.005 A 
ATOM     23  C   UNL d   1      43.605 -12.357  39.411  0.00  0.00     0.039 A 
ENDBRANCH  17  18
ENDBRANCH  16  17
ENDBRANCH   2  16
BRANCH   4  24
ATOM     24  C   UNL d   1      42.423 -14.398  37.627  0.00  0.00     0.302 C 
ATOM     25  O   UNL d   1      42.378 -14.297  38.438  0.00  0.00    -0.259 OA
BRANCH  24  26
ATOM     26  O   UNL d   1      41.881 -14.014  37.134  0.00  0.00    -0.271 OA
BRANCH  26  27
ATOM     27  C   UNL d   1      41.184 -13.729  37.452  0.00  0.00     0.126 C 
ATOM     28  C   UNL d   1      40.482 -13.804  36.999  0.00  0.00     0.029 C 
ENDBRANCH  26  27
ENDBRANCH  24  26
ENDBRANCH   4  24
TORSDOF 6
ENDMDL
MODEL 3
REMARK VINA RESULT:      71.4      1.220      2.912
REMARK  6 active torsions:
REMARK  status: ('A' for Active; 'I' for Inactive)
REMARK    1  A    between atoms: C_10  and  C_2 
REMARK    2  A    between atoms: C_11  and  C_4 
REMARK    3  A    between atoms: N_12  and  C_10 
REMARK    4  A    between atoms: O_17  and  C_11 
REMARK    5  A    between atoms: C_14  and  N_12 
REMARK    6  A    between atoms: C_23  and  O_17 
ROOT
ATOM      1  C   UNL d   1      43.634 -15.733  37.024  0.00  0.00     0.035 A 
ATOM      2  C   UNL d   1      43.467 -14.972  37.334  0.00  0.00     0.060 A 
ATOM      3  C   UNL d   1      44.398 -15.933  36.787  0.00  0.00     0.100 A 
ATOM      4  C   UNL d   1      43.149 -16.403  36.887  0.00  0.00     0.088 A 
ATOM      5  O   UNL d   1      44.401 -16.701  36.509  0.00  0.00    -0.307 OA
ATOM      6  C   UNL d   1      43.633 -16.994  36.569  0.00  0.00     0.105 A 
ATOM      7  C   UNL d   1      44.068 -14.428  37.401  0.00  0.00     0.197 A 
ATOM      8  C   UNL d   1      44.998 -15.367  36.861  0.00  0.00     0.026 A 
ATOM      9  C   UNL d   1      44.832 -14.607  37.172  0.00  0.00     0.041 A 
ATOM     10  O   UNL d   1      43.900 -13.664  37.713  0.00  0.00    -0.286 OA
ATOM     11  C   UNL d   1      43.374 -17.763  36.347  0.00  0.00     0.027 C 
ATOM     12  C   UNL d   1      45.760 -15.568  36.625  0.00  0.00     0.002 A 
ATOM     13  C   UNL d   1      45.430 -14.063  37.239  0.00  0.00     0.003 A 
ATOM     14  C   UNL d   1      46.357 -15.003  36.699  0.00  0.00     0.000 A 
ATOM     15  C   UNL d   1      46.190 -14.243  37.010  0.00  0.00     0.000 A 
ENDROOT
BRANCH   2  16
ATOM     16  C   UNL d   1      42.685 -14.778  37.573  0.00  0.00     0.104 C 
BRANCH  16  17
ATOM     17  N   UNL d   1      42.518 -14.020  37.881  0.00  0.00    -0.225 NA
BRANCH  17  18
ATOM     18  C   UNL d   1      41.821 -13.628  37.672  0.00  0.00     0.163 A 
ATOM     19  N   UNL d   1      41.476 -13.784  36.941  0.00  0.00    -0.225 NA
ATOM     20  C   UNL d   1      40.785 -13.394  36.737  0.00  0.00     0.101 A 
ATOM     21  C   UNL d   1      40.441 -12.857  37.253  0.00  0.00     0.021 A 
ATOM     22  C   UNL d   1      40.782 -12.698  37.984  0.00  0.00     0.005 A 
ATOM     23  C   UNL d   1      41.477 -13.091  38.188  0.00  0.00     0.039 A 
ENDBRANCH  17  18
ENDBRANCH  16  17
ENDBRANCH   2  16
BRANCH   4  24
ATOM     24  C   UNL d   1      42.330 -16.468  37.040  0.00  0.00     0.302 C 
ATOM     25  O   UNL d   1      42.041 -16.550  37.801  0.00  0.00    -0.259 OA
BRANCH  24  26
ATOM     26  O   UNL d   1      41.806 -16.449  36.400  0.00  0.00    -0.271 OA
BRANCH  26  27
ATOM     27  C   UNL d   1      41.206 -17.003  36.358  0.00  0.00     0.126 C 
ATOM     28  C   UNL d   1      40.414 -16.727  36.331  0.00  0.00     0.029 C 
ENDBRANCH  26  27
ENDBRANCH  24  26
ENDBRANCH   4  24
TORSDOF 6
ENDMDL
