MODEL 1
REMARK VINA RESULT:      55.9      0.000      0.000
REMARK  5 active torsions:
REMARK  status: ('A' for Active; 'I' for Inactive)
REMARK    1  A    between atoms: O_8  and  C_1 
REMARK    2  A    between atoms: C_12  and  C_5 
REMARK    3  A    between atoms: C_10  and  O_8 
REMARK    4  A    between atoms: N_16  and  C_12 
REMARK    5  A    between atoms: O_19  and  C_15 
ROOT
ATOM      1  C   UNL d   1     -54.716-101.491 -41.241  0.00  0.00     0.161 A 
ATOM      2  C   UNL d   1     -54.725-100.855 -42.776  0.00  0.00     0.108 A 
ATOM      3  C   UNL d   1     -54.721-101.684 -42.666  0.00  0.00     0.064 A 
ATOM      4  C   UNL d   1     -54.716-102.000 -41.907  0.00  0.00     0.222 A 
ATOM      5  C   UNL d   1     -54.729-100.536 -43.543  0.00  0.00     0.079 A 
ATOM      6  O   UNL d   1     -54.724-100.343 -42.123  0.00  0.00    -0.305 OA
ATOM      7  C   UNL d   1     -54.720-100.669 -41.350  0.00  0.00     0.126 A 
ATOM      8  C   UNL d   1     -54.721-102.182 -43.334  0.00  0.00     0.009 A 
ATOM      9  C   UNL d   1     -54.730-101.044 -44.196  0.00  0.00     0.199 A 
ATOM     10  O   UNL d   1     -54.712-102.817 -41.795  0.00  0.00    -0.284 OA
ATOM     11  C   UNL d   1     -54.726-101.862 -44.092  0.00  0.00     0.042 A 
ATOM     12  O   UNL d   1     -54.734-100.716 -44.957  0.00  0.00    -0.286 OA
ATOM     13  C   UNL d   1     -54.720-100.169 -40.696  0.00  0.00     0.029 C 
ENDROOT
BRANCH   1  14
ATOM     14  O   UNL d   1     -54.712-101.810 -40.483  0.00  0.00    -0.300 OA
BRANCH  14  15
ATOM     15  C   UNL d   1     -55.392-102.161 -40.181  0.00  0.00     0.122 A 
ATOM     16  C   UNL d   1     -55.413-102.409 -39.397  0.00  0.00     0.117 A 
ATOM     17  C   UNL d   1     -56.094-102.761 -39.095  0.00  0.00     0.026 A 
ATOM     18  C   UNL d   1     -56.754-102.864 -39.579  0.00  0.00     0.002 A 
ATOM     19  C   UNL d   1     -56.728-102.611 -40.374  0.00  0.00     0.002 A 
ATOM     20  C   UNL d   1     -56.050-102.263 -40.669  0.00  0.00     0.027 A 
BRANCH  16  21
ATOM     21  O   UNL d   1     -54.753-102.306 -38.913  0.00  0.00    -0.326 OA
ATOM     22  C   UNL d   1     -54.782-102.540 -38.126  0.00  0.00     0.181 C 
ENDBRANCH  16  21
ENDBRANCH  14  15
ENDBRANCH   1  14
BRANCH   5  23
ATOM     23  C   UNL d   1     -54.733 -99.718 -43.647  0.00  0.00     0.086 C 
BRANCH  23  24
ATOM     24  N   UNL d   1     -55.134 -99.393 -44.284  0.00  0.00    -0.300 N 
ATOM     25  C   UNL d   1     -54.715 -99.147 -44.951  0.00  0.00     0.100 C 
ATOM     26  C   UNL d   1     -55.957 -99.310 -44.263  0.00  0.00     0.100 C 
ENDBRANCH  23  24
ENDBRANCH   5  23
TORSDOF 5
ENDMDL
