MODEL 1
REMARK VINA RESULT:      -6.4      0.000      0.000
REMARK  3 active torsions:
REMARK  status: ('A' for Active; 'I' for Inactive)
REMARK    1  A    between atoms: C_4  and  C_1 
REMARK    2  A    between atoms: N_7  and  C_4 
REMARK    3  A    between atoms: C_9  and  N_7 
ROOT
ATOM      1  C   UNL d   1     -41.484-122.514 -51.757  0.00  0.00     0.171 C 
ATOM      2  S   UNL d   1     -41.123-121.894 -51.349  0.00  0.00    -0.054 SA
ENDROOT
BRANCH   1   3
ATOM      3  C   UNL d   1     -41.564-122.473 -52.577  0.00  0.00     0.191 A 
ATOM      4  N   UNL d   1     -41.201-122.978 -53.121  0.00  0.00    -0.223 NA
ATOM      5  C   UNL d   1     -41.431-122.740 -53.880  0.00  0.00     0.101 A 
ATOM      6  C   UNL d   1     -41.251-123.027 -54.633  0.00  0.00     0.021 A 
ATOM      7  C   UNL d   1     -41.936-122.088 -53.798  0.00  0.00     0.101 A 
ATOM      8  C   UNL d   1     -41.569-122.669 -55.297  0.00  0.00     0.002 A 
ATOM      9  C   UNL d   1     -42.074-122.017 -55.216  0.00  0.00     0.002 A 
ATOM     10  C   UNL d   1     -42.256-121.728 -54.470  0.00  0.00     0.021 A 
ATOM     11  N   UNL d   1     -42.014-121.927 -52.990  0.00  0.00    -0.223 NA
ENDBRANCH   1   3
BRANCH   1  12
ATOM     12  N   UNL d   1     -41.765-123.171 -51.350  0.00  0.00    -0.232 NA
BRANCH  12  13
ATOM     13  C   UNL d   1     -41.854-123.141 -50.526  0.00  0.00     0.083 A 
ATOM     14  C   UNL d   1     -42.527-122.800 -50.198  0.00  0.00     0.020 A 
ATOM     15  C   UNL d   1     -42.623-122.766 -49.383  0.00  0.00     0.013 A 
ATOM     16  C   UNL d   1     -42.030-123.080 -48.891  0.00  0.00     0.058 A 
ATOM     17  C   UNL d   1     -41.353-123.422 -49.218  0.00  0.00     0.013 A 
ATOM     18 CL   UNL d   1     -42.118-123.049 -48.075  0.00  0.00    -0.082 Cl
ATOM     19  C   UNL d   1     -41.272-123.449 -50.038  0.00  0.00     0.020 A 
ENDBRANCH  12  13
ENDBRANCH   1  12
TORSDOF 3
ENDMDL
MODEL 2
REMARK VINA RESULT:      -5.9      1.873      4.578
REMARK  3 active torsions:
REMARK  status: ('A' for Active; 'I' for Inactive)
REMARK    1  A    between atoms: C_4  and  C_1 
REMARK    2  A    between atoms: N_7  and  C_4 
REMARK    3  A    between atoms: C_9  and  N_7 
ROOT
ATOM      1  C   UNL d   1     -41.486-122.430 -52.118  0.00  0.00     0.171 C 
ATOM      2  S   UNL d   1     -41.124-121.706 -52.282  0.00  0.00    -0.054 SA
ENDROOT
BRANCH   1   3
ATOM      3  C   UNL d   1     -41.661-122.633 -51.338  0.00  0.00     0.191 A 
ATOM      4  N   UNL d   1     -42.316-122.369 -50.908  0.00  0.00    -0.223 NA
ATOM      5  C   UNL d   1     -42.276-122.707 -50.153  0.00  0.00     0.101 A 
ATOM      6  C   UNL d   1     -42.765-122.650 -49.491  0.00  0.00     0.021 A 
ATOM      7  C   UNL d   1     -41.594-123.178 -50.123  0.00  0.00     0.101 A 
ATOM      8  C   UNL d   1     -42.579-123.057 -48.805  0.00  0.00     0.002 A 
ATOM      9  C   UNL d   1     -41.897-123.528 -48.774  0.00  0.00     0.002 A 
ATOM     10  C   UNL d   1     -41.409-123.587 -49.429  0.00  0.00     0.021 A 
ATOM     11  N   UNL d   1     -41.219-123.128 -50.858  0.00  0.00    -0.223 NA
ENDBRANCH   1   3
BRANCH   1  12
ATOM     12  N   UNL d   1     -41.672-122.949 -52.728  0.00  0.00    -0.232 NA
BRANCH  12  13
ATOM     13  C   UNL d   1     -41.735-122.668 -53.506  0.00  0.00     0.083 A 
ATOM     14  C   UNL d   1     -41.199-122.918 -54.078  0.00  0.00     0.020 A 
ATOM     15  C   UNL d   1     -41.254-122.644 -54.850  0.00  0.00     0.013 A 
ATOM     16  C   UNL d   1     -41.860-122.109 -55.049  0.00  0.00     0.058 A 
ATOM     17  C   UNL d   1     -42.400-121.857 -54.476  0.00  0.00     0.013 A 
ATOM     18 CL   UNL d   1     -41.923-121.830 -55.819  0.00  0.00    -0.082 Cl
ATOM     19  C   UNL d   1     -42.331-122.141 -53.705  0.00  0.00     0.020 A 
ENDBRANCH  12  13
ENDBRANCH   1  12
TORSDOF 3
ENDMDL
MODEL 3
REMARK VINA RESULT:      -5.5      0.706      1.319
REMARK  3 active torsions:
REMARK  status: ('A' for Active; 'I' for Inactive)
REMARK    1  A    between atoms: C_4  and  C_1 
REMARK    2  A    between atoms: N_7  and  C_4 
REMARK    3  A    between atoms: C_9  and  N_7 
ROOT
ATOM      1  C   UNL d   1     -41.503-122.773 -51.032  0.00  0.00     0.171 C 
ATOM      2  S   UNL d   1     -41.293-122.056 -50.678  0.00  0.00    -0.054 SA
ENDROOT
BRANCH   1   3
ATOM      3  C   UNL d   1     -41.488-122.843 -51.854  0.00  0.00     0.191 A 
ATOM      4  N   UNL d   1     -41.605-122.227 -52.392  0.00  0.00    -0.223 NA
ATOM      5  C   UNL d   1     -41.543-122.542 -53.155  0.00  0.00     0.101 A 
ATOM      6  C   UNL d   1     -41.607-122.202 -53.905  0.00  0.00     0.021 A 
ATOM      7  C   UNL d   1     -41.388-123.353 -53.082  0.00  0.00     0.101 A 
ATOM      8  C   UNL d   1     -41.517-122.664 -54.575  0.00  0.00     0.002 A 
ATOM      9  C   UNL d   1     -41.362-123.475 -54.503  0.00  0.00     0.002 A 
ATOM     10  C   UNL d   1     -41.298-123.816 -53.761  0.00  0.00     0.021 A 
ATOM     11  N   UNL d   1     -41.355-123.533 -52.275  0.00  0.00    -0.223 NA
ENDBRANCH   1   3
BRANCH   1  12
ATOM     12  N   UNL d   1     -41.726-123.415 -50.570  0.00  0.00    -0.232 NA
BRANCH  12  13
ATOM     13  C   UNL d   1     -41.894-123.306 -49.765  0.00  0.00     0.083 A 
ATOM     14  C   UNL d   1     -41.300-123.406 -49.204  0.00  0.00     0.020 A 
ATOM     15  C   UNL d   1     -41.458-123.301 -48.405  0.00  0.00     0.013 A 
ATOM     16  C   UNL d   1     -42.227-123.091 -48.168  0.00  0.00     0.058 A 
ATOM     17  C   UNL d   1     -42.825-122.990 -48.729  0.00  0.00     0.013 A 
ATOM     18 CL   UNL d   1     -42.394-122.983 -47.371  0.00  0.00    -0.082 Cl
ATOM     19  C   UNL d   1     -42.650-123.100 -49.528  0.00  0.00     0.020 A 
ENDBRANCH  12  13
ENDBRANCH   1  12
TORSDOF 3
ENDMDL
