MODEL 1
REMARK VINA RESULT:      -2.3      0.000      0.000
REMARK  6 active torsions:
REMARK  status: ('A' for Active; 'I' for Inactive)
REMARK    1  A    between atoms: N_2  and  S_1 
REMARK    2  A    between atoms: C_3  and  S_1 
REMARK    3  A    between atoms: C_6  and  N_2 
REMARK    4  A    between atoms: C_12  and  C_6 
REMARK    5  A    between atoms: C_7  and  S_9 
REMARK    6  A    between atoms: S_9  and  C_12 
ROOT
ATOM      1  N   UNL d   1      33.240  19.701 -22.766  0.00  0.00    -0.188 NA
ENDROOT
BRANCH   1   2
ATOM      2  S   UNL d   1      32.991  20.335 -22.300  0.00  0.00     0.281 S 
ATOM      3  O   UNL d   1      32.796  20.779 -22.978  0.00  0.00    -0.199 OA
ATOM      4  O   UNL d   1      33.180  19.908 -21.619  0.00  0.00    -0.199 OA
BRANCH   2   5
ATOM      5  C   UNL d   1      32.736  20.985 -21.821  0.00  0.00     0.105 A 
ATOM      6  C   UNL d   1      32.889  21.760 -22.061  0.00  0.00     0.014 A 
ATOM      7  C   UNL d   1      32.647  22.380 -21.608  0.00  0.00     0.012 A 
ATOM      8  C   UNL d   1      32.239  22.252 -20.889  0.00  0.00     0.058 A 
ATOM      9  C   UNL d   1      32.094  21.471 -20.663  0.00  0.00     0.012 A 
ATOM     10 CL   UNL d   1      31.982  22.884 -20.407  0.00  0.00    -0.082 Cl
ATOM     11  C   UNL d   1      32.344  20.841 -21.131  0.00  0.00     0.014 A 
ENDBRANCH   2   5
ENDBRANCH   1   2
BRANCH   1  12
ATOM     12  C   UNL d   1      32.694  19.135 -23.015  0.00  0.00     0.107 C 
ATOM     13  C   UNL d   1      32.994  18.600 -22.467  0.00  0.00     0.026 C 
ATOM     14  C   UNL d   1      32.392  19.691 -23.576  0.00  0.00     0.026 C 
BRANCH  12  15
ATOM     15  C   UNL d   1      32.148  18.576 -23.269  0.00  0.00     0.087 C 
BRANCH  15  16
ATOM     16  S   UNL d   1      32.392  17.822 -23.485  0.00  0.00    -0.093 SA
BRANCH  16  17
ATOM     17  C   UNL d   1      31.869  17.274 -23.779  0.00  0.00     0.107 A 
ATOM     18  N   UNL d   1      31.786  16.543 -23.419  0.00  0.00    -0.238 NA
ATOM     19  C   UNL d   1      31.266  15.989 -23.707  0.00  0.00     0.100 A 
ATOM     20  C   UNL d   1      30.805  16.176 -24.389  0.00  0.00     0.021 A 
ATOM     21  C   UNL d   1      30.888  16.907 -24.749  0.00  0.00     0.004 A 
ATOM     22  C   UNL d   1      31.421  17.459 -24.446  0.00  0.00     0.025 A 
ENDBRANCH  16  17
ENDBRANCH  15  16
ENDBRANCH  12  15
ENDBRANCH   1  12
TORSDOF 6
ENDMDL
MODEL 2
REMARK VINA RESULT:      -2.2      2.624      5.043
REMARK  6 active torsions:
REMARK  status: ('A' for Active; 'I' for Inactive)
REMARK    1  A    between atoms: N_2  and  S_1 
REMARK    2  A    between atoms: C_3  and  S_1 
REMARK    3  A    between atoms: C_6  and  N_2 
REMARK    4  A    between atoms: C_12  and  C_6 
REMARK    5  A    between atoms: C_7  and  S_9 
REMARK    6  A    between atoms: S_9  and  C_12 
ROOT
ATOM      1  N   UNL d   1      31.681  17.062 -24.311  0.00  0.00    -0.188 NA
ENDROOT
BRANCH   1   2
ATOM      2  S   UNL d   1      30.923  16.771 -24.170  0.00  0.00     0.281 S 
ATOM      3  O   UNL d   1      31.210  16.268 -23.568  0.00  0.00    -0.199 OA
ATOM      4  O   UNL d   1      30.624  17.261 -24.761  0.00  0.00    -0.199 OA
BRANCH   2   5
ATOM      5  C   UNL d   1      30.144  16.472 -24.024  0.00  0.00     0.105 A 
ATOM      6  C   UNL d   1      29.483  16.920 -24.235  0.00  0.00     0.014 A 
ATOM      7  C   UNL d   1      28.741  16.638 -24.097  0.00  0.00     0.012 A 
ATOM      8  C   UNL d   1      28.626  15.890 -23.740  0.00  0.00     0.058 A 
ATOM      9  C   UNL d   1      29.298  15.455 -23.536  0.00  0.00     0.012 A 
ATOM     10 CL   UNL d   1      27.864  15.583 -23.591  0.00  0.00    -0.082 Cl
ATOM     11  C   UNL d   1      30.054  15.748 -23.679  0.00  0.00     0.014 A 
ENDBRANCH   2   5
ENDBRANCH   1   2
BRANCH   1  12
ATOM     12  C   UNL d   1      32.046  17.549 -23.754  0.00  0.00     0.107 C 
ATOM     13  C   UNL d   1      31.895  18.206 -24.225  0.00  0.00     0.026 C 
ATOM     14  C   UNL d   1      32.197  16.869 -23.276  0.00  0.00     0.026 C 
BRANCH  12  15
ATOM     15  C   UNL d   1      32.410  18.028 -23.195  0.00  0.00     0.087 C 
BRANCH  15  16
ATOM     16  S   UNL d   1      32.797  18.716 -23.424  0.00  0.00    -0.093 SA
BRANCH  16  17
ATOM     17  C   UNL d   1      32.944  19.317 -22.897  0.00  0.00     0.107 A 
ATOM     18  N   UNL d   1      33.022  19.159 -22.097  0.00  0.00    -0.238 NA
ATOM     19  C   UNL d   1      33.168  19.753 -21.563  0.00  0.00     0.100 A 
ATOM     20  C   UNL d   1      33.240  20.547 -21.843  0.00  0.00     0.021 A 
ATOM     21  C   UNL d   1      33.163  20.705 -22.643  0.00  0.00     0.004 A 
ATOM     22  C   UNL d   1      33.014  20.091 -23.173  0.00  0.00     0.025 A 
ENDBRANCH  16  17
ENDBRANCH  15  16
ENDBRANCH  12  15
ENDBRANCH   1  12
TORSDOF 6
ENDMDL
MODEL 3
REMARK VINA RESULT:       0.4      3.453      5.548
REMARK  6 active torsions:
REMARK  status: ('A' for Active; 'I' for Inactive)
REMARK    1  A    between atoms: N_2  and  S_1 
REMARK    2  A    between atoms: C_3  and  S_1 
REMARK    3  A    between atoms: C_6  and  N_2 
REMARK    4  A    between atoms: C_12  and  C_6 
REMARK    5  A    between atoms: C_7  and  S_9 
REMARK    6  A    between atoms: S_9  and  C_12 
ROOT
ATOM      1  N   UNL d   1      29.744  16.588 -24.944  0.00  0.00    -0.188 NA
ENDROOT
BRANCH   1   2
ATOM      2  S   UNL d   1      29.069  16.417 -24.501  0.00  0.00     0.281 S 
ATOM      3  O   UNL d   1      29.447  15.762 -24.147  0.00  0.00    -0.199 OA
ATOM      4  O   UNL d   1      28.682  17.061 -24.843  0.00  0.00    -0.199 OA
BRANCH   2   5
ATOM      5  C   UNL d   1      28.376  16.242 -24.047  0.00  0.00     0.105 A 
ATOM      6  C   UNL d   1      28.190  16.699 -23.384  0.00  0.00     0.014 A 
ATOM      7  C   UNL d   1      27.532  16.534 -22.951  0.00  0.00     0.012 A 
ATOM      8  C   UNL d   1      27.027  15.901 -23.162  0.00  0.00     0.058 A 
ATOM      9  C   UNL d   1      27.228  15.454 -23.827  0.00  0.00     0.012 A 
ATOM     10 CL   UNL d   1      26.341  15.717 -22.723  0.00  0.00    -0.082 Cl
ATOM     11  C   UNL d   1      27.902  15.627 -24.267  0.00  0.00     0.014 A 
ENDBRANCH   2   5
ENDBRANCH   1   2
BRANCH   1  12
ATOM     12  C   UNL d   1      30.467  16.703 -24.564  0.00  0.00     0.107 C 
ATOM     13  C   UNL d   1      30.172  17.381 -24.202  0.00  0.00     0.026 C 
ATOM     14  C   UNL d   1      30.762  16.006 -24.939  0.00  0.00     0.026 C 
BRANCH  12  15
ATOM     15  C   UNL d   1      31.190  16.812 -24.188  0.00  0.00     0.087 C 
BRANCH  15  16
ATOM     16  S   UNL d   1      31.738  17.346 -24.487  0.00  0.00    -0.093 SA
BRANCH  16  17
ATOM     17  C   UNL d   1      32.227  17.772 -23.996  0.00  0.00     0.107 A 
ATOM     18  N   UNL d   1      32.212  18.591 -24.002  0.00  0.00    -0.238 NA
ATOM     19  C   UNL d   1      32.697  19.023 -23.515  0.00  0.00     0.100 A 
ATOM     20  C   UNL d   1      33.224  18.617 -22.995  0.00  0.00     0.021 A 
ATOM     21  C   UNL d   1      33.239  17.798 -22.989  0.00  0.00     0.004 A 
ATOM     22  C   UNL d   1      32.741  17.372 -23.490  0.00  0.00     0.025 A 
ENDBRANCH  16  17
ENDBRANCH  15  16
ENDBRANCH  12  15
ENDBRANCH   1  12
TORSDOF 6
ENDMDL
