MODEL 1
REMARK VINA RESULT:      -2.6      0.000      0.000
REMARK  4 active torsions:
REMARK  status: ('A' for Active; 'I' for Inactive)
REMARK    1  A    between atoms: S_2  and  C_1 
REMARK    2  A    between atoms: C_7  and  S_2 
REMARK    3  A    between atoms: O_13  and  C_6 
REMARK    4  A    between atoms: C_17  and  O_13 
ROOT
ATOM      1  S   UNL d   1      32.957  21.691 -21.102  0.00  0.00     0.228 S 
ATOM      2  O   UNL d   1      33.132  22.206 -21.703  0.00  0.00    -0.216 OA
ATOM      3  O   UNL d   1      32.784  21.114 -20.534  0.00  0.00    -0.216 OA
ENDROOT
BRANCH   1   4
ATOM      4  C   UNL d   1      32.886  22.270 -20.570  0.00  0.00     0.188 A 
ATOM      5  N   UNL d   1      33.241  22.388 -19.841  0.00  0.00    -0.203 NA
ATOM      6  C   UNL d   1      32.933  23.108 -19.548  0.00  0.00     0.217 A 
ATOM      7  S   UNL d   1      32.430  23.404 -20.059  0.00  0.00    -0.029 SA
ATOM      8  C   UNL d   1      32.381  22.903 -20.705  0.00  0.00     0.119 A 
ATOM      9 CL   UNL d   1      31.902  23.008 -21.392  0.00  0.00    -0.073 Cl
BRANCH   6  10
ATOM     10  O   UNL d   1      33.130  23.477 -18.802  0.00  0.00    -0.282 OA
BRANCH  10  11
ATOM     11  C   UNL d   1      33.036  23.085 -18.103  0.00  0.00     0.125 C 
ATOM     12  C   UNL d   1      33.154  23.473 -17.396  0.00  0.00     0.029 C 
ENDBRANCH  10  11
ENDBRANCH   6  10
ENDBRANCH   1   4
BRANCH   1  13
ATOM     13  C   UNL d   1      33.032  21.057 -21.672  0.00  0.00     0.089 A 
ATOM     14  C   UNL d   1      33.172  21.208 -22.483  0.00  0.00     0.011 A 
ATOM     15  C   UNL d   1      33.241  20.600 -23.012  0.00  0.00     0.001 A 
ATOM     16  C   UNL d   1      33.170  19.828 -22.729  0.00  0.00     0.000 A 
ATOM     17  C   UNL d   1      33.037  19.673 -21.956  0.00  0.00     0.001 A 
ATOM     18  C   UNL d   1      33.237  19.177 -23.254  0.00  0.00     0.000 C 
ATOM     19  C   UNL d   1      32.962  20.279 -21.395  0.00  0.00     0.011 A 
ENDBRANCH   1  13
TORSDOF 4
ENDMDL
MODEL 2
REMARK VINA RESULT:      -2.3      2.845      4.097
REMARK  4 active torsions:
REMARK  status: ('A' for Active; 'I' for Inactive)
REMARK    1  A    between atoms: S_2  and  C_1 
REMARK    2  A    between atoms: C_7  and  S_2 
REMARK    3  A    between atoms: O_13  and  C_6 
REMARK    4  A    between atoms: C_17  and  O_13 
ROOT
ATOM      1  S   UNL d   1      32.587  18.415 -23.279  0.00  0.00     0.228 S 
ATOM      2  O   UNL d   1      33.018  18.007 -22.727  0.00  0.00    -0.216 OA
ATOM      3  O   UNL d   1      32.129  18.770 -23.870  0.00  0.00    -0.216 OA
ENDROOT
BRANCH   1   4
ATOM      4  C   UNL d   1      32.783  19.117 -22.976  0.00  0.00     0.188 A 
ATOM      5  N   UNL d   1      32.737  19.415 -22.214  0.00  0.00    -0.203 NA
ATOM      6  C   UNL d   1      33.032  20.196 -22.253  0.00  0.00     0.217 A 
ATOM      7  S   UNL d   1      33.241  20.359 -22.982  0.00  0.00    -0.029 SA
ATOM      8  C   UNL d   1      33.097  19.706 -23.454  0.00  0.00     0.119 A 
ATOM      9 CL   UNL d   1      33.241  19.638 -24.282  0.00  0.00    -0.073 Cl
BRANCH   6  10
ATOM     10  O   UNL d   1      33.101  20.745 -21.601  0.00  0.00    -0.282 OA
BRANCH  10  11
ATOM     11  C   UNL d   1      32.451  20.990 -21.190  0.00  0.00     0.125 C 
ATOM     12  C   UNL d   1      32.478  21.678 -20.753  0.00  0.00     0.029 C 
ENDBRANCH  10  11
ENDBRANCH   6  10
ENDBRANCH   1   4
BRANCH   1  13
ATOM     13  C   UNL d   1      32.369  17.658 -23.614  0.00  0.00     0.089 A 
ATOM     14  C   UNL d   1      31.588  17.498 -23.869  0.00  0.00     0.011 A 
ATOM     15  C   UNL d   1      31.394  16.779 -24.184  0.00  0.00     0.001 A 
ATOM     16  C   UNL d   1      31.987  16.209 -24.246  0.00  0.00     0.000 A 
ATOM     17  C   UNL d   1      32.737  16.351 -24.005  0.00  0.00     0.001 A 
ATOM     18  C   UNL d   1      31.816  15.453 -24.569  0.00  0.00     0.000 C 
ATOM     19  C   UNL d   1      32.959  17.081 -23.679  0.00  0.00     0.011 A 
ENDBRANCH   1  13
TORSDOF 4
ENDMDL
MODEL 3
REMARK VINA RESULT:      -1.6      2.161      4.617
REMARK  4 active torsions:
REMARK  status: ('A' for Active; 'I' for Inactive)
REMARK    1  A    between atoms: S_2  and  C_1 
REMARK    2  A    between atoms: C_7  and  S_2 
REMARK    3  A    between atoms: O_13  and  C_6 
REMARK    4  A    between atoms: C_17  and  O_13 
ROOT
ATOM      1  S   UNL d   1      32.772  20.645 -22.012  0.00  0.00     0.228 S 
ATOM      2  O   UNL d   1      32.306  20.280 -21.457  0.00  0.00    -0.216 OA
ATOM      3  O   UNL d   1      33.241  21.075 -22.541  0.00  0.00    -0.216 OA
ENDROOT
BRANCH   1   4
ATOM      4  C   UNL d   1      32.843  19.988 -22.445  0.00  0.00     0.188 A 
ATOM      5  N   UNL d   1      32.730  19.848 -23.245  0.00  0.00    -0.203 NA
ATOM      6  C   UNL d   1      32.894  19.036 -23.362  0.00  0.00     0.217 A 
ATOM      7  S   UNL d   1      33.091  18.710 -22.686  0.00  0.00    -0.029 SA
ATOM      8  C   UNL d   1      33.067  19.279 -22.098  0.00  0.00     0.119 A 
ATOM      9 CL   UNL d   1      33.240  19.170 -21.280  0.00  0.00    -0.073 Cl
BRANCH   6  10
ATOM     10  O   UNL d   1      32.856  18.614 -24.105  0.00  0.00    -0.282 OA
BRANCH  10  11
ATOM     11  C   UNL d   1      32.648  17.835 -24.132  0.00  0.00     0.125 C 
ATOM     12  C   UNL d   1      32.834  17.384 -24.785  0.00  0.00     0.029 C 
ENDBRANCH  10  11
ENDBRANCH   6  10
ENDBRANCH   1   4
BRANCH   1  13
ATOM     13  C   UNL d   1      32.700  21.361 -21.548  0.00  0.00     0.089 A 
ATOM     14  C   UNL d   1      32.164  21.419 -20.909  0.00  0.00     0.011 A 
ATOM     15  C   UNL d   1      32.105  22.101 -20.478  0.00  0.00     0.001 A 
ATOM     16  C   UNL d   1      32.588  22.736 -20.687  0.00  0.00     0.000 A 
ATOM     17  C   UNL d   1      33.104  22.691 -21.298  0.00  0.00     0.001 A 
ATOM     18  C   UNL d   1      32.549  23.457 -20.259  0.00  0.00     0.000 C 
ATOM     19  C   UNL d   1      33.182  22.002 -21.753  0.00  0.00     0.011 A 
ENDBRANCH   1  13
TORSDOF 4
ENDMDL
MODEL 4
REMARK VINA RESULT:      -1.4      1.866      4.364
REMARK  4 active torsions:
REMARK  status: ('A' for Active; 'I' for Inactive)
REMARK    1  A    between atoms: S_2  and  C_1 
REMARK    2  A    between atoms: C_7  and  S_2 
REMARK    3  A    between atoms: O_13  and  C_6 
REMARK    4  A    between atoms: C_17  and  O_13 
ROOT
ATOM      1  S   UNL d   1      32.961  20.700 -21.658  0.00  0.00     0.228 S 
ATOM      2  O   UNL d   1      33.005  20.284 -20.963  0.00  0.00    -0.216 OA
ATOM      3  O   UNL d   1      32.910  21.182 -22.329  0.00  0.00    -0.216 OA
ENDROOT
BRANCH   1   4
ATOM      4  C   UNL d   1      33.036  20.050 -22.100  0.00  0.00     0.188 A 
ATOM      5  N   UNL d   1      33.005  19.254 -21.910  0.00  0.00    -0.203 NA
ATOM      6  C   UNL d   1      33.125  18.840 -22.627  0.00  0.00     0.217 A 
ATOM      7  S   UNL d   1      33.221  19.347 -23.207  0.00  0.00    -0.029 SA
ATOM      8  C   UNL d   1      33.170  20.107 -22.908  0.00  0.00     0.119 A 
ATOM      9 CL   UNL d   1      33.241  20.828 -23.342  0.00  0.00    -0.073 Cl
BRANCH   6  10
ATOM     10  O   UNL d   1      33.143  17.991 -22.725  0.00  0.00    -0.282 OA
BRANCH  10  11
ATOM     11  C   UNL d   1      32.777  17.634 -23.349  0.00  0.00     0.125 C 
ATOM     12  C   UNL d   1      32.887  16.838 -23.488  0.00  0.00     0.029 C 
ENDBRANCH  10  11
ENDBRANCH   6  10
ENDBRANCH   1   4
BRANCH   1  13
ATOM     13  C   UNL d   1      32.879  21.410 -21.186  0.00  0.00     0.089 A 
ATOM     14  C   UNL d   1      32.455  22.076 -21.463  0.00  0.00     0.011 A 
ATOM     15  C   UNL d   1      32.385  22.741 -21.007  0.00  0.00     0.001 A 
ATOM     16  C   UNL d   1      32.743  22.743 -20.264  0.00  0.00     0.000 A 
ATOM     17  C   UNL d   1      33.150  22.111 -19.990  0.00  0.00     0.001 A 
ATOM     18  C   UNL d   1      32.687  23.418 -19.769  0.00  0.00     0.000 C 
ATOM     19  C   UNL d   1      33.236  21.418 -20.438  0.00  0.00     0.011 A 
ENDBRANCH   1  13
TORSDOF 4
ENDMDL
MODEL 5
REMARK VINA RESULT:      -1.3      2.349      3.548
REMARK  4 active torsions:
REMARK  status: ('A' for Active; 'I' for Inactive)
REMARK    1  A    between atoms: S_2  and  C_1 
REMARK    2  A    between atoms: C_7  and  S_2 
REMARK    3  A    between atoms: O_13  and  C_6 
REMARK    4  A    between atoms: C_17  and  O_13 
ROOT
ATOM      1  S   UNL d   1      32.759  19.134 -23.201  0.00  0.00     0.228 S 
ATOM      2  O   UNL d   1      33.241  19.378 -23.806  0.00  0.00    -0.216 OA
ATOM      3  O   UNL d   1      32.254  18.827 -22.621  0.00  0.00    -0.216 OA
ENDROOT
BRANCH   1   4
ATOM      4  C   UNL d   1      32.904  19.779 -22.769  0.00  0.00     0.188 A 
ATOM      5  N   UNL d   1      32.869  20.577 -22.951  0.00  0.00    -0.203 NA
ATOM      6  C   UNL d   1      33.086  20.983 -22.254  0.00  0.00     0.217 A 
ATOM      7  S   UNL d   1      33.240  20.471 -21.691  0.00  0.00    -0.029 SA
ATOM      8  C   UNL d   1      33.135  19.714 -21.984  0.00  0.00     0.119 A 
ATOM      9 CL   UNL d   1      33.241  18.989 -21.565  0.00  0.00    -0.073 Cl
BRANCH   6  10
ATOM     10  O   UNL d   1      33.137  21.831 -22.156  0.00  0.00    -0.282 OA
BRANCH  10  11
ATOM     11  C   UNL d   1      32.764  22.204 -21.545  0.00  0.00     0.125 C 
ATOM     12  C   UNL d   1      32.732  23.019 -21.522  0.00  0.00     0.029 C 
ENDBRANCH  10  11
ENDBRANCH   6  10
ENDBRANCH   1   4
BRANCH   1  13
ATOM     13  C   UNL d   1      32.597  18.431 -23.663  0.00  0.00     0.089 A 
ATOM     14  C   UNL d   1      33.210  17.927 -23.927  0.00  0.00     0.011 A 
ATOM     15  C   UNL d   1      33.044  17.266 -24.362  0.00  0.00     0.001 A 
ATOM     16  C   UNL d   1      32.255  17.104 -24.539  0.00  0.00     0.000 A 
ATOM     17  C   UNL d   1      31.661  17.580 -24.291  0.00  0.00     0.001 A 
ATOM     18  C   UNL d   1      32.051  16.425 -24.989  0.00  0.00     0.000 C 
ATOM     19  C   UNL d   1      31.806  18.263 -23.843  0.00  0.00     0.011 A 
ENDBRANCH   1  13
TORSDOF 4
ENDMDL
MODEL 6
REMARK VINA RESULT:      -0.9      0.973      4.206
REMARK  4 active torsions:
REMARK  status: ('A' for Active; 'I' for Inactive)
REMARK    1  A    between atoms: S_2  and  C_1 
REMARK    2  A    between atoms: C_7  and  S_2 
REMARK    3  A    between atoms: O_13  and  C_6 
REMARK    4  A    between atoms: C_17  and  O_13 
ROOT
ATOM      1  S   UNL d   1      32.909  22.414 -19.394  0.00  0.00     0.228 S 
ATOM      2  O   UNL d   1      33.240  21.734 -19.102  0.00  0.00    -0.216 OA
ATOM      3  O   UNL d   1      32.569  23.131 -19.629  0.00  0.00    -0.216 OA
ENDROOT
BRANCH   1   4
ATOM      4  C   UNL d   1      32.925  22.151 -20.139  0.00  0.00     0.188 A 
ATOM      5  N   UNL d   1      32.941  21.393 -20.450  0.00  0.00    -0.203 NA
ATOM      6  C   UNL d   1      32.954  21.484 -21.281  0.00  0.00     0.217 A 
ATOM      7  S   UNL d   1      32.946  22.239 -21.460  0.00  0.00    -0.029 SA
ATOM      8  C   UNL d   1      32.928  22.677 -20.769  0.00  0.00     0.119 A 
ATOM      9 CL   UNL d   1      32.915  23.518 -20.702  0.00  0.00    -0.073 Cl
BRANCH   6  10
ATOM     10  O   UNL d   1      32.973  20.855 -21.860  0.00  0.00    -0.282 OA
BRANCH  10  11
ATOM     11  C   UNL d   1      33.208  20.110 -21.660  0.00  0.00     0.125 C 
ATOM     12  C   UNL d   1      33.229  19.522 -22.224  0.00  0.00     0.029 C 
ENDBRANCH  10  11
ENDBRANCH   6  10
ENDBRANCH   1   4
BRANCH   1  13
ATOM     13  C   UNL d   1      32.887  22.706 -18.590  0.00  0.00     0.089 A 
ATOM     14  C   UNL d   1      32.523  23.435 -18.397  0.00  0.00     0.011 A 
ATOM     15  C   UNL d   1      32.509  23.701 -17.634  0.00  0.00     0.001 A 
ATOM     16  C   UNL d   1      32.863  23.235 -17.052  0.00  0.00     0.000 A 
ATOM     17  C   UNL d   1      33.214  22.537 -17.227  0.00  0.00     0.001 A 
ATOM     18  C   UNL d   1      32.865  23.485 -16.251  0.00  0.00     0.000 C 
ATOM     19  C   UNL d   1      33.241  22.243 -18.002  0.00  0.00     0.011 A 
ENDBRANCH   1  13
TORSDOF 4
ENDMDL
MODEL 7
REMARK VINA RESULT:       0.2      1.746      2.364
REMARK  4 active torsions:
REMARK  status: ('A' for Active; 'I' for Inactive)
REMARK    1  A    between atoms: S_2  and  C_1 
REMARK    2  A    between atoms: C_7  and  S_2 
REMARK    3  A    between atoms: O_13  and  C_6 
REMARK    4  A    between atoms: C_17  and  O_13 
ROOT
ATOM      1  S   UNL d   1      32.791  22.934 -19.997  0.00  0.00     0.228 S 
ATOM      2  O   UNL d   1      33.036  23.702 -20.082  0.00  0.00    -0.216 OA
ATOM      3  O   UNL d   1      32.532  22.147 -19.978  0.00  0.00    -0.216 OA
ENDROOT
BRANCH   1   4
ATOM      4  C   UNL d   1      32.889  22.945 -19.213  0.00  0.00     0.188 A 
ATOM      5  N   UNL d   1      32.816  23.547 -18.662  0.00  0.00    -0.203 NA
ATOM      6  C   UNL d   1      32.994  23.205 -17.920  0.00  0.00     0.217 A 
ATOM      7  S   UNL d   1      33.162  22.454 -18.014  0.00  0.00    -0.029 SA
ATOM      8  C   UNL d   1      33.105  22.264 -18.808  0.00  0.00     0.119 A 
ATOM      9 CL   UNL d   1      33.240  21.509 -19.160  0.00  0.00    -0.073 Cl
BRANCH   6  10
ATOM     10  O   UNL d   1      32.995  23.606 -17.165  0.00  0.00    -0.282 OA
BRANCH  10  11
ATOM     11  C   UNL d   1      33.238  23.231 -16.493  0.00  0.00     0.125 C 
ATOM     12  C   UNL d   1      33.122  23.580 -15.765  0.00  0.00     0.029 C 
ENDBRANCH  10  11
ENDBRANCH   6  10
ENDBRANCH   1   4
BRANCH   1  13
ATOM     13  C   UNL d   1      32.681  22.912 -20.845  0.00  0.00     0.089 A 
ATOM     14  C   UNL d   1      32.985  22.288 -21.312  0.00  0.00     0.011 A 
ATOM     15  C   UNL d   1      32.875  22.279 -22.114  0.00  0.00     0.001 A 
ATOM     16  C   UNL d   1      32.456  22.901 -22.456  0.00  0.00     0.000 A 
ATOM     17  C   UNL d   1      32.161  23.503 -22.018  0.00  0.00     0.001 A 
ATOM     18  C   UNL d   1      32.325  22.920 -23.285  0.00  0.00     0.000 C 
ATOM     19  C   UNL d   1      32.261  23.534 -21.195  0.00  0.00     0.011 A 
ENDBRANCH   1  13
TORSDOF 4
ENDMDL
MODEL 8
REMARK VINA RESULT:       0.3      6.378      7.633
REMARK  4 active torsions:
REMARK  status: ('A' for Active; 'I' for Inactive)
REMARK    1  A    between atoms: S_2  and  C_1 
REMARK    2  A    between atoms: C_7  and  S_2 
REMARK    3  A    between atoms: O_13  and  C_6 
REMARK    4  A    between atoms: C_17  and  O_13 
ROOT
ATOM      1  S   UNL d   1      29.733  16.757 -24.118  0.00  0.00     0.228 S 
ATOM      2  O   UNL d   1      29.382  17.148 -24.735  0.00  0.00    -0.216 OA
ATOM      3  O   UNL d   1      30.148  16.391 -23.502  0.00  0.00    -0.216 OA
ENDROOT
BRANCH   1   4
ATOM      4  C   UNL d   1      29.072  16.365 -23.936  0.00  0.00     0.188 A 
ATOM      5  N   UNL d   1      28.535  16.453 -23.322  0.00  0.00    -0.203 NA
ATOM      6  C   UNL d   1      27.952  15.866 -23.438  0.00  0.00     0.217 A 
ATOM      7  S   UNL d   1      28.122  15.453 -24.073  0.00  0.00    -0.029 SA
ATOM      8  C   UNL d   1      28.813  15.741 -24.402  0.00  0.00     0.119 A 
ATOM      9 CL   UNL d   1      29.200  15.457 -25.097  0.00  0.00    -0.073 Cl
BRANCH   6  10
ATOM     10  O   UNL d   1      27.268  15.727 -22.944  0.00  0.00    -0.282 OA
BRANCH  10  11
ATOM     11  C   UNL d   1      26.568  15.479 -23.260  0.00  0.00     0.125 C 
ATOM     12  C   UNL d   1      25.865  15.799 -22.999  0.00  0.00     0.029 C 
ENDBRANCH  10  11
ENDBRANCH   6  10
ENDBRANCH   1   4
BRANCH   1  13
ATOM     13  C   UNL d   1      30.453  17.178 -24.307  0.00  0.00     0.089 A 
ATOM     14  C   UNL d   1      31.203  16.901 -24.058  0.00  0.00     0.011 A 
ATOM     15  C   UNL d   1      31.877  17.307 -24.244  0.00  0.00     0.001 A 
ATOM     16  C   UNL d   1      31.804  18.001 -24.685  0.00  0.00     0.000 A 
ATOM     17  C   UNL d   1      31.092  18.274 -24.927  0.00  0.00     0.001 A 
ATOM     18  C   UNL d   1      32.486  18.445 -24.893  0.00  0.00     0.000 C 
ATOM     19  C   UNL d   1      30.387  17.875 -24.749  0.00  0.00     0.011 A 
ENDBRANCH   1  13
TORSDOF 4
ENDMDL
