MODEL 1
REMARK VINA RESULT:      14.5      0.000      0.000
REMARK  1 active torsions:
REMARK  status: ('A' for Active; 'I' for Inactive)
REMARK    1  A    between atoms: C_6  and  C_1 
ROOT
ATOM      1  C   UNL d   1      43.944 -15.418  36.667  0.00  0.00     0.111 A 
ATOM      2  N   UNL d   1      44.204 -14.749  37.073  0.00  0.00    -0.239 NA
ATOM      3  S   UNL d   1      44.606 -15.814  36.351  0.00  0.00    -0.066 SA
ATOM      4  C   UNL d   1      45.023 -14.727  37.010  0.00  0.00     0.088 A 
ATOM      5  C   UNL d   1      45.269 -15.379  36.568  0.00  0.00     0.049 A 
ATOM      6  C   UNL d   1      45.589 -14.190  37.302  0.00  0.00     0.020 A 
ATOM      7  C   UNL d   1      46.080 -15.490  36.422  0.00  0.00     0.008 A 
ATOM      8  C   UNL d   1      46.647 -14.956  36.711  0.00  0.00     0.001 A 
ATOM      9  C   UNL d   1      46.401 -14.304  37.153  0.00  0.00     0.002 A 
ENDROOT
BRANCH   1  10
ATOM     10  C   UNL d   1      43.194 -15.697  36.558  0.00  0.00     0.025 A 
ATOM     11  C   UNL d   1      42.518 -15.188  36.556  0.00  0.00     0.023 A 
ATOM     12  C   UNL d   1      41.773 -15.475  36.446  0.00  0.00     0.103 A 
ATOM     13  N   UNL d   1      41.145 -14.940  36.452  0.00  0.00    -0.148 N 
ATOM     14  C   UNL d   1      41.669 -16.315  36.330  0.00  0.00     0.021 A 
ATOM     15  C   UNL d   1      42.314 -16.817  36.330  0.00  0.00     0.002 A 
ATOM     16  C   UNL d   1      43.062 -16.500  36.444  0.00  0.00     0.002 A 
ENDBRANCH   1  10
TORSDOF 1
ENDMDL
MODEL 2
REMARK VINA RESULT:      14.9      0.997      3.672
REMARK  1 active torsions:
REMARK  status: ('A' for Active; 'I' for Inactive)
REMARK    1  A    between atoms: C_6  and  C_1 
ROOT
ATOM      1  C   UNL d   1      44.303 -15.497  36.626  0.00  0.00     0.111 A 
ATOM      2  N   UNL d   1      44.014 -16.253  36.466  0.00  0.00    -0.239 NA
ATOM      3  S   UNL d   1      43.658 -14.977  36.718  0.00  0.00    -0.066 SA
ATOM      4  C   UNL d   1      43.193 -16.205  36.459  0.00  0.00     0.088 A 
ATOM      5  C   UNL d   1      42.975 -15.424  36.613  0.00  0.00     0.049 A 
ATOM      6  C   UNL d   1      42.603 -16.779  36.330  0.00  0.00     0.020 A 
ATOM      7  C   UNL d   1      42.169 -15.223  36.637  0.00  0.00     0.008 A 
ATOM      8  C   UNL d   1      41.578 -15.793  36.508  0.00  0.00     0.001 A 
ATOM      9  C   UNL d   1      41.796 -16.574  36.355  0.00  0.00     0.002 A 
ENDROOT
BRANCH   1  10
ATOM     10  C   UNL d   1      45.064 -15.239  36.694  0.00  0.00     0.025 A 
ATOM     11  C   UNL d   1      45.266 -14.526  37.104  0.00  0.00     0.023 A 
ATOM     12  C   UNL d   1      46.030 -14.277  37.167  0.00  0.00     0.103 A 
ATOM     13  N   UNL d   1      46.178 -13.576  37.576  0.00  0.00    -0.148 N 
ATOM     14  C   UNL d   1      46.647 -14.748  36.810  0.00  0.00     0.021 A 
ATOM     15  C   UNL d   1      46.465 -15.438  36.412  0.00  0.00     0.002 A 
ATOM     16  C   UNL d   1      45.680 -15.670  36.361  0.00  0.00     0.002 A 
ENDBRANCH   1  10
TORSDOF 1
ENDMDL
MODEL 3
REMARK VINA RESULT:      15.9      7.894      8.427
REMARK  1 active torsions:
REMARK  status: ('A' for Active; 'I' for Inactive)
REMARK    1  A    between atoms: C_6  and  C_1 
ROOT
ATOM      1  C   UNL d   1      45.910 -16.643  44.367  0.00  0.00     0.111 A 
ATOM      2  N   UNL d   1      46.362 -15.976  44.189  0.00  0.00    -0.239 NA
ATOM      3  S   UNL d   1      45.182 -16.396  44.687  0.00  0.00    -0.066 SA
ATOM      4  C   UNL d   1      45.916 -15.316  44.397  0.00  0.00     0.088 A 
ATOM      5  C   UNL d   1      45.194 -15.574  44.701  0.00  0.00     0.049 A 
ATOM      6  C   UNL d   1      46.076 -14.500  44.348  0.00  0.00     0.020 A 
ATOM      7  C   UNL d   1      44.635 -15.013  44.955  0.00  0.00     0.008 A 
ATOM      8  C   UNL d   1      44.791 -14.198  44.907  0.00  0.00     0.001 A 
ATOM      9  C   UNL d   1      45.514 -13.941  44.603  0.00  0.00     0.002 A 
ENDROOT
BRANCH   1  10
ATOM     10  C   UNL d   1      46.086 -17.425  44.273  0.00  0.00     0.025 A 
ATOM     11  C   UNL d   1      46.271 -17.760  43.517  0.00  0.00     0.023 A 
ATOM     12  C   UNL d   1      46.445 -18.541  43.432  0.00  0.00     0.103 A 
ATOM     13  N   UNL d   1      46.619 -18.822  42.675  0.00  0.00    -0.148 N 
ATOM     14  C   UNL d   1      46.442 -19.041  44.125  0.00  0.00     0.021 A 
ATOM     15  C   UNL d   1      46.265 -18.730  44.860  0.00  0.00     0.002 A 
ATOM     16  C   UNL d   1      46.091 -17.931  44.920  0.00  0.00     0.002 A 
ENDBRANCH   1  10
TORSDOF 1
ENDMDL
MODEL 4
REMARK VINA RESULT:      16.1      7.726      8.413
REMARK  1 active torsions:
REMARK  status: ('A' for Active; 'I' for Inactive)
REMARK    1  A    between atoms: C_6  and  C_1 
ROOT
ATOM      1  C   UNL d   1      45.862 -16.742  44.323  0.00  0.00     0.111 A 
ATOM      2  N   UNL d   1      46.025 -17.370  44.833  0.00  0.00    -0.239 NA
ATOM      3  S   UNL d   1      45.971 -17.000  43.538  0.00  0.00    -0.066 SA
ATOM      4  C   UNL d   1      46.236 -18.015  44.369  0.00  0.00     0.088 A 
ATOM      5  C   UNL d   1      46.203 -17.789  43.576  0.00  0.00     0.049 A 
ATOM      6  C   UNL d   1      46.457 -18.793  44.566  0.00  0.00     0.020 A 
ATOM      7  C   UNL d   1      46.392 -18.342  42.985  0.00  0.00     0.008 A 
ATOM      8  C   UNL d   1      46.613 -19.119  43.179  0.00  0.00     0.001 A 
ATOM      9  C   UNL d   1      46.646 -19.346  43.972  0.00  0.00     0.002 A 
ENDROOT
BRANCH   1  10
ATOM     10  C   UNL d   1      45.632 -15.987  44.491  0.00  0.00     0.025 A 
ATOM     11  C   UNL d   1      46.146 -15.323  44.386  0.00  0.00     0.023 A 
ATOM     12  C   UNL d   1      45.908 -14.573  44.556  0.00  0.00     0.103 A 
ATOM     13  N   UNL d   1      46.445 -13.957  44.438  0.00  0.00    -0.148 N 
ATOM     14  C   UNL d   1      45.115 -14.449  44.849  0.00  0.00     0.021 A 
ATOM     15  C   UNL d   1      44.609 -15.082  44.955  0.00  0.00     0.002 A 
ATOM     16  C   UNL d   1      44.875 -15.837  44.774  0.00  0.00     0.002 A 
ENDBRANCH   1  10
TORSDOF 1
ENDMDL
MODEL 5
REMARK VINA RESULT:      16.7      7.520      8.291
REMARK  1 active torsions:
REMARK  status: ('A' for Active; 'I' for Inactive)
REMARK    1  A    between atoms: C_6  and  C_1 
ROOT
ATOM      1  C   UNL d   1      45.528 -14.550  44.350  0.00  0.00     0.111 A 
ATOM      2  N   UNL d   1      45.129 -15.061  44.861  0.00  0.00    -0.239 NA
ATOM      3  S   UNL d   1      45.973 -15.004  43.812  0.00  0.00    -0.066 SA
ATOM      4  C   UNL d   1      45.325 -15.829  44.642  0.00  0.00     0.088 A 
ATOM      5  C   UNL d   1      45.842 -15.794  44.000  0.00  0.00     0.049 A 
ATOM      6  C   UNL d   1      45.098 -16.569  44.949  0.00  0.00     0.020 A 
ATOM      7  C   UNL d   1      46.127 -16.500  43.667  0.00  0.00     0.008 A 
ATOM      8  C   UNL d   1      45.902 -17.241  43.971  0.00  0.00     0.001 A 
ATOM      9  C   UNL d   1      45.386 -17.275  44.613  0.00  0.00     0.002 A 
ENDROOT
BRANCH   1  10
ATOM     10  C   UNL d   1      45.529 -13.744  44.324  0.00  0.00     0.025 A 
ATOM     11  C   UNL d   1      45.172 -13.311  43.689  0.00  0.00     0.023 A 
ATOM     12  C   UNL d   1      45.178 -12.506  43.671  0.00  0.00     0.103 A 
ATOM     13  N   UNL d   1      44.817 -12.128  43.031  0.00  0.00    -0.148 N 
ATOM     14  C   UNL d   1      45.554 -12.083  44.310  0.00  0.00     0.021 A 
ATOM     15  C   UNL d   1      45.902 -12.488  44.928  0.00  0.00     0.002 A 
ATOM     16  C   UNL d   1      45.883 -13.308  44.924  0.00  0.00     0.002 A 
ENDBRANCH   1  10
TORSDOF 1
ENDMDL
