MODEL 1
REMARK VINA RESULT:      -7.1      0.000      0.000
REMARK  3 active torsions:
REMARK  status: ('A' for Active; 'I' for Inactive)
REMARK    1  A    between atoms: C_6  and  C_1 
REMARK    2  A    between atoms: O_10  and  C_6 
REMARK    3  A    between atoms: C_13  and  O_10 
ROOT
ATOM      1  C   UNL d   1     -48.267  13.749  22.926  0.00  0.00     0.121 A 
ATOM      2  C   UNL d   1     -48.403  12.959  23.122  0.00  0.00     0.204 A 
ATOM      3  C   UNL d   1     -47.495  14.047  22.920  0.00  0.00     0.107 A 
ATOM      4  C   UNL d   1     -47.769  12.467  23.312  0.00  0.00     0.057 A 
ATOM      5  N   UNL d   1     -46.858  13.547  23.112  0.00  0.00    -0.244 NA
ATOM      6  C   UNL d   1     -46.995  12.758  23.308  0.00  0.00     0.085 A 
ATOM      7  O   UNL d   1     -49.177  12.666  23.127  0.00  0.00    -0.286 OA
ATOM      8  C   UNL d   1     -47.910  11.676  23.508  0.00  0.00     0.005 A 
ATOM      9  C   UNL d   1     -46.367  12.271  23.495  0.00  0.00     0.019 A 
ATOM     10  C   UNL d   1     -47.273  11.190  23.696  0.00  0.00     0.000 A 
ATOM     11  C   UNL d   1     -46.502  11.488  23.690  0.00  0.00     0.002 A 
ENDROOT
BRANCH   1  12
ATOM     12  C   UNL d   1     -48.895  14.248  22.735  0.00  0.00     0.305 C 
ATOM     13  O   UNL d   1     -49.233  14.205  21.982  0.00  0.00    -0.259 OA
BRANCH  12  14
ATOM     14  O   UNL d   1     -49.183  14.787  23.292  0.00  0.00    -0.271 OA
BRANCH  14  15
ATOM     15  C   UNL d   1     -49.712  15.379  23.062  0.00  0.00     0.126 C 
ATOM     16  C   UNL d   1     -50.051  15.870  23.632  0.00  0.00     0.029 C 
ENDBRANCH  14  15
ENDBRANCH  12  14
ENDBRANCH   1  12
TORSDOF 3
ENDMDL
MODEL 2
REMARK VINA RESULT:      -6.9      1.882      3.028
REMARK  3 active torsions:
REMARK  status: ('A' for Active; 'I' for Inactive)
REMARK    1  A    between atoms: C_6  and  C_1 
REMARK    2  A    between atoms: O_10  and  C_6 
REMARK    3  A    between atoms: C_13  and  O_10 
ROOT
ATOM      1  C   UNL d   1     -47.381  12.996  22.998  0.00  0.00     0.121 A 
ATOM      2  C   UNL d   1     -47.726  12.329  23.339  0.00  0.00     0.204 A 
ATOM      3  C   UNL d   1     -47.856  13.575  22.648  0.00  0.00     0.107 A 
ATOM      4  C   UNL d   1     -48.546  12.239  23.328  0.00  0.00     0.057 A 
ATOM      5  N   UNL d   1     -48.683  13.481  22.639  0.00  0.00    -0.244 NA
ATOM      6  C   UNL d   1     -49.028  12.814  22.979  0.00  0.00     0.085 A 
ATOM      7  O   UNL d   1     -47.246  11.753  23.688  0.00  0.00    -0.286 OA
ATOM      8  C   UNL d   1     -48.889  11.569  23.670  0.00  0.00     0.005 A 
ATOM      9  C   UNL d   1     -49.839  12.726  22.969  0.00  0.00     0.019 A 
ATOM     10  C   UNL d   1     -49.707  11.485  23.657  0.00  0.00     0.000 A 
ATOM     11  C   UNL d   1     -50.182  12.064  23.306  0.00  0.00     0.002 A 
ENDROOT
BRANCH   1  12
ATOM     12  C   UNL d   1     -46.561  13.094  23.004  0.00  0.00     0.305 C 
ATOM     13  O   UNL d   1     -46.188  13.346  23.696  0.00  0.00    -0.259 OA
BRANCH  12  14
ATOM     14  O   UNL d   1     -46.119  12.940  22.323  0.00  0.00    -0.271 OA
BRANCH  14  15
ATOM     15  C   UNL d   1     -45.373  13.283  22.227  0.00  0.00     0.126 C 
ATOM     16  C   UNL d   1     -44.820  12.927  21.729  0.00  0.00     0.029 C 
ENDBRANCH  14  15
ENDBRANCH  12  14
ENDBRANCH   1  12
TORSDOF 3
ENDMDL
MODEL 3
REMARK VINA RESULT:      -6.8      1.746      3.598
REMARK  3 active torsions:
REMARK  status: ('A' for Active; 'I' for Inactive)
REMARK    1  A    between atoms: C_6  and  C_1 
REMARK    2  A    between atoms: O_10  and  C_6 
REMARK    3  A    between atoms: C_13  and  O_10 
ROOT
ATOM      1  C   UNL d   1     -47.121  13.567  22.764  0.00  0.00     0.121 A 
ATOM      2  C   UNL d   1     -47.441  14.326  22.728  0.00  0.00     0.204 A 
ATOM      3  C   UNL d   1     -47.616  12.906  22.712  0.00  0.00     0.107 A 
ATOM      4  C   UNL d   1     -48.255  14.426  22.639  0.00  0.00     0.057 A 
ATOM      5  N   UNL d   1     -48.436  13.011  22.622  0.00  0.00    -0.244 NA
ATOM      6  C   UNL d   1     -48.756  13.770  22.586  0.00  0.00     0.085 A 
ATOM      7  O   UNL d   1     -46.943  14.984  22.781  0.00  0.00    -0.286 OA
ATOM      8  C   UNL d   1     -48.573  15.189  22.603  0.00  0.00     0.005 A 
ATOM      9  C   UNL d   1     -49.561  13.868  22.498  0.00  0.00     0.019 A 
ATOM     10  C   UNL d   1     -49.385  15.282  22.514  0.00  0.00     0.000 A 
ATOM     11  C   UNL d   1     -49.880  14.621  22.461  0.00  0.00     0.002 A 
ENDROOT
BRANCH   1  12
ATOM     12  C   UNL d   1     -46.308  13.458  22.853  0.00  0.00     0.305 C 
ATOM     13  O   UNL d   1     -45.973  13.504  23.607  0.00  0.00    -0.259 OA
BRANCH  12  14
ATOM     14  O   UNL d   1     -45.835  13.304  22.194  0.00  0.00    -0.271 OA
BRANCH  14  15
ATOM     15  C   UNL d   1     -45.060  13.032  22.293  0.00  0.00     0.126 C 
ATOM     16  C   UNL d   1     -44.574  12.929  21.635  0.00  0.00     0.029 C 
ENDBRANCH  14  15
ENDBRANCH  12  14
ENDBRANCH   1  12
TORSDOF 3
ENDMDL
MODEL 4
REMARK VINA RESULT:      -6.7      1.641      3.385
REMARK  3 active torsions:
REMARK  status: ('A' for Active; 'I' for Inactive)
REMARK    1  A    between atoms: C_6  and  C_1 
REMARK    2  A    between atoms: O_10  and  C_6 
REMARK    3  A    between atoms: C_13  and  O_10 
ROOT
ATOM      1  C   UNL d   1     -47.110  14.005  22.848  0.00  0.00     0.121 A 
ATOM      2  C   UNL d   1     -47.827  13.613  22.960  0.00  0.00     0.204 A 
ATOM      3  C   UNL d   1     -47.103  14.807  22.646  0.00  0.00     0.107 A 
ATOM      4  C   UNL d   1     -48.537  14.022  22.871  0.00  0.00     0.057 A 
ATOM      5  N   UNL d   1     -47.822  15.217  22.557  0.00  0.00    -0.244 NA
ATOM      6  C   UNL d   1     -48.539  14.825  22.669  0.00  0.00     0.085 A 
ATOM      7  O   UNL d   1     -47.828  12.811  23.161  0.00  0.00    -0.286 OA
ATOM      8  C   UNL d   1     -49.255  13.627  22.984  0.00  0.00     0.005 A 
ATOM      9  C   UNL d   1     -49.241  15.230  22.581  0.00  0.00     0.019 A 
ATOM     10  C   UNL d   1     -49.960  14.040  22.893  0.00  0.00     0.000 A 
ATOM     11  C   UNL d   1     -49.954  14.842  22.692  0.00  0.00     0.002 A 
ENDROOT
BRANCH   1  12
ATOM     12  C   UNL d   1     -46.394  13.604  22.935  0.00  0.00     0.305 C 
ATOM     13  O   UNL d   1     -46.121  13.421  23.693  0.00  0.00    -0.259 OA
BRANCH  12  14
ATOM     14  O   UNL d   1     -45.955  13.387  22.269  0.00  0.00    -0.271 OA
BRANCH  14  15
ATOM     15  C   UNL d   1     -45.179  13.115  22.355  0.00  0.00     0.126 C 
ATOM     16  C   UNL d   1     -44.736  12.921  21.686  0.00  0.00     0.029 C 
ENDBRANCH  14  15
ENDBRANCH  12  14
ENDBRANCH   1  12
TORSDOF 3
ENDMDL
MODEL 5
REMARK VINA RESULT:      -6.6      1.088      1.790
REMARK  3 active torsions:
REMARK  status: ('A' for Active; 'I' for Inactive)
REMARK    1  A    between atoms: C_6  and  C_1 
REMARK    2  A    between atoms: O_10  and  C_6 
REMARK    3  A    between atoms: C_13  and  O_10 
ROOT
ATOM      1  C   UNL d   1     -48.634  13.802  22.946  0.00  0.00     0.121 A 
ATOM      2  C   UNL d   1     -47.911  14.142  22.744  0.00  0.00     0.204 A 
ATOM      3  C   UNL d   1     -48.663  13.021  23.215  0.00  0.00     0.107 A 
ATOM      4  C   UNL d   1     -47.216  13.703  22.811  0.00  0.00     0.057 A 
ATOM      5  N   UNL d   1     -47.961  12.580  23.282  0.00  0.00    -0.244 NA
ATOM      6  C   UNL d   1     -47.237  12.921  23.080  0.00  0.00     0.085 A 
ATOM      7  O   UNL d   1     -47.886  14.924  22.475  0.00  0.00    -0.286 OA
ATOM      8  C   UNL d   1     -46.492  14.047  22.608  0.00  0.00     0.005 A 
ATOM      9  C   UNL d   1     -46.550  12.485  23.147  0.00  0.00     0.019 A 
ATOM     10  C   UNL d   1     -45.803  13.604  22.677  0.00  0.00     0.000 A 
ATOM     11  C   UNL d   1     -45.832  12.822  22.946  0.00  0.00     0.002 A 
ENDROOT
BRANCH   1  12
ATOM     12  C   UNL d   1     -49.334  14.235  22.882  0.00  0.00     0.305 C 
ATOM     13  O   UNL d   1     -49.552  14.746  23.493  0.00  0.00    -0.259 OA
BRANCH  12  14
ATOM     14  O   UNL d   1     -49.812  14.156  22.212  0.00  0.00    -0.271 OA
BRANCH  14  15
ATOM     15  C   UNL d   1     -50.582  14.456  22.214  0.00  0.00     0.126 C 
ATOM     16  C   UNL d   1     -51.063  14.357  21.551  0.00  0.00     0.029 C 
ENDBRANCH  14  15
ENDBRANCH  12  14
ENDBRANCH   1  12
TORSDOF 3
ENDMDL
MODEL 6
REMARK VINA RESULT:      -5.6      9.735     10.564
REMARK  3 active torsions:
REMARK  status: ('A' for Active; 'I' for Inactive)
REMARK    1  A    between atoms: C_6  and  C_1 
REMARK    2  A    between atoms: O_10  and  C_6 
REMARK    3  A    between atoms: C_13  and  O_10 
ROOT
ATOM      1  C   UNL d   1     -39.912  14.403  17.814  0.00  0.00     0.121 A 
ATOM      2  C   UNL d   1     -39.412  13.825  17.505  0.00  0.00     0.204 A 
ATOM      3  C   UNL d   1     -39.926  15.160  17.482  0.00  0.00     0.107 A 
ATOM      4  C   UNL d   1     -38.925  14.003  16.863  0.00  0.00     0.057 A 
ATOM      5  N   UNL d   1     -39.434  15.336  16.835  0.00  0.00    -0.244 NA
ATOM      6  C   UNL d   1     -38.933  14.758  16.525  0.00  0.00     0.085 A 
ATOM      7  O   UNL d   1     -39.402  13.069  17.840  0.00  0.00    -0.286 OA
ATOM      8  C   UNL d   1     -38.425  13.421  16.555  0.00  0.00     0.005 A 
ATOM      9  C   UNL d   1     -38.452  14.934  15.891  0.00  0.00     0.019 A 
ATOM     10  C   UNL d   1     -37.941  13.604  15.916  0.00  0.00     0.000 A 
ATOM     11  C   UNL d   1     -37.955  14.361  15.583  0.00  0.00     0.002 A 
ENDROOT
BRANCH   1  12
ATOM     12  C   UNL d   1     -40.403  14.233  18.456  0.00  0.00     0.305 C 
ATOM     13  O   UNL d   1     -41.095  13.800  18.333  0.00  0.00    -0.259 OA
BRANCH  12  14
ATOM     14  O   UNL d   1     -40.203  14.496  19.213  0.00  0.00    -0.271 OA
BRANCH  14  15
ATOM     15  C   UNL d   1     -40.753  14.446  19.829  0.00  0.00     0.126 C 
ATOM     16  C   UNL d   1     -40.548  14.709  20.583  0.00  0.00     0.029 C 
ENDBRANCH  14  15
ENDBRANCH  12  14
ENDBRANCH   1  12
TORSDOF 3
ENDMDL
