MODEL 1
REMARK VINA RESULT:       3.6      0.000      0.000
REMARK  6 active torsions:
REMARK  status: ('A' for Active; 'I' for Inactive)
REMARK    1  A    between atoms: C_6  and  C_1 
REMARK    2  A    between atoms: C_9  and  C_2 
REMARK    3  A    between atoms: N_8  and  C_3 
REMARK       I    between atoms: N_7  and  C_6 
REMARK    4  A    between atoms: C_13  and  N_7 
REMARK    5  A    between atoms: C_12  and  N_8 
REMARK    6  A    between atoms: O_19  and  C_14 
ROOT
ATOM      1  C   UNL d   1      57.123   0.263  32.474  0.00  0.00     0.108 A 
ATOM      2  C   UNL d   1      56.675  -0.301  32.066  0.00  0.00     0.094 A 
ATOM      3  C   UNL d   1      57.387   0.390  31.190  0.00  0.00     0.194 A 
ATOM      4  N   UNL d   1      56.842  -0.220  31.263  0.00  0.00    -0.221 NA
ATOM      5  S   UNL d   1      57.556   0.681  31.912  0.00  0.00    -0.042 SA
ENDROOT
BRANCH   1   6
ATOM      6  C   UNL d   1      57.140   0.392  33.285  0.00  0.00     0.287 C 
ATOM      7  N   UNL d   1      57.842   0.301  33.710  0.00  0.00    -0.206 NA
ATOM      8  O   UNL d   1      56.449   0.618  33.695  0.00  0.00    -0.265 OA
BRANCH   7   9
ATOM      9  C   UNL d   1      57.862   0.428  34.519  0.00  0.00     0.104 A 
ATOM     10  C   UNL d   1      57.164   0.437  34.926  0.00  0.00     0.118 A 
ATOM     11  N   UNL d   1      57.189   0.565  35.737  0.00  0.00    -0.241 NA
ATOM     12  C   UNL d   1      57.882   0.677  36.104  0.00  0.00     0.099 A 
ATOM     13  C   UNL d   1      58.580   0.668  35.697  0.00  0.00     0.022 A 
ATOM     14  C   UNL d   1      58.582   0.541  34.880  0.00  0.00     0.022 A 
ENDBRANCH   7   9
ENDBRANCH   1   6
BRANCH   2  15
ATOM     15  C   UNL d   1      56.186  -0.803  32.470  0.00  0.00     0.018 A 
ATOM     16  C   UNL d   1      56.405  -1.592  32.592  0.00  0.00     0.002 A 
ATOM     17  C   UNL d   1      55.897  -2.097  33.007  0.00  0.00     0.000 A 
ATOM     18  C   UNL d   1      55.172  -1.806  33.297  0.00  0.00     0.000 A 
ATOM     19  C   UNL d   1      54.964  -1.057  33.182  0.00  0.00     0.000 A 
ATOM     20  C   UNL d   1      55.462  -0.531  32.766  0.00  0.00     0.002 A 
ENDBRANCH   2  15
BRANCH   3  21
ATOM     21  N   UNL d   1      57.698   0.649  30.488  0.00  0.00    -0.221 NA
BRANCH  21  22
ATOM     22  C   UNL d   1      58.289   0.205  30.116  0.00  0.00     0.084 A 
ATOM     23  C   UNL d   1      59.060   0.215  30.422  0.00  0.00     0.021 A 
ATOM     24  C   UNL d   1      59.644  -0.215  30.066  0.00  0.00     0.026 A 
ATOM     25  C   UNL d   1      59.456  -0.667  29.390  0.00  0.00     0.094 A 
ATOM     26  C   UNL d   1      58.725  -0.676  29.099  0.00  0.00     0.026 A 
ATOM     27  C   UNL d   1      58.117  -0.235  29.461  0.00  0.00     0.021 A 
BRANCH  25  28
ATOM     28  O   UNL d   1      60.054  -1.125  29.001  0.00  0.00    -0.328 OA
ATOM     29  C   UNL d   1      60.679  -0.766  28.591  0.00  0.00     0.181 C 
ENDBRANCH  25  28
ENDBRANCH  21  22
ENDBRANCH   3  21
TORSDOF 6
ENDMDL
MODEL 2
REMARK VINA RESULT:       6.2      1.051      1.313
REMARK  6 active torsions:
REMARK  status: ('A' for Active; 'I' for Inactive)
REMARK    1  A    between atoms: C_6  and  C_1 
REMARK    2  A    between atoms: C_9  and  C_2 
REMARK    3  A    between atoms: N_8  and  C_3 
REMARK       I    between atoms: N_7  and  C_6 
REMARK    4  A    between atoms: C_13  and  N_7 
REMARK    5  A    between atoms: C_12  and  N_8 
REMARK    6  A    between atoms: O_19  and  C_14 
ROOT
ATOM      1  C   UNL d   1      56.727   0.043  32.663  0.00  0.00     0.108 A 
ATOM      2  C   UNL d   1      56.505  -0.595  32.184  0.00  0.00     0.094 A 
ATOM      3  C   UNL d   1      57.113   0.310  31.432  0.00  0.00     0.194 A 
ATOM      4  N   UNL d   1      56.747  -0.426  31.415  0.00  0.00    -0.221 NA
ATOM      5  S   UNL d   1      57.102   0.592  32.177  0.00  0.00    -0.042 SA
ENDROOT
BRANCH   1   6
ATOM      6  C   UNL d   1      56.603   0.125  33.471  0.00  0.00     0.287 C 
ATOM      7  N   UNL d   1      55.894   0.438  33.757  0.00  0.00    -0.206 NA
ATOM      8  O   UNL d   1      57.188  -0.107  34.018  0.00  0.00    -0.265 OA
BRANCH   7   9
ATOM      9  C   UNL d   1      55.767   0.520  34.561  0.00  0.00     0.104 A 
ATOM     10  C   UNL d   1      55.005   0.543  34.831  0.00  0.00     0.118 A 
ATOM     11  N   UNL d   1      54.880   0.626  35.639  0.00  0.00    -0.241 NA
ATOM     12  C   UNL d   1      55.495   0.682  36.136  0.00  0.00     0.099 A 
ATOM     13  C   UNL d   1      56.257   0.658  35.866  0.00  0.00     0.022 A 
ATOM     14  C   UNL d   1      56.409   0.576  35.057  0.00  0.00     0.022 A 
ENDBRANCH   7   9
ENDBRANCH   1   6
BRANCH   2  15
ATOM     15  C   UNL d   1      56.120  -1.230  32.504  0.00  0.00     0.018 A 
ATOM     16  C   UNL d   1      56.536  -1.923  32.684  0.00  0.00     0.002 A 
ATOM     17  C   UNL d   1      56.132  -2.567  33.011  0.00  0.00     0.000 A 
ATOM     18  C   UNL d   1      55.313  -2.512  33.157  0.00  0.00     0.000 A 
ATOM     19  C   UNL d   1      54.918  -1.854  32.986  0.00  0.00     0.000 A 
ATOM     20  C   UNL d   1      55.306  -1.192  32.655  0.00  0.00     0.002 A 
ENDBRANCH   2  15
BRANCH   3  21
ATOM     21  N   UNL d   1      57.431   0.682  30.787  0.00  0.00    -0.221 NA
BRANCH  21  22
ATOM     22  C   UNL d   1      57.986   0.282  30.319  0.00  0.00     0.084 A 
ATOM     23  C   UNL d   1      57.746  -0.052  29.599  0.00  0.00     0.021 A 
ATOM     24  C   UNL d   1      58.279  -0.444  29.135  0.00  0.00     0.026 A 
ATOM     25  C   UNL d   1      59.070  -0.504  29.395  0.00  0.00     0.094 A 
ATOM     26  C   UNL d   1      59.298  -0.187  30.079  0.00  0.00     0.026 A 
ATOM     27  C   UNL d   1      58.754   0.219  30.562  0.00  0.00     0.021 A 
BRANCH  25  28
ATOM     28  O   UNL d   1      59.646  -0.911  28.924  0.00  0.00    -0.328 OA
ATOM     29  C   UNL d   1      59.816  -1.714  29.043  0.00  0.00     0.181 C 
ENDBRANCH  25  28
ENDBRANCH  21  22
ENDBRANCH   3  21
TORSDOF 6
ENDMDL
