MODEL 1
REMARK VINA RESULT:      -8.3      0.000      0.000
REMARK  3 active torsions:
REMARK  status: ('A' for Active; 'I' for Inactive)
REMARK    1  A    between atoms: C_9  and  C_1 
REMARK    2  A    between atoms: C_11  and  C_2 
REMARK    3  A    between atoms: C_3  and  C_9 
ROOT
ATOM      1  C   UNL d   1     -48.304  12.304  22.558  0.00  0.00     0.003 A 
ATOM      2  C   UNL d   1     -46.918  13.175  22.559  0.00  0.00    -0.023 A 
ATOM      3  C   UNL d   1     -48.176  12.885  21.990  0.00  0.00    -0.000 A 
ATOM      4  C   UNL d   1     -47.737  12.165  23.122  0.00  0.00    -0.000 A 
ATOM      5  C   UNL d   1     -47.043  12.596  23.128  0.00  0.00    -0.004 A 
ATOM      6  C   UNL d   1     -47.486  13.314  21.995  0.00  0.00    -0.004 A 
ATOM      7  C   UNL d   1     -47.862  11.579  23.698  0.00  0.00    -0.000 C 
ATOM      8  C   UNL d   1     -48.749  13.033  21.412  0.00  0.00    -0.000 C 
ENDROOT
BRANCH   1   9
ATOM      9  C   UNL d   1     -49.005  11.868  22.553  0.00  0.00     0.039 C 
BRANCH   9  10
ATOM     10  C   UNL d   1     -49.746  11.952  22.911  0.00  0.00     0.163 A 
ATOM     11  N   UNL d   1     -50.052  11.475  23.513  0.00  0.00    -0.224 NA
ATOM     12  C   UNL d   1     -50.801  11.760  23.697  0.00  0.00     0.121 A 
ATOM     13  C   UNL d   1     -50.969  12.410  23.218  0.00  0.00     0.121 A 
ATOM     14  N   UNL d   1     -50.318  12.533  22.729  0.00  0.00    -0.224 NA
ENDBRANCH   9  10
ENDBRANCH   1   9
BRANCH   2  15
ATOM     15  C   UNL d   1     -46.217  13.610  22.564  0.00  0.00     0.019 C 
ATOM     16  C   UNL d   1     -45.517  14.046  22.570  0.00  0.00     0.004 C 
ATOM     17  C   UNL d   1     -45.814  12.965  22.246  0.00  0.00     0.004 C 
ATOM     18  C   UNL d   1     -46.621  14.256  22.882  0.00  0.00     0.004 C 
ENDBRANCH   2  15
TORSDOF 3
ENDMDL
MODEL 2
REMARK VINA RESULT:      -8.0      1.774      3.680
REMARK  3 active torsions:
REMARK  status: ('A' for Active; 'I' for Inactive)
REMARK    1  A    between atoms: C_9  and  C_1 
REMARK    2  A    between atoms: C_11  and  C_2 
REMARK    3  A    between atoms: C_3  and  C_9 
ROOT
ATOM      1  C   UNL d   1     -47.504  12.865  23.262  0.00  0.00     0.003 A 
ATOM      2  C   UNL d   1     -49.086  12.543  22.995  0.00  0.00    -0.023 A 
ATOM      3  C   UNL d   1     -48.007  13.452  22.980  0.00  0.00    -0.000 A 
ATOM      4  C   UNL d   1     -47.798  12.123  23.408  0.00  0.00    -0.000 A 
ATOM      5  C   UNL d   1     -48.587  11.956  23.277  0.00  0.00    -0.004 A 
ATOM      6  C   UNL d   1     -48.792  13.286  22.849  0.00  0.00    -0.004 A 
ATOM      7  C   UNL d   1     -47.294  11.528  23.694  0.00  0.00    -0.000 C 
ATOM      8  C   UNL d   1     -47.715  14.211  22.828  0.00  0.00    -0.000 C 
ENDROOT
BRANCH   1   9
ATOM      9  C   UNL d   1     -46.707  13.033  23.395  0.00  0.00     0.039 C 
BRANCH   9  10
ATOM     10  C   UNL d   1     -46.017  12.985  22.941  0.00  0.00     0.163 A 
ATOM     11  N   UNL d   1     -45.788  13.511  22.346  0.00  0.00    -0.224 NA
ATOM     12  C   UNL d   1     -45.069  13.248  22.047  0.00  0.00     0.121 A 
ATOM     13  C   UNL d   1     -44.843  12.563  22.447  0.00  0.00     0.121 A 
ATOM     14  N   UNL d   1     -45.429  12.395  23.003  0.00  0.00    -0.224 NA
ENDBRANCH   9  10
ENDBRANCH   1   9
BRANCH   2  15
ATOM     15  C   UNL d   1     -49.883  12.375  22.862  0.00  0.00     0.019 C 
ATOM     16  C   UNL d   1     -50.680  12.207  22.728  0.00  0.00     0.004 C 
ATOM     17  C   UNL d   1     -50.050  12.542  23.652  0.00  0.00     0.004 C 
ATOM     18  C   UNL d   1     -49.716  12.208  22.071  0.00  0.00     0.004 C 
ENDBRANCH   2  15
TORSDOF 3
ENDMDL
MODEL 3
REMARK VINA RESULT:      -7.7      1.494      2.026
REMARK  3 active torsions:
REMARK  status: ('A' for Active; 'I' for Inactive)
REMARK    1  A    between atoms: C_9  and  C_1 
REMARK    2  A    between atoms: C_11  and  C_2 
REMARK    3  A    between atoms: C_3  and  C_9 
ROOT
ATOM      1  C   UNL d   1     -48.575  13.964  22.328  0.00  0.00     0.003 A 
ATOM      2  C   UNL d   1     -47.130  13.282  22.683  0.00  0.00    -0.023 A 
ATOM      3  C   UNL d   1     -47.947  14.428  22.586  0.00  0.00    -0.000 A 
ATOM      4  C   UNL d   1     -48.474  13.161  22.251  0.00  0.00    -0.000 A 
ATOM      5  C   UNL d   1     -47.755  12.816  22.426  0.00  0.00    -0.004 A 
ATOM      6  C   UNL d   1     -47.231  14.084  22.761  0.00  0.00    -0.004 A 
ATOM      7  C   UNL d   1     -49.105  12.689  21.991  0.00  0.00    -0.000 C 
ATOM      8  C   UNL d   1     -48.042  15.245  22.668  0.00  0.00    -0.000 C 
ENDROOT
BRANCH   1   9
ATOM      9  C   UNL d   1     -49.301  14.313  22.151  0.00  0.00     0.039 C 
BRANCH   9  10
ATOM     10  C   UNL d   1     -49.961  14.543  22.594  0.00  0.00     0.163 A 
ATOM     11  N   UNL d   1     -50.211  14.208  23.306  0.00  0.00    -0.224 NA
ATOM     12  C   UNL d   1     -50.887  14.611  23.546  0.00  0.00     0.121 A 
ATOM     13  C   UNL d   1     -51.064  15.195  22.992  0.00  0.00     0.121 A 
ATOM     14  N   UNL d   1     -50.493  15.158  22.399  0.00  0.00    -0.224 NA
ENDBRANCH   9  10
ENDBRANCH   1   9
BRANCH   2  15
ATOM     15  C   UNL d   1     -46.404  12.933  22.861  0.00  0.00     0.019 C 
ATOM     16  C   UNL d   1     -45.678  12.583  23.038  0.00  0.00     0.004 C 
ATOM     17  C   UNL d   1     -46.741  12.564  23.517  0.00  0.00     0.004 C 
ATOM     18  C   UNL d   1     -46.066  13.301  22.204  0.00  0.00     0.004 C 
ENDBRANCH   2  15
TORSDOF 3
ENDMDL
MODEL 4
REMARK VINA RESULT:      -7.4      1.785      3.479
REMARK  3 active torsions:
REMARK  status: ('A' for Active; 'I' for Inactive)
REMARK    1  A    between atoms: C_9  and  C_1 
REMARK    2  A    between atoms: C_11  and  C_2 
REMARK    3  A    between atoms: C_3  and  C_9 
ROOT
ATOM      1  C   UNL d   1     -47.587  12.752  23.250  0.00  0.00     0.003 A 
ATOM      2  C   UNL d   1     -48.933  13.203  22.435  0.00  0.00    -0.023 A 
ATOM      3  C   UNL d   1     -48.233  12.245  23.197  0.00  0.00    -0.000 A 
ATOM      4  C   UNL d   1     -47.622  13.481  22.894  0.00  0.00    -0.000 A 
ATOM      5  C   UNL d   1     -48.291  13.712  22.486  0.00  0.00    -0.004 A 
ATOM      6  C   UNL d   1     -48.898  12.474  22.791  0.00  0.00    -0.004 A 
ATOM      7  C   UNL d   1     -46.972  13.996  22.945  0.00  0.00    -0.000 C 
ATOM      8  C   UNL d   1     -48.205  11.501  23.557  0.00  0.00    -0.000 C 
ENDROOT
BRANCH   1   9
ATOM      9  C   UNL d   1     -46.912  12.519  23.663  0.00  0.00     0.039 C 
BRANCH   9  10
ATOM     10  C   UNL d   1     -46.221  12.107  23.466  0.00  0.00     0.163 A 
ATOM     11  N   UNL d   1     -45.598  12.394  23.006  0.00  0.00    -0.224 NA
ATOM     12  C   UNL d   1     -45.033  11.798  22.956  0.00  0.00     0.121 A 
ATOM     13  C   UNL d   1     -45.295  11.141  23.380  0.00  0.00     0.121 A 
ATOM     14  N   UNL d   1     -46.032  11.327  23.698  0.00  0.00    -0.224 NA
ENDBRANCH   9  10
ENDBRANCH   1   9
BRANCH   2  15
ATOM     15  C   UNL d   1     -49.608  13.436  22.022  0.00  0.00     0.019 C 
ATOM     16  C   UNL d   1     -50.284  13.669  21.610  0.00  0.00     0.004 C 
ATOM     17  C   UNL d   1     -49.299  13.108  21.331  0.00  0.00     0.004 C 
ATOM     18  C   UNL d   1     -49.917  13.764  22.713  0.00  0.00     0.004 C 
ENDBRANCH   2  15
TORSDOF 3
ENDMDL
MODEL 5
REMARK VINA RESULT:      -6.1      8.639     10.293
REMARK  3 active torsions:
REMARK  status: ('A' for Active; 'I' for Inactive)
REMARK    1  A    between atoms: C_9  and  C_1 
REMARK    2  A    between atoms: C_11  and  C_2 
REMARK    3  A    between atoms: C_3  and  C_9 
ROOT
ATOM      1  C   UNL d   1     -39.827  14.357  18.010  0.00  0.00     0.003 A 
ATOM      2  C   UNL d   1     -40.314  14.918  19.469  0.00  0.00    -0.023 A 
ATOM      3  C   UNL d   1     -40.468  14.869  18.068  0.00  0.00    -0.000 A 
ATOM      4  C   UNL d   1     -39.435  14.130  18.685  0.00  0.00    -0.000 A 
ATOM      5  C   UNL d   1     -39.674  14.407  19.415  0.00  0.00    -0.004 A 
ATOM      6  C   UNL d   1     -40.706  15.144  18.795  0.00  0.00    -0.004 A 
ATOM      7  C   UNL d   1     -38.787  13.613  18.631  0.00  0.00    -0.000 C 
ATOM      8  C   UNL d   1     -40.873  15.104  17.386  0.00  0.00    -0.000 C 
ENDROOT
BRANCH   1   9
ATOM      9  C   UNL d   1     -39.586  14.077  17.272  0.00  0.00     0.039 C 
BRANCH   9  10
ATOM     10  C   UNL d   1     -39.009  14.301  16.724  0.00  0.00     0.163 A 
ATOM     11  N   UNL d   1     -38.798  15.076  16.528  0.00  0.00    -0.224 NA
ATOM     12  C   UNL d   1     -38.203  15.035  15.962  0.00  0.00     0.121 A 
ATOM     13  C   UNL d   1     -38.038  14.244  15.799  0.00  0.00     0.121 A 
ATOM     14  N   UNL d   1     -38.536  13.784  16.269  0.00  0.00    -0.224 NA
ENDBRANCH   9  10
ENDBRANCH   1   9
BRANCH   2  15
ATOM     15  C   UNL d   1     -40.554  15.197  20.207  0.00  0.00     0.019 C 
ATOM     16  C   UNL d   1     -40.795  15.477  20.945  0.00  0.00     0.004 C 
ATOM     17  C   UNL d   1     -40.187  15.920  20.053  0.00  0.00     0.004 C 
ATOM     18  C   UNL d   1     -40.922  14.475  20.361  0.00  0.00     0.004 C 
ENDBRANCH   2  15
TORSDOF 3
ENDMDL
MODEL 6
REMARK VINA RESULT:      -6.1      1.358      2.220
REMARK  3 active torsions:
REMARK  status: ('A' for Active; 'I' for Inactive)
REMARK    1  A    between atoms: C_9  and  C_1 
REMARK    2  A    between atoms: C_11  and  C_2 
REMARK    3  A    between atoms: C_3  and  C_9 
ROOT
ATOM      1  C   UNL d   1     -47.681  13.027  23.189  0.00  0.00     0.003 A 
ATOM      2  C   UNL d   1     -46.544  11.864  23.376  0.00  0.00    -0.023 A 
ATOM      3  C   UNL d   1     -46.898  13.173  22.984  0.00  0.00    -0.000 A 
ATOM      4  C   UNL d   1     -47.888  12.300  23.485  0.00  0.00    -0.000 A 
ATOM      5  C   UNL d   1     -47.325  11.716  23.581  0.00  0.00    -0.004 A 
ATOM      6  C   UNL d   1     -46.337  12.591  23.080  0.00  0.00    -0.004 A 
ATOM      7  C   UNL d   1     -48.678  12.149  23.693  0.00  0.00    -0.000 C 
ATOM      8  C   UNL d   1     -46.678  13.910  22.681  0.00  0.00    -0.000 C 
ENDROOT
BRANCH   1   9
ATOM      9  C   UNL d   1     -48.250  13.617  23.092  0.00  0.00     0.039 C 
BRANCH   9  10
ATOM     10  C   UNL d   1     -48.860  13.756  22.551  0.00  0.00     0.163 A 
ATOM     11  N   UNL d   1     -49.613  14.046  22.730  0.00  0.00    -0.224 NA
ATOM     12  C   UNL d   1     -50.033  14.094  22.024  0.00  0.00     0.121 A 
ATOM     13  C   UNL d   1     -49.553  13.838  21.405  0.00  0.00     0.121 A 
ATOM     14  N   UNL d   1     -48.824  13.627  21.726  0.00  0.00    -0.224 NA
ENDBRANCH   9  10
ENDBRANCH   1   9
BRANCH   2  15
ATOM     15  C   UNL d   1     -45.976  11.274  23.473  0.00  0.00     0.019 C 
ATOM     16  C   UNL d   1     -45.407  10.685  23.570  0.00  0.00     0.004 C 
ATOM     17  C   UNL d   1     -45.386  11.807  23.251  0.00  0.00     0.004 C 
ATOM     18  C   UNL d   1     -46.566  10.742  23.695  0.00  0.00     0.004 C 
ENDBRANCH   2  15
TORSDOF 3
ENDMDL
MODEL 7
REMARK VINA RESULT:      -5.9      8.255     10.157
REMARK  3 active torsions:
REMARK  status: ('A' for Active; 'I' for Inactive)
REMARK    1  A    between atoms: C_9  and  C_1 
REMARK    2  A    between atoms: C_11  and  C_2 
REMARK    3  A    between atoms: C_3  and  C_9 
ROOT
ATOM      1  C   UNL d   1     -39.955  14.377  18.063  0.00  0.00     0.003 A 
ATOM      2  C   UNL d   1     -38.958  14.525  16.773  0.00  0.00    -0.023 A 
ATOM      3  C   UNL d   1     -40.206  14.769  17.385  0.00  0.00    -0.000 A 
ATOM      4  C   UNL d   1     -39.206  14.062  18.089  0.00  0.00    -0.000 A 
ATOM      5  C   UNL d   1     -38.705  14.133  17.448  0.00  0.00    -0.004 A 
ATOM      6  C   UNL d   1     -39.706  14.840  16.748  0.00  0.00    -0.004 A 
ATOM      7  C   UNL d   1     -38.949  13.665  18.771  0.00  0.00    -0.000 C 
ATOM      8  C   UNL d   1     -40.966  15.093  17.351  0.00  0.00    -0.000 C 
ENDROOT
BRANCH   1   9
ATOM      9  C   UNL d   1     -40.461  14.305  18.711  0.00  0.00     0.039 C 
BRANCH   9  10
ATOM     10  C   UNL d   1     -40.570  14.725  19.415  0.00  0.00     0.163 A 
ATOM     11  N   UNL d   1     -40.489  15.542  19.512  0.00  0.00    -0.224 NA
ATOM     12  C   UNL d   1     -40.649  15.714  20.301  0.00  0.00     0.121 A 
ATOM     13  C   UNL d   1     -40.829  15.015  20.700  0.00  0.00     0.121 A 
ATOM     14  N   UNL d   1     -40.781  14.399  20.155  0.00  0.00    -0.224 NA
ENDBRANCH   9  10
ENDBRANCH   1   9
BRANCH   2  15
ATOM     15  C   UNL d   1     -38.452  14.597  16.126  0.00  0.00     0.019 C 
ATOM     16  C   UNL d   1     -37.945  14.669  15.478  0.00  0.00     0.004 C 
ATOM     17  C   UNL d   1     -38.320  15.389  16.316  0.00  0.00     0.004 C 
ATOM     18  C   UNL d   1     -38.583  13.805  15.935  0.00  0.00     0.004 C 
ENDBRANCH   2  15
TORSDOF 3
ENDMDL
MODEL 8
REMARK VINA RESULT:      -5.8      7.950      9.281
REMARK  3 active torsions:
REMARK  status: ('A' for Active; 'I' for Inactive)
REMARK    1  A    between atoms: C_9  and  C_1 
REMARK    2  A    between atoms: C_11  and  C_2 
REMARK    3  A    between atoms: C_3  and  C_9 
ROOT
ATOM      1  C   UNL d   1     -40.050  14.293  19.881  0.00  0.00     0.003 A 
ATOM      2  C   UNL d   1     -39.371  14.420  21.365  0.00  0.00    -0.023 A 
ATOM      3  C   UNL d   1     -40.512  14.475  20.537  0.00  0.00    -0.000 A 
ATOM      4  C   UNL d   1     -39.252  14.176  19.975  0.00  0.00    -0.000 A 
ATOM      5  C   UNL d   1     -38.908  14.238  20.713  0.00  0.00    -0.004 A 
ATOM      6  C   UNL d   1     -40.170  14.537  21.272  0.00  0.00    -0.004 A 
ATOM      7  C   UNL d   1     -38.782  13.992  19.315  0.00  0.00    -0.000 C 
ATOM      8  C   UNL d   1     -41.326  14.596  20.450  0.00  0.00    -0.000 C 
ENDROOT
BRANCH   1   9
ATOM      9  C   UNL d   1     -40.397  14.230  19.135  0.00  0.00     0.039 C 
BRANCH   9  10
ATOM     10  C   UNL d   1     -40.524  14.752  18.505  0.00  0.00     0.163 A 
ATOM     11  N   UNL d   1     -40.405  15.570  18.519  0.00  0.00    -0.224 NA
ATOM     12  C   UNL d   1     -40.600  15.860  17.774  0.00  0.00     0.121 A 
ATOM     13  C   UNL d   1     -40.839  15.234  17.293  0.00  0.00     0.121 A 
ATOM     14  N   UNL d   1     -40.794  14.544  17.742  0.00  0.00    -0.224 NA
ENDBRANCH   9  10
ENDBRANCH   1   9
BRANCH   2  15
ATOM     15  C   UNL d   1     -39.024  14.482  22.111  0.00  0.00     0.019 C 
ATOM     16  C   UNL d   1     -38.677  14.545  22.857  0.00  0.00     0.004 C 
ATOM     17  C   UNL d   1     -39.071  13.664  22.202  0.00  0.00     0.004 C 
ATOM     18  C   UNL d   1     -38.977  15.301  22.021  0.00  0.00     0.004 C 
ENDBRANCH   2  15
TORSDOF 3
ENDMDL
MODEL 9
REMARK VINA RESULT:      -5.7      7.916      9.375
REMARK  3 active torsions:
REMARK  status: ('A' for Active; 'I' for Inactive)
REMARK    1  A    between atoms: C_9  and  C_1 
REMARK    2  A    between atoms: C_11  and  C_2 
REMARK    3  A    between atoms: C_3  and  C_9 
ROOT
ATOM      1  C   UNL d   1     -40.016  15.047  20.461  0.00  0.00     0.003 A 
ATOM      2  C   UNL d   1     -40.284  14.926  18.851  0.00  0.00    -0.023 A 
ATOM      3  C   UNL d   1     -39.485  15.373  19.924  0.00  0.00    -0.000 A 
ATOM      4  C   UNL d   1     -40.677  14.663  20.186  0.00  0.00    -0.000 A 
ATOM      5  C   UNL d   1     -40.816  14.599  19.384  0.00  0.00    -0.004 A 
ATOM      6  C   UNL d   1     -39.623  15.310  19.125  0.00  0.00    -0.004 A 
ATOM      7  C   UNL d   1     -41.215  14.333  20.725  0.00  0.00    -0.000 C 
ATOM      8  C   UNL d   1     -38.810  15.766  20.195  0.00  0.00    -0.000 C 
ENDROOT
BRANCH   1   9
ATOM      9  C   UNL d   1     -39.876  15.112  21.271  0.00  0.00     0.039 C 
BRANCH   9  10
ATOM     10  C   UNL d   1     -39.439  14.677  21.824  0.00  0.00     0.163 A 
ATOM     11  N   UNL d   1     -39.310  13.861  21.809  0.00  0.00    -0.224 NA
ATOM     12  C   UNL d   1     -38.849  13.672  22.463  0.00  0.00     0.121 A 
ATOM     13  C   UNL d   1     -38.687  14.360  22.889  0.00  0.00     0.121 A 
ATOM     14  N   UNL d   1     -39.051  14.986  22.496  0.00  0.00    -0.224 NA
ENDBRANCH   9  10
ENDBRANCH   1   9
BRANCH   2  15
ATOM     15  C   UNL d   1     -40.425  14.861  18.040  0.00  0.00     0.019 C 
ATOM     16  C   UNL d   1     -40.565  14.797  17.230  0.00  0.00     0.004 C 
ATOM     17  C   UNL d   1     -40.068  14.117  18.038  0.00  0.00     0.004 C 
ATOM     18  C   UNL d   1     -40.781  15.605  18.043  0.00  0.00     0.004 C 
ENDBRANCH   2  15
TORSDOF 3
ENDMDL
