MODEL 1
REMARK VINA RESULT:      -8.1      0.000      0.000
REMARK  4 active torsions:
REMARK  status: ('A' for Active; 'I' for Inactive)
REMARK    1  A    between atoms: N_2  and  S_1 
REMARK    2  A    between atoms: C_4  and  S_1 
REMARK    3  A    between atoms: C_3  and  N_2 
REMARK    4  A    between atoms: N_5  and  C_6 
REMARK       I    between atoms: C_9  and  N_5 
ROOT
ATOM      1  N   UNL d   1     -48.133  13.845  22.816  0.00  0.00    -0.157 NA
ENDROOT
BRANCH   1   2
ATOM      2  S   UNL d   1     -47.604  13.201  22.990  0.00  0.00     0.285 S 
ATOM      3  O   UNL d   1     -47.086  13.461  22.382  0.00  0.00    -0.198 OA
ATOM      4  O   UNL d   1     -48.122  12.942  23.598  0.00  0.00    -0.198 OA
BRANCH   2   5
ATOM      5  C   UNL d   1     -47.088  12.567  23.166  0.00  0.00     0.105 A 
ATOM      6  C   UNL d   1     -47.388  11.870  23.499  0.00  0.00     0.013 A 
ATOM      7  C   UNL d   1     -46.887  11.251  23.671  0.00  0.00     0.001 A 
ATOM      8  C   UNL d   1     -46.081  11.316  23.515  0.00  0.00     0.000 A 
ATOM      9  C   UNL d   1     -45.781  12.012  23.183  0.00  0.00     0.001 A 
ATOM     10  C   UNL d   1     -45.570  10.673  23.696  0.00  0.00     0.000 C 
ATOM     11  C   UNL d   1     -46.291  12.636  23.010  0.00  0.00     0.013 A 
ENDBRANCH   2   5
ENDBRANCH   1   2
BRANCH   1  12
ATOM     12  C   UNL d   1     -48.794  13.716  22.321  0.00  0.00     0.112 A 
ATOM     13  C   UNL d   1     -49.478  14.169  22.419  0.00  0.00     0.103 A 
ATOM     14  C   UNL d   1     -50.130  14.039  21.930  0.00  0.00     0.021 A 
ATOM     15  C   UNL d   1     -50.097  13.459  21.345  0.00  0.00     0.002 A 
ATOM     16  C   UNL d   1     -49.404  13.004  21.250  0.00  0.00     0.002 A 
ATOM     17  C   UNL d   1     -48.760  13.126  21.727  0.00  0.00     0.021 A 
BRANCH  13  18
ATOM     18  N   UNL d   1     -49.520  14.751  23.001  0.00  0.00    -0.206 NA
ATOM     19  C   UNL d   1     -50.099  15.336  22.945  0.00  0.00     0.280 C 
ATOM     20  O   UNL d   1     -50.621  15.330  22.317  0.00  0.00    -0.265 OA
ATOM     21  C   UNL d   1     -50.149  15.922  23.522  0.00  0.00     0.068 C 
ENDBRANCH  13  18
ENDBRANCH   1  12
TORSDOF 4
ENDMDL
MODEL 2
REMARK VINA RESULT:      -8.0      1.248      4.260
REMARK  4 active torsions:
REMARK  status: ('A' for Active; 'I' for Inactive)
REMARK    1  A    between atoms: N_2  and  S_1 
REMARK    2  A    between atoms: C_4  and  S_1 
REMARK    3  A    between atoms: C_3  and  N_2 
REMARK    4  A    between atoms: N_5  and  C_6 
REMARK       I    between atoms: C_9  and  N_5 
ROOT
ATOM      1  N   UNL d   1     -47.557  13.593  22.273  0.00  0.00    -0.157 NA
ENDROOT
BRANCH   1   2
ATOM      2  S   UNL d   1     -48.278  14.003  22.469  0.00  0.00     0.285 S 
ATOM      3  O   UNL d   1     -48.712  13.476  21.981  0.00  0.00    -0.198 OA
ATOM      4  O   UNL d   1     -47.843  14.530  22.959  0.00  0.00    -0.198 OA
BRANCH   2   5
ATOM      5  C   UNL d   1     -48.981  14.410  22.666  0.00  0.00     0.105 A 
ATOM      6  C   UNL d   1     -48.947  15.094  23.132  0.00  0.00     0.013 A 
ATOM      7  C   UNL d   1     -49.632  15.491  23.325  0.00  0.00     0.001 A 
ATOM      8  C   UNL d   1     -50.360  15.215  23.056  0.00  0.00     0.000 A 
ATOM      9  C   UNL d   1     -50.394  14.531  22.590  0.00  0.00     0.001 A 
ATOM     10  C   UNL d   1     -51.063  15.630  23.259  0.00  0.00     0.000 C 
ATOM     11  C   UNL d   1     -49.699  14.133  22.398  0.00  0.00     0.013 A 
ENDBRANCH   2   5
ENDBRANCH   1   2
BRANCH   1  12
ATOM     12  C   UNL d   1     -47.298  12.959  22.753  0.00  0.00     0.112 A 
ATOM     13  C   UNL d   1     -46.497  12.758  22.773  0.00  0.00     0.103 A 
ATOM     14  C   UNL d   1     -46.243  12.132  23.246  0.00  0.00     0.021 A 
ATOM     15  C   UNL d   1     -46.789  11.709  23.698  0.00  0.00     0.002 A 
ATOM     16  C   UNL d   1     -47.597  11.917  23.674  0.00  0.00     0.002 A 
ATOM     17  C   UNL d   1     -47.852  12.530  23.211  0.00  0.00     0.021 A 
BRANCH  13  18
ATOM     18  N   UNL d   1     -45.945  13.175  22.325  0.00  0.00    -0.206 NA
ATOM     19  C   UNL d   1     -45.173  12.888  22.268  0.00  0.00     0.280 C 
ATOM     20  O   UNL d   1     -44.968  12.198  22.654  0.00  0.00    -0.265 OA
ATOM     21  C   UNL d   1     -44.614  13.297  21.823  0.00  0.00     0.068 C 
ENDBRANCH  13  18
ENDBRANCH   1  12
TORSDOF 4
ENDMDL
MODEL 3
REMARK VINA RESULT:      -7.7      0.820      1.206
REMARK  4 active torsions:
REMARK  status: ('A' for Active; 'I' for Inactive)
REMARK    1  A    between atoms: N_2  and  S_1 
REMARK    2  A    between atoms: C_4  and  S_1 
REMARK    3  A    between atoms: C_3  and  N_2 
REMARK    4  A    between atoms: N_5  and  C_6 
REMARK       I    between atoms: C_9  and  N_5 
ROOT
ATOM      1  N   UNL d   1     -48.682  13.897  23.111  0.00  0.00    -0.157 NA
ENDROOT
BRANCH   1   2
ATOM      2  S   UNL d   1     -47.883  13.635  22.973  0.00  0.00     0.285 S 
ATOM      3  O   UNL d   1     -47.720  14.348  22.561  0.00  0.00    -0.198 OA
ATOM      4  O   UNL d   1     -48.046  12.922  23.386  0.00  0.00    -0.198 OA
BRANCH   2   5
ATOM      5  C   UNL d   1     -47.100  13.373  22.841  0.00  0.00     0.105 A 
ATOM      6  C   UNL d   1     -46.575  13.840  22.403  0.00  0.00     0.013 A 
ATOM      7  C   UNL d   1     -45.812  13.586  22.273  0.00  0.00     0.001 A 
ATOM      8  C   UNL d   1     -45.559  12.863  22.579  0.00  0.00     0.000 A 
ATOM      9  C   UNL d   1     -46.084  12.397  23.017  0.00  0.00     0.001 A 
ATOM     10  C   UNL d   1     -44.770  12.607  22.442  0.00  0.00     0.000 C 
ATOM     11  C   UNL d   1     -46.855  12.658  23.145  0.00  0.00     0.013 A 
ENDBRANCH   2   5
ENDBRANCH   1   2
BRANCH   1  12
ATOM     12  C   UNL d   1     -49.285  13.682  22.575  0.00  0.00     0.112 A 
ATOM     13  C   UNL d   1     -50.041  14.007  22.652  0.00  0.00     0.103 A 
ATOM     14  C   UNL d   1     -50.636  13.794  22.122  0.00  0.00     0.021 A 
ATOM     15  C   UNL d   1     -50.476  13.257  21.517  0.00  0.00     0.002 A 
ATOM     16  C   UNL d   1     -49.711  12.931  21.443  0.00  0.00     0.002 A 
ATOM     17  C   UNL d   1     -49.123  13.137  21.960  0.00  0.00     0.021 A 
BRANCH  13  18
ATOM     18  N   UNL d   1     -50.211  14.544  23.254  0.00  0.00    -0.206 NA
ATOM     19  C   UNL d   1     -50.729  15.169  23.102  0.00  0.00     0.280 C 
ATOM     20  O   UNL d   1     -51.064  15.246  22.362  0.00  0.00    -0.265 OA
ATOM     21  C   UNL d   1     -50.904  15.711  23.698  0.00  0.00     0.068 C 
ENDBRANCH  13  18
ENDBRANCH   1  12
TORSDOF 4
ENDMDL
MODEL 4
REMARK VINA RESULT:      -6.2      8.789      9.419
REMARK  4 active torsions:
REMARK  status: ('A' for Active; 'I' for Inactive)
REMARK    1  A    between atoms: N_2  and  S_1 
REMARK    2  A    between atoms: C_4  and  S_1 
REMARK    3  A    between atoms: C_3  and  N_2 
REMARK    4  A    between atoms: N_5  and  C_6 
REMARK       I    between atoms: C_9  and  N_5 
ROOT
ATOM      1  N   UNL d   1     -40.593  14.887  19.228  0.00  0.00    -0.157 NA
ENDROOT
BRANCH   1   2
ATOM      2  S   UNL d   1     -40.247  14.980  20.001  0.00  0.00     0.285 S 
ATOM      3  O   UNL d   1     -40.671  14.309  20.273  0.00  0.00    -0.198 OA
ATOM      4  O   UNL d   1     -39.822  15.652  19.728  0.00  0.00    -0.198 OA
BRANCH   2   5
ATOM      5  C   UNL d   1     -39.904  15.077  20.757  0.00  0.00     0.105 A 
ATOM      6  C   UNL d   1     -39.785  14.419  21.245  0.00  0.00     0.013 A 
ATOM      7  C   UNL d   1     -39.451  14.513  21.983  0.00  0.00     0.001 A 
ATOM      8  C   UNL d   1     -39.231  15.262  22.245  0.00  0.00     0.000 A 
ATOM      9  C   UNL d   1     -39.349  15.920  21.756  0.00  0.00     0.001 A 
ATOM     10  C   UNL d   1     -38.886  15.351  23.007  0.00  0.00     0.000 C 
ATOM     11  C   UNL d   1     -39.687  15.820  21.012  0.00  0.00     0.013 A 
ENDBRANCH   2   5
ENDBRANCH   1   2
BRANCH   1  12
ATOM     12  C   UNL d   1     -40.162  14.497  18.626  0.00  0.00     0.112 A 
ATOM     13  C   UNL d   1     -40.382  14.591  17.835  0.00  0.00     0.103 A 
ATOM     14  C   UNL d   1     -39.956  14.206  17.243  0.00  0.00     0.021 A 
ATOM     15  C   UNL d   1     -39.314  13.728  17.441  0.00  0.00     0.002 A 
ATOM     16  C   UNL d   1     -39.097  13.636  18.242  0.00  0.00     0.002 A 
ATOM     17  C   UNL d   1     -39.511  14.012  18.828  0.00  0.00     0.021 A 
BRANCH  13  18
ATOM     18  N   UNL d   1     -41.022  15.066  17.627  0.00  0.00    -0.206 NA
ATOM     19  C   UNL d   1     -41.022  15.445  16.894  0.00  0.00     0.280 C 
ATOM     20  O   UNL d   1     -40.390  15.344  16.386  0.00  0.00    -0.265 OA
ATOM     21  C   UNL d   1     -41.657  15.922  16.677  0.00  0.00     0.068 C 
ENDBRANCH  13  18
ENDBRANCH   1  12
TORSDOF 4
ENDMDL
MODEL 5
REMARK VINA RESULT:      -5.6      9.047     10.130
REMARK  4 active torsions:
REMARK  status: ('A' for Active; 'I' for Inactive)
REMARK    1  A    between atoms: N_2  and  S_1 
REMARK    2  A    between atoms: C_4  and  S_1 
REMARK    3  A    between atoms: C_3  and  N_2 
REMARK    4  A    between atoms: N_5  and  C_6 
REMARK       I    between atoms: C_9  and  N_5 
ROOT
ATOM      1  N   UNL d   1     -39.488  14.228  18.761  0.00  0.00    -0.157 NA
ENDROOT
BRANCH   1   2
ATOM      2  S   UNL d   1     -39.462  14.568  19.541  0.00  0.00     0.285 S 
ATOM      3  O   UNL d   1     -40.154  14.141  19.752  0.00  0.00    -0.198 OA
ATOM      4  O   UNL d   1     -38.770  14.995  19.330  0.00  0.00    -0.198 OA
BRANCH   2   5
ATOM      5  C   UNL d   1     -39.431  14.906  20.306  0.00  0.00     0.105 A 
ATOM      6  C   UNL d   1     -38.966  15.577  20.443  0.00  0.00     0.013 A 
ATOM      7  C   UNL d   1     -38.934  15.908  21.187  0.00  0.00     0.001 A 
ATOM      8  C   UNL d   1     -39.365  15.575  21.806  0.00  0.00     0.000 A 
ATOM      9  C   UNL d   1     -39.830  14.904  21.668  0.00  0.00     0.001 A 
ATOM     10  C   UNL d   1     -39.328  15.921  22.571  0.00  0.00     0.000 C 
ATOM     11  C   UNL d   1     -39.859  14.574  20.914  0.00  0.00     0.013 A 
ENDBRANCH   2   5
ENDBRANCH   1   2
BRANCH   1  12
ATOM     12  C   UNL d   1     -39.897  14.625  18.150  0.00  0.00     0.112 A 
ATOM     13  C   UNL d   1     -39.686  14.497  17.361  0.00  0.00     0.103 A 
ATOM     14  C   UNL d   1     -40.091  14.889  16.759  0.00  0.00     0.021 A 
ATOM     15  C   UNL d   1     -40.705  15.408  16.945  0.00  0.00     0.002 A 
ATOM     16  C   UNL d   1     -40.914  15.534  17.743  0.00  0.00     0.002 A 
ATOM     17  C   UNL d   1     -40.520  15.151  18.339  0.00  0.00     0.021 A 
BRANCH  13  18
ATOM     18  N   UNL d   1     -39.075  13.980  17.166  0.00  0.00    -0.206 NA
ATOM     19  C   UNL d   1     -38.730  14.028  16.417  0.00  0.00     0.280 C 
ATOM     20  O   UNL d   1     -38.998  14.584  15.883  0.00  0.00    -0.265 OA
ATOM     21  C   UNL d   1     -38.118  13.516  16.212  0.00  0.00     0.068 C 
ENDBRANCH  13  18
ENDBRANCH   1  12
TORSDOF 4
ENDMDL
MODEL 6
REMARK VINA RESULT:      -5.6      8.605     10.153
REMARK  4 active torsions:
REMARK  status: ('A' for Active; 'I' for Inactive)
REMARK    1  A    between atoms: N_2  and  S_1 
REMARK    2  A    between atoms: C_4  and  S_1 
REMARK    3  A    between atoms: C_3  and  N_2 
REMARK    4  A    between atoms: N_5  and  C_6 
REMARK       I    between atoms: C_9  and  N_5 
ROOT
ATOM      1  N   UNL d   1     -39.755  14.842  19.069  0.00  0.00    -0.157 NA
ENDROOT
BRANCH   1   2
ATOM      2  S   UNL d   1     -39.387  14.584  18.346  0.00  0.00     0.285 S 
ATOM      3  O   UNL d   1     -39.860  13.891  18.352  0.00  0.00    -0.198 OA
ATOM      4  O   UNL d   1     -38.912  15.277  18.341  0.00  0.00    -0.198 OA
BRANCH   2   5
ATOM      5  C   UNL d   1     -39.021  14.335  17.636  0.00  0.00     0.105 A 
ATOM      6  C   UNL d   1     -39.068  13.542  17.402  0.00  0.00     0.013 A 
ATOM      7  C   UNL d   1     -38.712  13.299  16.710  0.00  0.00     0.001 A 
ATOM      8  C   UNL d   1     -38.305  13.840  16.242  0.00  0.00     0.000 A 
ATOM      9  C   UNL d   1     -38.258  14.633  16.477  0.00  0.00     0.001 A 
ATOM     10  C   UNL d   1     -37.940  13.582  15.530  0.00  0.00     0.000 C 
ATOM     11  C   UNL d   1     -38.619  14.875  17.176  0.00  0.00     0.013 A 
ENDBRANCH   2   5
ENDBRANCH   1   2
BRANCH   1  12
ATOM     12  C   UNL d   1     -39.458  14.575  19.803  0.00  0.00     0.112 A 
ATOM     13  C   UNL d   1     -39.913  14.662  20.488  0.00  0.00     0.103 A 
ATOM     14  C   UNL d   1     -39.619  14.398  21.212  0.00  0.00     0.021 A 
ATOM     15  C   UNL d   1     -38.873  14.048  21.251  0.00  0.00     0.002 A 
ATOM     16  C   UNL d   1     -38.418  13.963  20.557  0.00  0.00     0.002 A 
ATOM     17  C   UNL d   1     -38.701  14.221  19.843  0.00  0.00     0.021 A 
BRANCH  13  18
ATOM     18  N   UNL d   1     -40.660  15.010  20.459  0.00  0.00    -0.206 NA
ATOM     19  C   UNL d   1     -40.866  15.569  21.030  0.00  0.00     0.280 C 
ATOM     20  O   UNL d   1     -40.331  15.769  21.613  0.00  0.00    -0.265 OA
ATOM     21  C   UNL d   1     -41.611  15.922  21.009  0.00  0.00     0.068 C 
ENDBRANCH  13  18
ENDBRANCH   1  12
TORSDOF 4
ENDMDL
MODEL 7
REMARK VINA RESULT:      -5.5      9.048     10.101
REMARK  4 active torsions:
REMARK  status: ('A' for Active; 'I' for Inactive)
REMARK    1  A    between atoms: N_2  and  S_1 
REMARK    2  A    between atoms: C_4  and  S_1 
REMARK    3  A    between atoms: C_3  and  N_2 
REMARK    4  A    between atoms: N_5  and  C_6 
REMARK       I    between atoms: C_9  and  N_5 
ROOT
ATOM      1  N   UNL d   1     -39.323  14.468  19.791  0.00  0.00    -0.157 NA
ENDROOT
BRANCH   1   2
ATOM      2  S   UNL d   1     -39.583  14.763  19.036  0.00  0.00     0.285 S 
ATOM      3  O   UNL d   1     -38.845  15.148  18.931  0.00  0.00    -0.198 OA
ATOM      4  O   UNL d   1     -40.323  14.377  19.142  0.00  0.00    -0.198 OA
BRANCH   2   5
ATOM      5  C   UNL d   1     -39.845  15.049  18.295  0.00  0.00     0.105 A 
ATOM      6  C   UNL d   1     -39.417  15.642  17.906  0.00  0.00     0.013 A 
ATOM      7  C   UNL d   1     -39.671  15.922  17.184  0.00  0.00     0.001 A 
ATOM      8  C   UNL d   1     -40.354  15.617  16.839  0.00  0.00     0.000 A 
ATOM      9  C   UNL d   1     -40.782  15.025  17.229  0.00  0.00     0.001 A 
ATOM     10  C   UNL d   1     -40.610  15.911  16.094  0.00  0.00     0.000 C 
ATOM     11  C   UNL d   1     -40.522  14.745  17.958  0.00  0.00     0.013 A 
ENDBRANCH   2   5
ENDBRANCH   1   2
BRANCH   1  12
ATOM     12  C   UNL d   1     -39.509  14.891  20.487  0.00  0.00     0.112 A 
ATOM     13  C   UNL d   1     -39.126  14.707  21.196  0.00  0.00     0.103 A 
ATOM     14  C   UNL d   1     -39.310  15.127  21.883  0.00  0.00     0.021 A 
ATOM     15  C   UNL d   1     -39.875  15.727  21.860  0.00  0.00     0.002 A 
ATOM     16  C   UNL d   1     -40.259  15.909  21.141  0.00  0.00     0.002 A 
ATOM     17  C   UNL d   1     -40.082  15.501  20.464  0.00  0.00     0.021 A 
BRANCH  13  18
ATOM     18  N   UNL d   1     -38.560  14.109  21.229  0.00  0.00    -0.206 NA
ATOM     19  C   UNL d   1     -38.506  13.643  21.908  0.00  0.00     0.280 C 
ATOM     20  O   UNL d   1     -39.011  13.779  22.535  0.00  0.00    -0.265 OA
ATOM     21  C   UNL d   1     -37.943  13.042  21.950  0.00  0.00     0.068 C 
ENDBRANCH  13  18
ENDBRANCH   1  12
TORSDOF 4
ENDMDL
