MODEL 1
REMARK VINA RESULT:      58.1      0.000      0.000
REMARK  4 active torsions:
REMARK  status: ('A' for Active; 'I' for Inactive)
REMARK    1  A    between atoms: C_7  and  C_1 
REMARK    2  A    between atoms: N_5  and  C_3 
REMARK       I    between atoms: C_8  and  N_5 
REMARK    3  A    between atoms: C_9  and  C_8 
REMARK    4  A    between atoms: O_21  and  C_15 
ROOT
ATOM      1  C   UNL d   1     -50.477  25.921  33.547  0.00  0.00     0.137 A 
ATOM      2  S   UNL d   1     -50.333  26.669  33.862  0.00  0.00    -0.026 SA
ATOM      3  C   UNL d   1     -49.528  26.821  33.822  0.00  0.00     0.219 A 
ATOM      4  N   UNL d   1     -49.742  25.603  33.306  0.00  0.00    -0.139 NA
ATOM      5  N   UNL d   1     -49.157  26.158  33.475  0.00  0.00    -0.121 NA
ENDROOT
BRANCH   3   6
ATOM      6  N   UNL d   1     -49.148  27.505  34.076  0.00  0.00    -0.181 NA
ATOM      7  C   UNL d   1     -48.897  27.743  34.830  0.00  0.00     0.281 C 
ATOM      8  O   UNL d   1     -49.020  27.255  35.472  0.00  0.00    -0.265 OA
BRANCH   7   9
ATOM      9  C   UNL d   1     -48.524  28.474  34.920  0.00  0.00     0.060 A 
ATOM     10  C   UNL d   1     -48.111  28.631  35.617  0.00  0.00     0.031 A 
ATOM     11  C   UNL d   1     -47.739  29.352  35.714  0.00  0.00     0.119 A 
ATOM     12  O   UNL d   1     -47.296  29.665  36.331  0.00  0.00    -0.300 OA
ATOM     13  C   UNL d   1     -47.776  29.921  35.118  0.00  0.00     0.119 A 
ATOM     14  C   UNL d   1     -47.055  30.430  36.120  0.00  0.00     0.304 A 
ATOM     15  O   UNL d   1     -47.355  30.587  35.365  0.00  0.00    -0.300 OA
ATOM     16  C   UNL d   1     -48.189  29.764  34.421  0.00  0.00     0.026 A 
ATOM     17  C   UNL d   1     -48.563  29.040  34.322  0.00  0.00     0.007 A 
ENDBRANCH   7   9
ENDBRANCH   3   6
BRANCH   1  18
ATOM     18  C   UNL d   1     -51.212  25.548  33.479  0.00  0.00     0.048 A 
ATOM     19  C   UNL d   1     -51.263  24.725  33.374  0.00  0.00     0.096 A 
ATOM     20  C   UNL d   1     -51.986  24.358  33.307  0.00  0.00     0.024 A 
ATOM     21  C   UNL d   1     -52.679  24.811  33.345  0.00  0.00     0.002 A 
ATOM     22  C   UNL d   1     -52.642  25.620  33.449  0.00  0.00     0.000 A 
ATOM     23  C   UNL d   1     -51.902  25.987  33.516  0.00  0.00     0.004 A 
BRANCH  19  24
ATOM     24  O   UNL d   1     -50.573  24.285  33.337  0.00  0.00    -0.328 OA
ATOM     25  C   UNL d   1     -50.537  23.547  33.704  0.00  0.00     0.181 C 
ENDBRANCH  19  24
ENDBRANCH   1  18
TORSDOF 4
ENDMDL
