MODEL 1
REMARK VINA RESULT:      -5.7      0.000      0.000
REMARK  3 active torsions:
REMARK  status: ('A' for Active; 'I' for Inactive)
REMARK    1  A    between atoms: C_2  and  S_1 
REMARK    2  A    between atoms: N_6  and  S_1 
REMARK    3  A    between atoms: N_3  and  C_5 
ROOT
ATOM      1  C   UNL d   1      56.079  -0.204  32.721  0.00  0.00     0.106 A 
ATOM      2  C   UNL d   1      56.543   0.273  32.232  0.00  0.00     0.036 A 
ATOM      3  C   UNL d   1      57.010  -0.073  31.646  0.00  0.00     0.127 A 
ATOM      4  C   UNL d   1      56.083  -1.024  32.623  0.00  0.00     0.012 A 
ATOM      5  C   UNL d   1      57.013  -0.893  31.548  0.00  0.00     0.024 A 
ATOM      6  C   UNL d   1      56.549  -1.370  32.037  0.00  0.00     0.002 A 
ATOM      7  C   UNL d   1      55.614  -1.506  33.118  0.00  0.00     0.001 C 
ENDROOT
BRANCH   1   8
ATOM      8  S   UNL d   1      55.605   0.141  33.316  0.00  0.00     0.272 S 
ATOM      9  O   UNL d   1      54.789   0.205  33.203  0.00  0.00    -0.200 OA
ATOM     10  O   UNL d   1      55.949   0.416  34.014  0.00  0.00    -0.200 OA
BRANCH   8  11
ATOM     11  N   UNL d   1      55.322   0.500  34.004  0.00  0.00    -0.226 N 
ATOM     12  C   UNL d   1      54.515   0.678  34.079  0.00  0.00     0.111 C 
ATOM     13  C   UNL d   1      55.848   0.682  34.616  0.00  0.00     0.111 C 
ENDBRANCH   8  11
ENDBRANCH   1   8
BRANCH   3  14
ATOM     14  N   UNL d   1      57.474   0.404  31.157  0.00  0.00    -0.114 N 
ATOM     15  O   UNL d   1      57.195   0.621  30.411  0.00  0.00    -0.532 OA
ATOM     16  O   UNL d   1      58.215   0.663  31.413  0.00  0.00    -0.532 OA
ENDBRANCH   3  14
TORSDOF 3
ENDMDL
MODEL 2
REMARK VINA RESULT:      -5.0      0.971      2.943
REMARK  3 active torsions:
REMARK  status: ('A' for Active; 'I' for Inactive)
REMARK    1  A    between atoms: C_2  and  S_1 
REMARK    2  A    between atoms: N_6  and  S_1 
REMARK    3  A    between atoms: N_3  and  C_5 
ROOT
ATOM      1  C   UNL d   1      56.324  -0.132  32.566  0.00  0.00     0.106 A 
ATOM      2  C   UNL d   1      55.898   0.307  33.120  0.00  0.00     0.036 A 
ATOM      3  C   UNL d   1      55.360  -0.072  33.618  0.00  0.00     0.127 A 
ATOM      4  C   UNL d   1      56.211  -0.948  32.509  0.00  0.00     0.012 A 
ATOM      5  C   UNL d   1      55.247  -0.889  33.561  0.00  0.00     0.024 A 
ATOM      6  C   UNL d   1      55.673  -1.328  33.006  0.00  0.00     0.002 A 
ATOM      7  C   UNL d   1      56.642  -1.392  31.948  0.00  0.00     0.001 C 
ENDROOT
BRANCH   1   8
ATOM      8  S   UNL d   1      56.871   0.247  32.060  0.00  0.00     0.272 S 
ATOM      9  O   UNL d   1      56.596   0.678  31.411  0.00  0.00    -0.200 OA
ATOM     10  O   UNL d   1      57.681   0.190  32.207  0.00  0.00    -0.200 OA
BRANCH   8  11
ATOM     11  N   UNL d   1      57.552   0.537  31.694  0.00  0.00    -0.226 N 
ATOM     12  C   UNL d   1      58.235   0.682  32.142  0.00  0.00     0.111 C 
ATOM     13  C   UNL d   1      57.548   0.681  30.880  0.00  0.00     0.111 C 
ENDBRANCH   8  11
ENDBRANCH   1   8
BRANCH   3  14
ATOM     14  N   UNL d   1      54.934   0.366  34.172  0.00  0.00    -0.114 N 
ATOM     15  O   UNL d   1      54.163   0.606  34.001  0.00  0.00    -0.532 OA
ATOM     16  O   UNL d   1      55.278   0.566  34.896  0.00  0.00    -0.532 OA
ENDBRANCH   3  14
TORSDOF 3
ENDMDL
MODEL 3
REMARK VINA RESULT:      -4.8      1.183      1.733
REMARK  3 active torsions:
REMARK  status: ('A' for Active; 'I' for Inactive)
REMARK    1  A    between atoms: C_2  and  S_1 
REMARK    2  A    between atoms: N_6  and  S_1 
REMARK    3  A    between atoms: N_3  and  C_5 
ROOT
ATOM      1  C   UNL d   1      56.934   0.057  32.245  0.00  0.00     0.106 A 
ATOM      2  C   UNL d   1      56.994  -0.125  31.443  0.00  0.00     0.036 A 
ATOM      3  C   UNL d   1      57.668   0.096  31.021  0.00  0.00     0.127 A 
ATOM      4  C   UNL d   1      57.547   0.459  32.626  0.00  0.00     0.012 A 
ATOM      5  C   UNL d   1      58.281   0.499  31.401  0.00  0.00     0.024 A 
ATOM      6  C   UNL d   1      58.221   0.681  32.204  0.00  0.00     0.002 A 
ATOM      7  C   UNL d   1      57.486   0.643  33.437  0.00  0.00     0.001 C 
ENDROOT
BRANCH   1   8
ATOM      8  S   UNL d   1      56.254  -0.165  32.677  0.00  0.00     0.272 S 
ATOM      9  O   UNL d   1      55.682   0.402  32.860  0.00  0.00    -0.200 OA
ATOM     10  O   UNL d   1      56.154  -0.948  32.920  0.00  0.00    -0.200 OA
BRANCH   8  11
ATOM     11  N   UNL d   1      55.674  -0.575  33.098  0.00  0.00    -0.226 N 
ATOM     12  C   UNL d   1      55.607  -1.399  33.020  0.00  0.00     0.111 C 
ATOM     13  C   UNL d   1      55.162  -0.161  33.597  0.00  0.00     0.111 C 
ENDBRANCH   8  11
ENDBRANCH   1   8
BRANCH   3  14
ATOM     14  N   UNL d   1      57.728  -0.086  30.218  0.00  0.00    -0.114 N 
ATOM     15  O   UNL d   1      57.467   0.457  29.654  0.00  0.00    -0.532 OA
ATOM     16  O   UNL d   1      58.049  -0.809  29.980  0.00  0.00    -0.532 OA
ENDBRANCH   3  14
TORSDOF 3
ENDMDL
MODEL 4
REMARK VINA RESULT:      -4.7      8.911      9.677
REMARK  3 active torsions:
REMARK  status: ('A' for Active; 'I' for Inactive)
REMARK    1  A    between atoms: C_2  and  S_1 
REMARK    2  A    between atoms: N_6  and  S_1 
REMARK    3  A    between atoms: N_3  and  C_5 
ROOT
ATOM      1  C   UNL d   1      59.797  -8.427  35.184  0.00  0.00     0.106 A 
ATOM      2  C   UNL d   1      60.132  -7.674  35.228  0.00  0.00     0.036 A 
ATOM      3  C   UNL d   1      59.869  -7.141  35.802  0.00  0.00     0.127 A 
ATOM      4  C   UNL d   1      59.202  -8.647  35.713  0.00  0.00     0.012 A 
ATOM      5  C   UNL d   1      59.274  -7.362  36.330  0.00  0.00     0.024 A 
ATOM      6  C   UNL d   1      58.939  -8.115  36.286  0.00  0.00     0.002 A 
ATOM      7  C   UNL d   1      58.864  -9.409  35.668  0.00  0.00     0.001 C 
ENDROOT
BRANCH   1   8
ATOM      8  S   UNL d   1      60.059  -8.970  34.606  0.00  0.00     0.272 S 
ATOM      9  O   UNL d   1      60.143  -9.768  34.802  0.00  0.00    -0.200 OA
ATOM     10  O   UNL d   1      60.234  -8.711  33.842  0.00  0.00    -0.200 OA
BRANCH   8  11
ATOM     11  N   UNL d   1      60.323  -9.333  33.912  0.00  0.00    -0.226 N 
ATOM     12  C   UNL d   1      59.780  -9.542  33.320  0.00  0.00     0.111 C 
ATOM     13  C   UNL d   1      61.129  -9.487  33.812  0.00  0.00     0.111 C 
ENDBRANCH   8  11
ENDBRANCH   1   8
BRANCH   3  14
ATOM     14  N   UNL d   1      60.204  -6.388  35.846  0.00  0.00    -0.114 N 
ATOM     15  O   UNL d   1      60.971  -6.296  36.137  0.00  0.00    -0.532 OA
ATOM     16  O   UNL d   1      59.773  -5.728  35.599  0.00  0.00    -0.532 OA
ENDBRANCH   3  14
TORSDOF 3
ENDMDL
MODEL 5
REMARK VINA RESULT:      -4.0      1.361      3.363
REMARK  3 active torsions:
REMARK  status: ('A' for Active; 'I' for Inactive)
REMARK    1  A    between atoms: C_2  and  S_1 
REMARK    2  A    between atoms: N_6  and  S_1 
REMARK    3  A    between atoms: N_3  and  C_5 
ROOT
ATOM      1  C   UNL d   1      57.279   0.153  32.058  0.00  0.00     0.106 A 
ATOM      2  C   UNL d   1      56.507  -0.103  32.200  0.00  0.00     0.036 A 
ATOM      3  C   UNL d   1      56.204  -0.086  32.968  0.00  0.00     0.127 A 
ATOM      4  C   UNL d   1      57.747   0.424  32.683  0.00  0.00     0.012 A 
ATOM      5  C   UNL d   1      56.672   0.185  33.592  0.00  0.00     0.024 A 
ATOM      6  C   UNL d   1      57.444   0.440  33.450  0.00  0.00     0.002 A 
ATOM      7  C   UNL d   1      58.527   0.682  32.539  0.00  0.00     0.001 C 
ENDROOT
BRANCH   1   8
ATOM      8  S   UNL d   1      57.591   0.138  31.283  0.00  0.00     0.272 S 
ATOM      9  O   UNL d   1      58.173   0.682  31.066  0.00  0.00    -0.200 OA
ATOM     10  O   UNL d   1      57.318  -0.417  30.736  0.00  0.00    -0.200 OA
BRANCH   8  11
ATOM     11  N   UNL d   1      57.763  -0.037  30.495  0.00  0.00    -0.226 N 
ATOM     12  C   UNL d   1      57.592   0.514  29.899  0.00  0.00     0.111 C 
ATOM     13  C   UNL d   1      58.106  -0.765  30.303  0.00  0.00     0.111 C 
ENDBRANCH   8  11
ENDBRANCH   1   8
BRANCH   3  14
ATOM     14  N   UNL d   1      55.432  -0.341  33.109  0.00  0.00    -0.114 N 
ATOM     15  O   UNL d   1      55.233  -1.133  32.987  0.00  0.00    -0.532 OA
ATOM     16  O   UNL d   1      54.860   0.194  33.372  0.00  0.00    -0.532 OA
ENDBRANCH   3  14
TORSDOF 3
ENDMDL
MODEL 6
REMARK VINA RESULT:      -3.5      9.499     10.026
REMARK  3 active torsions:
REMARK  status: ('A' for Active; 'I' for Inactive)
REMARK    1  A    between atoms: C_2  and  S_1 
REMARK    2  A    between atoms: N_6  and  S_1 
REMARK    3  A    between atoms: N_3  and  C_5 
ROOT
ATOM      1  C   UNL d   1      59.644  -9.217  33.966  0.00  0.00     0.106 A 
ATOM      2  C   UNL d   1      58.917  -9.337  33.595  0.00  0.00     0.036 A 
ATOM      3  C   UNL d   1      58.893  -9.636  32.826  0.00  0.00     0.127 A 
ATOM      4  C   UNL d   1      60.346  -9.396  33.570  0.00  0.00     0.012 A 
ATOM      5  C   UNL d   1      59.596  -9.815  32.430  0.00  0.00     0.024 A 
ATOM      6  C   UNL d   1      60.323  -9.695  32.801  0.00  0.00     0.002 A 
ATOM      7  C   UNL d   1      61.081  -9.275  33.946  0.00  0.00     0.001 C 
ENDROOT
BRANCH   1   8
ATOM      8  S   UNL d   1      59.674  -8.914  34.745  0.00  0.00     0.272 S 
ATOM      9  O   UNL d   1      60.197  -8.301  34.926  0.00  0.00    -0.200 OA
ATOM     10  O   UNL d   1      59.183  -9.226  35.330  0.00  0.00    -0.200 OA
BRANCH   8  11
ATOM     11  N   UNL d   1      59.553  -8.761  35.547  0.00  0.00    -0.226 N 
ATOM     12  C   UNL d   1      59.510  -7.978  35.820  0.00  0.00     0.111 C 
ATOM     13  C   UNL d   1      59.475  -9.392  36.076  0.00  0.00     0.111 C 
ENDBRANCH   8  11
ENDBRANCH   1   8
BRANCH   3  14
ATOM     14  N   UNL d   1      58.166  -9.756  32.455  0.00  0.00    -0.114 N 
ATOM     15  O   UNL d   1      58.131  -9.818  31.632  0.00  0.00    -0.532 OA
ATOM     16  O   UNL d   1      57.476  -9.814  32.904  0.00  0.00    -0.532 OA
ENDBRANCH   3  14
TORSDOF 3
ENDMDL
MODEL 7
REMARK VINA RESULT:      -3.5      2.688      4.521
REMARK  3 active torsions:
REMARK  status: ('A' for Active; 'I' for Inactive)
REMARK    1  A    between atoms: C_2  and  S_1 
REMARK    2  A    between atoms: N_6  and  S_1 
REMARK    3  A    between atoms: N_3  and  C_5 
ROOT
ATOM      1  C   UNL d   1      58.160  -0.621  29.986  0.00  0.00     0.106 A 
ATOM      2  C   UNL d   1      57.765  -0.960  30.626  0.00  0.00     0.036 A 
ATOM      3  C   UNL d   1      57.346  -0.479  31.150  0.00  0.00     0.127 A 
ATOM      4  C   UNL d   1      58.138   0.196  29.870  0.00  0.00     0.012 A 
ATOM      5  C   UNL d   1      57.323   0.338  31.034  0.00  0.00     0.024 A 
ATOM      6  C   UNL d   1      57.719   0.677  30.394  0.00  0.00     0.002 A 
ATOM      7  C   UNL d   1      58.538   0.538  29.223  0.00  0.00     0.001 C 
ENDROOT
BRANCH   1   8
ATOM      8  S   UNL d   1      58.586  -1.104  29.453  0.00  0.00     0.272 S 
ATOM      9  O   UNL d   1      58.410  -1.076  28.646  0.00  0.00    -0.200 OA
ATOM     10  O   UNL d   1      59.180  -1.606  29.730  0.00  0.00    -0.200 OA
BRANCH   8  11
ATOM     11  N   UNL d   1      59.106  -1.642  29.102  0.00  0.00    -0.226 N 
ATOM     12  C   UNL d   1      58.853  -2.414  28.932  0.00  0.00     0.111 C 
ATOM     13  C   UNL d   1      59.878  -1.407  28.923  0.00  0.00     0.111 C 
ENDBRANCH   8  11
ENDBRANCH   1   8
BRANCH   3  14
ATOM     14  N   UNL d   1      56.950  -0.817  31.791  0.00  0.00    -0.114 N 
ATOM     15  O   UNL d   1      56.578  -1.549  31.702  0.00  0.00    -0.532 OA
ATOM     16  O   UNL d   1      56.926  -0.425  32.517  0.00  0.00    -0.532 OA
ENDBRANCH   3  14
TORSDOF 3
ENDMDL
MODEL 8
REMARK VINA RESULT:      -3.3      2.953      4.079
REMARK  3 active torsions:
REMARK  status: ('A' for Active; 'I' for Inactive)
REMARK    1  A    between atoms: C_2  and  S_1 
REMARK    2  A    between atoms: N_6  and  S_1 
REMARK    3  A    between atoms: N_3  and  C_5 
ROOT
ATOM      1  C   UNL d   1      58.395  -0.599  29.713  0.00  0.00     0.106 A 
ATOM      2  C   UNL d   1      58.513  -1.415  29.744  0.00  0.00     0.036 A 
ATOM      3  C   UNL d   1      58.922  -1.794  29.136  0.00  0.00     0.127 A 
ATOM      4  C   UNL d   1      58.686  -0.162  29.075  0.00  0.00     0.012 A 
ATOM      5  C   UNL d   1      59.213  -1.358  28.498  0.00  0.00     0.024 A 
ATOM      6  C   UNL d   1      59.096  -0.541  28.466  0.00  0.00     0.002 A 
ATOM      7  C   UNL d   1      58.567   0.663  29.043  0.00  0.00     0.001 C 
ENDROOT
BRANCH   1   8
ATOM      8  S   UNL d   1      57.981  -0.210  30.326  0.00  0.00     0.272 S 
ATOM      9  O   UNL d   1      57.368   0.311  30.139  0.00  0.00    -0.200 OA
ATOM     10  O   UNL d   1      58.183  -0.345  31.114  0.00  0.00    -0.200 OA
BRANCH   8  11
ATOM     11  N   UNL d   1      57.706   0.065  31.054  0.00  0.00    -0.226 N 
ATOM     12  C   UNL d   1      57.027  -0.269  31.396  0.00  0.00     0.111 C 
ATOM     13  C   UNL d   1      58.110   0.674  31.440  0.00  0.00     0.111 C 
ENDBRANCH   8  11
ENDBRANCH   1   8
BRANCH   3  14
ATOM     14  N   UNL d   1      59.040  -2.610  29.167  0.00  0.00    -0.114 N 
ATOM     15  O   UNL d   1      58.399  -3.121  29.068  0.00  0.00    -0.532 OA
ATOM     16  O   UNL d   1      59.796  -2.915  29.298  0.00  0.00    -0.532 OA
ENDBRANCH   3  14
TORSDOF 3
ENDMDL
MODEL 9
REMARK VINA RESULT:      -2.9      5.117      5.986
REMARK  3 active torsions:
REMARK  status: ('A' for Active; 'I' for Inactive)
REMARK    1  A    between atoms: C_2  and  S_1 
REMARK    2  A    between atoms: N_6  and  S_1 
REMARK    3  A    between atoms: N_3  and  C_5 
ROOT
ATOM      1  C   UNL d   1      59.953  -1.590  29.093  0.00  0.00     0.106 A 
ATOM      2  C   UNL d   1      60.502  -2.207  29.107  0.00  0.00     0.036 A 
ATOM      3  C   UNL d   1      60.239  -2.989  29.141  0.00  0.00     0.127 A 
ATOM      4  C   UNL d   1      59.144  -1.755  29.112  0.00  0.00     0.012 A 
ATOM      5  C   UNL d   1      59.430  -3.153  29.161  0.00  0.00     0.024 A 
ATOM      6  C   UNL d   1      58.882  -2.537  29.146  0.00  0.00     0.002 A 
ATOM      7  C   UNL d   1      58.590  -1.131  29.098  0.00  0.00     0.001 C 
ENDROOT
BRANCH   1   8
ATOM      8  S   UNL d   1      60.214  -0.797  29.058  0.00  0.00     0.272 S 
ATOM      9  O   UNL d   1      59.846  -0.268  28.542  0.00  0.00    -0.200 OA
ATOM     10  O   UNL d   1      60.836  -0.543  29.538  0.00  0.00    -0.200 OA
BRANCH   8  11
ATOM     11  N   UNL d   1      60.608  -0.080  29.172  0.00  0.00    -0.226 N 
ATOM     12  C   UNL d   1      60.607   0.282  29.919  0.00  0.00     0.111 C 
ATOM     13  C   UNL d   1      61.002   0.275  28.537  0.00  0.00     0.111 C 
ENDBRANCH   8  11
ENDBRANCH   1   8
BRANCH   3  14
ATOM     14  N   UNL d   1      60.788  -3.605  29.155  0.00  0.00    -0.114 N 
ATOM     15  O   UNL d   1      61.133  -3.830  29.870  0.00  0.00    -0.532 OA
ATOM     16  O   UNL d   1      60.990  -3.996  28.456  0.00  0.00    -0.532 OA
ENDBRANCH   3  14
TORSDOF 3
ENDMDL
