MODEL 1
REMARK VINA RESULT:      18.9      0.000      0.000
REMARK  1 active torsions:
REMARK  status: ('A' for Active; 'I' for Inactive)
REMARK    1  A    between atoms: C_6  and  C_1 
ROOT
ATOM      1  C   UNL d   1      59.723  49.685  51.011  0.00  0.00     0.085 A 
ATOM      2  C   UNL d   1      60.109  49.692  50.277  0.00  0.00     0.137 A 
ATOM      3  C   UNL d   1      58.925  49.689  50.886  0.00  0.00     0.013 A 
ATOM      4  C   UNL d   1      58.810  49.698  50.075  0.00  0.00     0.031 A 
ATOM      5  S   UNL d   1      59.550  49.700  49.710  0.00  0.00    -0.066 SA
ATOM      6  C   UNL d   1      58.278  49.685  51.401  0.00  0.00     0.001 A 
ATOM      7  C   UNL d   1      58.064  49.703  49.774  0.00  0.00     0.006 A 
ATOM      8  N   UNL d   1      60.961  49.691  50.139  0.00  0.00    -0.141 N 
ATOM      9  C   UNL d   1      57.529  49.690  51.112  0.00  0.00     0.000 A 
ATOM     10  C   UNL d   1      57.421  49.700  50.265  0.00  0.00     0.001 A 
ATOM     11  C   UNL d   1      56.617  49.706  49.936  0.00  0.00     0.000 C 
ENDROOT
BRANCH   1  12
ATOM     12  C   UNL d   1      60.118  49.676  51.755  0.00  0.00     0.299 C 
ATOM     13  O   UNL d   1      59.684  49.689  52.451  0.00  0.00    -0.264 OA
ATOM     14  N   UNL d   1      60.967  49.653  51.795  0.00  0.00    -0.102 N 
ENDBRANCH   1  12
TORSDOF 1
ENDMDL
MODEL 2
REMARK VINA RESULT:      21.1      1.061      1.536
REMARK  1 active torsions:
REMARK  status: ('A' for Active; 'I' for Inactive)
REMARK    1  A    between atoms: C_6  and  C_1 
ROOT
ATOM      1  C   UNL d   1      59.649  49.701  51.236  0.00  0.00     0.085 A 
ATOM      2  C   UNL d   1      59.472  49.704  52.045  0.00  0.00     0.137 A 
ATOM      3  C   UNL d   1      58.958  49.700  50.817  0.00  0.00     0.013 A 
ATOM      4  C   UNL d   1      58.348  49.702  51.364  0.00  0.00     0.031 A 
ATOM      5  S   UNL d   1      58.679  49.704  52.120  0.00  0.00    -0.066 SA
ATOM      6  C   UNL d   1      58.794  49.698  50.007  0.00  0.00     0.001 A 
ATOM      7  C   UNL d   1      57.583  49.701  51.115  0.00  0.00     0.006 A 
ATOM      8  N   UNL d   1      60.036  49.706  52.700  0.00  0.00    -0.141 N 
ATOM      9  C   UNL d   1      58.035  49.697  49.746  0.00  0.00     0.000 A 
ATOM     10  C   UNL d   1      57.406  49.699  50.325  0.00  0.00     0.001 A 
ATOM     11  C   UNL d   1      56.579  49.698  50.060  0.00  0.00     0.000 C 
ENDROOT
BRANCH   1  12
ATOM     12  C   UNL d   1      60.430  49.700  50.920  0.00  0.00     0.299 C 
ATOM     13  O   UNL d   1      60.546  49.696  50.108  0.00  0.00    -0.264 OA
ATOM     14  N   UNL d   1      61.106  49.705  51.435  0.00  0.00    -0.102 N 
ENDBRANCH   1  12
TORSDOF 1
ENDMDL
