MODEL 1
REMARK VINA RESULT:      18.2      0.000      0.000
REMARK  3 active torsions:
REMARK  status: ('A' for Active; 'I' for Inactive)
REMARK    1  A    between atoms: C_7  and  C_3 
REMARK    2  A    between atoms: N_5  and  C_8 
REMARK    3  A    between atoms: C_13  and  C_7 
ROOT
ATOM      1  C   UNL d   1     -51.511  26.652  33.346  0.00  0.00     0.127 A 
ATOM      2  C   UNL d   1     -50.585  25.542  33.317  0.00  0.00     0.002 A 
ATOM      3  C   UNL d   1     -51.387  25.836  33.336  0.00  0.00     0.024 A 
ATOM      4  C   UNL d   1     -50.882  27.168  33.338  0.00  0.00     0.024 A 
ATOM      5  C   UNL d   1     -50.094  26.862  33.318  0.00  0.00     0.002 A 
ATOM      6  C   UNL d   1     -49.968  26.043  33.308  0.00  0.00     0.000 A 
ENDROOT
BRANCH   2   7
ATOM      7  C   UNL d   1     -50.470  24.727  33.307  0.00  0.00     0.011 C 
BRANCH   7   8
ATOM      8  C   UNL d   1     -51.122  24.230  33.484  0.00  0.00     0.092 A 
ATOM      9  C   UNL d   1     -51.015  23.559  33.869  0.00  0.00     0.288 A 
ATOM     10  N   UNL d   1     -51.752  23.201  33.956  0.00  0.00    -0.163 NA
ATOM     11  O   UNL d   1     -50.278  23.256  34.146  0.00  0.00    -0.265 OA
ATOM     12  C   UNL d   1     -52.306  23.679  33.609  0.00  0.00     0.313 A 
ATOM     13  S   UNL d   1     -51.943  24.326  33.308  0.00  0.00    -0.021 SA
ATOM     14  O   UNL d   1     -53.140  23.538  33.563  0.00  0.00    -0.258 OA
ENDBRANCH   7   8
ENDBRANCH   2   7
BRANCH   1  15
ATOM     15  N   UNL d   1     -52.273  26.955  33.365  0.00  0.00    -0.114 N 
ATOM     16  O   UNL d   1     -52.924  26.448  33.378  0.00  0.00    -0.532 OA
ATOM     17  O   UNL d   1     -52.386  27.761  33.371  0.00  0.00    -0.532 OA
ENDBRANCH   1  15
TORSDOF 3
ENDMDL
