MODEL 1
REMARK VINA RESULT:      19.0      0.000      0.000
REMARK  6 active torsions:
REMARK  status: ('A' for Active; 'I' for Inactive)
REMARK    1  A    between atoms: S_7  and  C_1 
REMARK       I    between atoms: C_6  and  N_9 
REMARK    2  A    between atoms: C_13  and  C_6 
REMARK    3  A    between atoms: C_15  and  S_7 
REMARK    4  A    between atoms: N_9  and  C_16 
REMARK    5  A    between atoms: O_14  and  C_13 
REMARK    6  A    between atoms: C_16  and  C_15 
ROOT
ATOM      1  C   UNL d   1      13.164  12.724  -3.595  0.00  0.00     0.049 A 
ATOM      2  N   UNL d   1      13.164  13.861  -4.292  0.00  0.00    -0.245 NA
ATOM      3  C   UNL d   1      13.170  13.547  -3.533  0.00  0.00     0.087 A 
ATOM      4  C   UNL d   1      13.154  12.524  -4.389  0.00  0.00     0.025 A 
ATOM      5  C   UNL d   1      13.154  13.230  -4.827  0.00  0.00     0.082 A 
ATOM      6  C   UNL d   1      13.180  13.975  -2.829  0.00  0.00     0.021 C 
ATOM      7  C   UNL d   1      13.145  11.802  -4.778  0.00  0.00     0.002 A 
ATOM      8  C   UNL d   1      13.145  13.206  -5.651  0.00  0.00     0.019 A 
ATOM      9  C   UNL d   1      13.137  11.779  -5.602  0.00  0.00     0.000 A 
ATOM     10  C   UNL d   1      13.137  12.477  -6.033  0.00  0.00     0.002 A 
ENDROOT
BRANCH   1  11
ATOM     11  S   UNL d   1      13.167  12.190  -2.964  0.00  0.00    -0.083 SA
BRANCH  11  12
ATOM     12  C   UNL d   1      13.892  11.969  -2.619  0.00  0.00     0.056 C 
BRANCH  12  13
ATOM     13  C   UNL d   1      13.919  11.779  -1.814  0.00  0.00     0.109 C 
BRANCH  13  14
ATOM     14  N   UNL d   1      14.389  12.222  -1.317  0.00  0.00    -0.204 NA
ATOM     15  C   UNL d   1      14.178  12.308  -0.527  0.00  0.00     0.304 C 
ATOM     16  O   UNL d   1      13.492  11.948  -0.238  0.00  0.00    -0.263 OA
BRANCH  15  17
ATOM     17  C   UNL d   1      14.661  12.761  -0.018  0.00  0.00     0.179 C 
BRANCH  17  18
ATOM     18  O   UNL d   1      15.362  13.086  -0.310  0.00  0.00    -0.322 OA
ATOM     19  C   UNL d   1      15.634  13.815  -0.022  0.00  0.00     0.182 C 
ENDBRANCH  17  18
ENDBRANCH  15  17
ENDBRANCH  13  14
ENDBRANCH  12  13
ENDBRANCH  11  12
ENDBRANCH   1  11
TORSDOF 6
ENDMDL
