MODEL 1
REMARK VINA RESULT:      -4.9      0.000      0.000
REMARK  2 active torsions:
REMARK  status: ('A' for Active; 'I' for Inactive)
REMARK    1  A    between atoms: C_11  and  N_1 
REMARK    2  A    between atoms: C_15  and  C_11 
ROOT
ATOM      1  N   UNL d   1      56.694  -0.499  32.926  0.00  0.00    -0.244 N 
ATOM      2  C   UNL d   1      56.670  -0.871  32.187  0.00  0.00     0.246 A 
ATOM      3  C   UNL d   1      57.171  -0.460  31.668  0.00  0.00     0.095 A 
ATOM      4  C   UNL d   1      57.215   0.150  32.866  0.00  0.00     0.260 A 
ATOM      5  C   UNL d   1      57.509   0.174  32.090  0.00  0.00     0.024 A 
ATOM      6  C   UNL d   1      57.362  -0.576  30.879  0.00  0.00     0.034 A 
ATOM      7  C   UNL d   1      58.032   0.682  31.717  0.00  0.00     0.045 A 
ATOM      8  C   UNL d   1      57.886  -0.067  30.505  0.00  0.00    -0.030 A 
ATOM      9  C   UNL d   1      58.221   0.560  30.923  0.00  0.00    -0.027 A 
ATOM     10  C   UNL d   1      57.579  -0.026  31.459  0.00  0.00     0.014 A 
ATOM     11  O   UNL d   1      56.221  -1.544  31.992  0.00  0.00    -0.271 OA
ATOM     12  O   UNL d   1      57.408   0.681  33.474  0.00  0.00    -0.267 OA
ATOM     13  C   UNL d   1      56.735  -1.130  31.441  0.00  0.00     0.014 C 
ENDROOT
BRANCH   1  14
ATOM     14  C   UNL d   1      56.277  -0.729  33.598  0.00  0.00     0.086 C 
BRANCH  14  15
ATOM     15  C   UNL d   1      55.665  -0.260  33.879  0.00  0.00     0.018 A 
ATOM     16  C   UNL d   1      54.959  -0.221  33.469  0.00  0.00     0.002 A 
ATOM     17  C   UNL d   1      54.347   0.248  33.749  0.00  0.00     0.000 A 
ATOM     18  C   UNL d   1      54.444   0.682  34.450  0.00  0.00     0.000 A 
ATOM     19  C   UNL d   1      55.158   0.639  34.861  0.00  0.00     0.000 A 
ATOM     20  C   UNL d   1      55.765   0.168  34.574  0.00  0.00     0.002 A 
ENDBRANCH  14  15
ENDBRANCH   1  14
TORSDOF 2
ENDMDL
MODEL 2
REMARK VINA RESULT:      -4.7      1.375      2.243
REMARK  2 active torsions:
REMARK  status: ('A' for Active; 'I' for Inactive)
REMARK    1  A    between atoms: C_11  and  N_1 
REMARK    2  A    between atoms: C_15  and  C_11 
ROOT
ATOM      1  N   UNL d   1      57.522   0.670  31.458  0.00  0.00    -0.244 N 
ATOM      2  C   UNL d   1      57.703   0.661  30.651  0.00  0.00     0.246 A 
ATOM      3  C   UNL d   1      58.528   0.660  30.566  0.00  0.00     0.095 A 
ATOM      4  C   UNL d   1      58.242   0.674  31.880  0.00  0.00     0.260 A 
ATOM      5  C   UNL d   1      58.862   0.668  31.329  0.00  0.00     0.024 A 
ATOM      6  C   UNL d   1      59.014   0.653  29.905  0.00  0.00     0.034 A 
ATOM      7  C   UNL d   1      59.677   0.668  31.420  0.00  0.00     0.045 A 
ATOM      8  C   UNL d   1      59.830   0.654  29.996  0.00  0.00    -0.030 A 
ATOM      9  C   UNL d   1      60.161   0.661  30.752  0.00  0.00    -0.027 A 
ATOM     10  C   UNL d   1      59.140   0.661  30.724  0.00  0.00     0.014 A 
ATOM     11  O   UNL d   1      57.153   0.655  30.026  0.00  0.00    -0.271 OA
ATOM     12  O   UNL d   1      58.327   0.682  32.705  0.00  0.00    -0.267 OA
ATOM     13  C   UNL d   1      58.007   0.654  29.919  0.00  0.00     0.014 C 
ENDROOT
BRANCH   1  14
ATOM     14  C   UNL d   1      56.766   0.673  31.785  0.00  0.00     0.086 C 
BRANCH  14  15
ATOM     15  C   UNL d   1      56.498   0.017  32.200  0.00  0.00     0.018 A 
ATOM     16  C   UNL d   1      56.202   0.104  32.957  0.00  0.00     0.002 A 
ATOM     17  C   UNL d   1      55.934  -0.551  33.372  0.00  0.00     0.000 A 
ATOM     18  C   UNL d   1      55.964  -1.303  33.022  0.00  0.00     0.000 A 
ATOM     19  C   UNL d   1      56.263  -1.388  32.258  0.00  0.00     0.000 A 
ATOM     20  C   UNL d   1      56.529  -0.727  31.850  0.00  0.00     0.002 A 
ENDBRANCH  14  15
ENDBRANCH   1  14
TORSDOF 2
ENDMDL
MODEL 3
REMARK VINA RESULT:      -4.3      8.746      9.752
REMARK  2 active torsions:
REMARK  status: ('A' for Active; 'I' for Inactive)
REMARK    1  A    between atoms: C_11  and  N_1 
REMARK    2  A    between atoms: C_15  and  C_11 
ROOT
ATOM      1  N   UNL d   1      59.723  -9.059  35.009  0.00  0.00    -0.244 N 
ATOM      2  C   UNL d   1      59.273  -8.547  35.478  0.00  0.00     0.246 A 
ATOM      3  C   UNL d   1      59.755  -7.916  35.719  0.00  0.00     0.095 A 
ATOM      4  C   UNL d   1      60.494  -8.743  34.957  0.00  0.00     0.260 A 
ATOM      5  C   UNL d   1      60.513  -8.038  35.395  0.00  0.00     0.024 A 
ATOM      6  C   UNL d   1      59.608  -7.257  36.183  0.00  0.00     0.034 A 
ATOM      7  C   UNL d   1      61.112  -7.498  35.541  0.00  0.00     0.045 A 
ATOM      8  C   UNL d   1      60.208  -6.716  36.329  0.00  0.00    -0.030 A 
ATOM      9  C   UNL d   1      60.959  -6.836  36.008  0.00  0.00    -0.027 A 
ATOM     10  C   UNL d   1      60.268  -7.553  35.781  0.00  0.00     0.014 A 
ATOM     11  O   UNL d   1      58.471  -8.645  35.678  0.00  0.00    -0.271 OA
ATOM     12  O   UNL d   1      61.132  -9.072  34.541  0.00  0.00    -0.267 OA
ATOM     13  C   UNL d   1      58.956  -7.983  35.937  0.00  0.00     0.014 C 
ENDROOT
BRANCH   1  14
ATOM     14  C   UNL d   1      59.457  -9.754  34.657  0.00  0.00     0.086 C 
BRANCH  14  15
ATOM     15  C   UNL d   1      59.268  -9.760  33.858  0.00  0.00     0.018 A 
ATOM     16  C   UNL d   1      59.861  -9.812  33.298  0.00  0.00     0.002 A 
ATOM     17  C   UNL d   1      59.673  -9.818  32.500  0.00  0.00     0.000 A 
ATOM     18  C   UNL d   1      58.879  -9.772  32.260  0.00  0.00     0.000 A 
ATOM     19  C   UNL d   1      58.283  -9.720  32.828  0.00  0.00     0.000 A 
ATOM     20  C   UNL d   1      58.481  -9.715  33.625  0.00  0.00     0.002 A 
ENDBRANCH  14  15
ENDBRANCH   1  14
TORSDOF 2
ENDMDL
MODEL 4
REMARK VINA RESULT:      -4.2      0.781      3.402
REMARK  2 active torsions:
REMARK  status: ('A' for Active; 'I' for Inactive)
REMARK    1  A    between atoms: C_11  and  N_1 
REMARK    2  A    between atoms: C_15  and  C_11 
ROOT
ATOM      1  N   UNL d   1      57.384  -0.496  32.181  0.00  0.00    -0.244 N 
ATOM      2  C   UNL d   1      56.652  -0.880  32.231  0.00  0.00     0.246 A 
ATOM      3  C   UNL d   1      56.185  -0.486  32.792  0.00  0.00     0.095 A 
ATOM      4  C   UNL d   1      57.372   0.144  32.716  0.00  0.00     0.260 A 
ATOM      5  C   UNL d   1      56.632   0.150  33.093  0.00  0.00     0.024 A 
ATOM      6  C   UNL d   1      55.424  -0.617  33.066  0.00  0.00     0.034 A 
ATOM      7  C   UNL d   1      56.310   0.643  33.663  0.00  0.00     0.045 A 
ATOM      8  C   UNL d   1      55.101  -0.123  33.636  0.00  0.00    -0.030 A 
ATOM      9  C   UNL d   1      55.544   0.506  33.935  0.00  0.00    -0.027 A 
ATOM     10  C   UNL d   1      56.015  -0.061  33.228  0.00  0.00     0.014 A 
ATOM     11  O   UNL d   1      56.420  -1.549  31.794  0.00  0.00    -0.271 OA
ATOM     12  O   UNL d   1      57.989   0.682  32.851  0.00  0.00    -0.267 OA
ATOM     13  C   UNL d   1      55.921  -1.153  32.372  0.00  0.00     0.014 C 
ENDROOT
BRANCH   1  14
ATOM     14  C   UNL d   1      58.010  -0.709  31.689  0.00  0.00     0.086 C 
BRANCH  14  15
ATOM     15  C   UNL d   1      58.044  -0.417  30.923  0.00  0.00     0.018 A 
ATOM     16  C   UNL d   1      58.066   0.389  30.792  0.00  0.00     0.002 A 
ATOM     17  C   UNL d   1      58.100   0.681  30.026  0.00  0.00     0.000 A 
ATOM     18  C   UNL d   1      58.112   0.156  29.383  0.00  0.00     0.000 A 
ATOM     19  C   UNL d   1      58.090  -0.657  29.519  0.00  0.00     0.000 A 
ATOM     20  C   UNL d   1      58.056  -0.941  30.288  0.00  0.00     0.002 A 
ENDBRANCH  14  15
ENDBRANCH   1  14
TORSDOF 2
ENDMDL
MODEL 5
REMARK VINA RESULT:      -3.8      2.188      3.563
REMARK  2 active torsions:
REMARK  status: ('A' for Active; 'I' for Inactive)
REMARK    1  A    between atoms: C_11  and  N_1 
REMARK    2  A    between atoms: C_15  and  C_11 
ROOT
ATOM      1  N   UNL d   1      58.242  -0.275  29.955  0.00  0.00    -0.244 N 
ATOM      2  C   UNL d   1      58.965  -0.087  29.600  0.00  0.00     0.246 A 
ATOM      3  C   UNL d   1      59.313  -0.787  29.321  0.00  0.00     0.095 A 
ATOM      4  C   UNL d   1      58.138  -1.101  29.896  0.00  0.00     0.260 A 
ATOM      5  C   UNL d   1      58.799  -1.416  29.505  0.00  0.00     0.024 A 
ATOM      6  C   UNL d   1      60.018  -0.934  28.930  0.00  0.00     0.034 A 
ATOM      7  C   UNL d   1      58.998  -2.183  29.294  0.00  0.00     0.045 A 
ATOM      8  C   UNL d   1      60.218  -1.701  28.719  0.00  0.00    -0.030 A 
ATOM      9  C   UNL d   1      59.709  -2.325  28.901  0.00  0.00    -0.027 A 
ATOM     10  C   UNL d   1      59.389  -1.401  29.196  0.00  0.00     0.014 A 
ATOM     11  O   UNL d   1      59.293   0.675  29.533  0.00  0.00    -0.271 OA
ATOM     12  O   UNL d   1      57.489  -1.535  30.177  0.00  0.00    -0.267 OA
ATOM     13  C   UNL d   1      59.668  -0.040  29.237  0.00  0.00     0.014 C 
ENDROOT
BRANCH   1  14
ATOM     14  C   UNL d   1      57.719   0.258  30.303  0.00  0.00     0.086 C 
BRANCH  14  15
ATOM     15  C   UNL d   1      57.632   0.269  31.120  0.00  0.00     0.018 A 
ATOM     16  C   UNL d   1      57.000  -0.113  31.469  0.00  0.00     0.002 A 
ATOM     17  C   UNL d   1      56.912  -0.102  32.284  0.00  0.00     0.000 A 
ATOM     18  C   UNL d   1      57.467   0.298  32.755  0.00  0.00     0.000 A 
ATOM     19  C   UNL d   1      58.105   0.682  32.399  0.00  0.00     0.000 A 
ATOM     20  C   UNL d   1      58.184   0.666  31.582  0.00  0.00     0.002 A 
ENDBRANCH  14  15
ENDBRANCH   1  14
TORSDOF 2
ENDMDL
MODEL 6
REMARK VINA RESULT:      -3.6      1.957      4.212
REMARK  2 active torsions:
REMARK  status: ('A' for Active; 'I' for Inactive)
REMARK    1  A    between atoms: C_11  and  N_1 
REMARK    2  A    between atoms: C_15  and  C_11 
ROOT
ATOM      1  N   UNL d   1      58.423   0.676  30.628  0.00  0.00    -0.244 N 
ATOM      2  C   UNL d   1      57.610   0.674  30.780  0.00  0.00     0.246 A 
ATOM      3  C   UNL d   1      57.496   0.675  31.602  0.00  0.00     0.095 A 
ATOM      4  C   UNL d   1      58.819   0.679  31.362  0.00  0.00     0.260 A 
ATOM      5  C   UNL d   1      58.246   0.679  31.963  0.00  0.00     0.024 A 
ATOM      6  C   UNL d   1      56.818   0.675  32.064  0.00  0.00     0.034 A 
ATOM      7  C   UNL d   1      58.308   0.681  32.781  0.00  0.00     0.045 A 
ATOM      8  C   UNL d   1      56.880   0.677  32.883  0.00  0.00    -0.030 A 
ATOM      9  C   UNL d   1      57.623   0.680  33.240  0.00  0.00    -0.027 A 
ATOM     10  C   UNL d   1      57.632   0.678  32.219  0.00  0.00     0.014 A 
ATOM     11  O   UNL d   1      57.005   0.670  30.209  0.00  0.00    -0.271 OA
ATOM     12  O   UNL d   1      59.641   0.682  31.476  0.00  0.00    -0.267 OA
ATOM     13  C   UNL d   1      56.867   0.672  31.058  0.00  0.00     0.014 C 
ENDROOT
BRANCH   1  14
ATOM     14  C   UNL d   1      58.777   0.675  29.884  0.00  0.00     0.086 C 
BRANCH  14  15
ATOM     15  C   UNL d   1      59.104  -0.018  29.589  0.00  0.00     0.018 A 
ATOM     16  C   UNL d   1      58.619  -0.609  29.301  0.00  0.00     0.002 A 
ATOM     17  C   UNL d   1      58.946  -1.302  29.006  0.00  0.00     0.000 A 
ATOM     18  C   UNL d   1      59.770  -1.402  29.001  0.00  0.00     0.000 A 
ATOM     19  C   UNL d   1      60.256  -0.803  29.292  0.00  0.00     0.000 A 
ATOM     20  C   UNL d   1      59.921  -0.113  29.585  0.00  0.00     0.002 A 
ENDBRANCH  14  15
ENDBRANCH   1  14
TORSDOF 2
ENDMDL
MODEL 7
REMARK VINA RESULT:      -3.6      3.177      4.630
REMARK  2 active torsions:
REMARK  status: ('A' for Active; 'I' for Inactive)
REMARK    1  A    between atoms: C_11  and  N_1 
REMARK    2  A    between atoms: C_15  and  C_11 
ROOT
ATOM      1  N   UNL d   1      59.117  -1.295  29.177  0.00  0.00    -0.244 N 
ATOM      2  C   UNL d   1      58.905  -2.095  29.194  0.00  0.00     0.246 A 
ATOM      3  C   UNL d   1      59.598  -2.552  29.173  0.00  0.00     0.095 A 
ATOM      4  C   UNL d   1      59.949  -1.253  29.144  0.00  0.00     0.260 A 
ATOM      5  C   UNL d   1      60.246  -2.029  29.142  0.00  0.00     0.024 A 
ATOM      6  C   UNL d   1      59.724  -3.362  29.177  0.00  0.00     0.034 A 
ATOM      7  C   UNL d   1      61.010  -2.324  29.116  0.00  0.00     0.045 A 
ATOM      8  C   UNL d   1      60.489  -3.658  29.151  0.00  0.00    -0.030 A 
ATOM      9  C   UNL d   1      61.131  -3.140  29.121  0.00  0.00    -0.027 A 
ATOM     10  C   UNL d   1      60.213  -2.694  29.151  0.00  0.00     0.014 A 
ATOM     11  O   UNL d   1      58.130  -2.396  29.227  0.00  0.00    -0.271 OA
ATOM     12  O   UNL d   1      60.405  -0.560  29.119  0.00  0.00    -0.267 OA
ATOM     13  C   UNL d   1      58.837  -2.885  29.205  0.00  0.00     0.014 C 
ENDROOT
BRANCH   1  14
ATOM     14  C   UNL d   1      58.596  -0.656  29.189  0.00  0.00     0.086 C 
BRANCH  14  15
ATOM     15  C   UNL d   1      58.440  -0.272  29.898  0.00  0.00     0.018 A 
ATOM     16  C   UNL d   1      58.957   0.296  30.177  0.00  0.00     0.002 A 
ATOM     17  C   UNL d   1      58.801   0.681  30.885  0.00  0.00     0.000 A 
ATOM     18  C   UNL d   1      58.119   0.492  31.317  0.00  0.00     0.000 A 
ATOM     19  C   UNL d   1      57.599  -0.082  31.032  0.00  0.00     0.000 A 
ATOM     20  C   UNL d   1      57.763  -0.462  30.323  0.00  0.00     0.002 A 
ENDBRANCH  14  15
ENDBRANCH   1  14
TORSDOF 2
ENDMDL
