MODEL 1
REMARK VINA RESULT:     -10.6      0.000      0.000
REMARK  3 active torsions:
REMARK  status: ('A' for Active; 'I' for Inactive)
REMARK    1  A    between atoms: N_5  and  C_1 
REMARK    2  A    between atoms: C_7  and  N_2 
REMARK    3  A    between atoms: C_9  and  C_7 
ROOT
ATOM      1  C   UNL d   1      52.214  32.401  53.018  0.00  0.00     0.720 A 
ATOM      2  N   UNL d   1      53.029  32.355  53.160  0.00  0.00    -0.139 N 
ATOM      3  N   UNL d   1      51.915  31.632  53.008  0.00  0.00    -0.060 NA
ATOM      4  C   UNL d   1      53.228  31.555  53.237  0.00  0.00     0.100 A 
ATOM      5  C   UNL d   1      52.541  31.109  53.143  0.00  0.00     0.116 A 
ATOM      6  C   UNL d   1      53.953  31.185  53.381  0.00  0.00     0.020 A 
ATOM      7  C   UNL d   1      52.573  30.289  53.193  0.00  0.00     0.021 A 
ATOM      8  C   UNL d   1      53.984  30.365  53.430  0.00  0.00     0.002 A 
ATOM      9  C   UNL d   1      53.298  29.919  53.336  0.00  0.00     0.002 A 
ENDROOT
BRANCH   2  10
ATOM     10  C   UNL d   1      53.548  32.997  53.214  0.00  0.00     0.098 C 
BRANCH  10  11
ATOM     11  C   UNL d   1      53.947  33.139  53.926  0.00  0.00     0.018 A 
ATOM     12  C   UNL d   1      53.532  33.176  54.629  0.00  0.00     0.002 A 
ATOM     13  C   UNL d   1      53.932  33.317  55.336  0.00  0.00     0.000 A 
ATOM     14  C   UNL d   1      54.753  33.420  55.332  0.00  0.00     0.000 A 
ATOM     15  C   UNL d   1      55.166  33.380  54.614  0.00  0.00     0.000 A 
ATOM     16  C   UNL d   1      54.763  33.239  53.912  0.00  0.00     0.002 A 
ENDBRANCH  10  11
ENDBRANCH   2  10
BRANCH   1  17
ATOM     17  N   UNL d   1      51.787  33.097  52.908  0.00  0.00    -0.136 N 
ATOM     18  C   UNL d   1      51.961  33.600  52.276  0.00  0.00     0.119 A 
ATOM     19  C   UNL d   1      51.531  34.291  52.172  0.00  0.00     0.119 A 
ATOM     20  N   UNL d   1      50.926  34.486  52.697  0.00  0.00    -0.239 NA
ATOM     21  C   UNL d   1      50.752  33.984  53.328  0.00  0.00     0.119 A 
ATOM     22  C   UNL d   1      51.181  33.284  53.439  0.00  0.00     0.119 A 
ENDBRANCH   1  17
TORSDOF 3
ENDMDL
MODEL 2
REMARK VINA RESULT:     -10.4      0.875      2.793
REMARK  3 active torsions:
REMARK  status: ('A' for Active; 'I' for Inactive)
REMARK    1  A    between atoms: N_5  and  C_1 
REMARK    2  A    between atoms: C_7  and  N_2 
REMARK    3  A    between atoms: C_9  and  C_7 
ROOT
ATOM      1  C   UNL d   1      52.487  31.991  53.116  0.00  0.00     0.720 A 
ATOM      2  N   UNL d   1      53.040  32.600  53.211  0.00  0.00    -0.139 N 
ATOM      3  N   UNL d   1      51.750  32.338  52.981  0.00  0.00    -0.060 NA
ATOM      4  C   UNL d   1      52.641  33.321  53.133  0.00  0.00     0.100 A 
ATOM      5  C   UNL d   1      51.845  33.160  52.991  0.00  0.00     0.116 A 
ATOM      6  C   UNL d   1      52.910  34.102  53.175  0.00  0.00     0.020 A 
ATOM      7  C   UNL d   1      51.311  33.778  52.890  0.00  0.00     0.021 A 
ATOM      8  C   UNL d   1      52.376  34.718  53.074  0.00  0.00     0.002 A 
ATOM      9  C   UNL d   1      51.581  34.557  52.933  0.00  0.00     0.002 A 
ENDROOT
BRANCH   2  10
ATOM     10  C   UNL d   1      53.849  32.501  53.357  0.00  0.00     0.098 C 
BRANCH  10  11
ATOM     11  C   UNL d   1      54.177  32.806  54.053  0.00  0.00     0.018 A 
ATOM     12  C   UNL d   1      53.867  32.594  54.780  0.00  0.00     0.002 A 
ATOM     13  C   UNL d   1      54.196  32.899  55.472  0.00  0.00     0.000 A 
ATOM     14  C   UNL d   1      54.838  33.419  55.429  0.00  0.00     0.000 A 
ATOM     15  C   UNL d   1      55.146  33.628  54.688  0.00  0.00     0.000 A 
ATOM     16  C   UNL d   1      54.815  33.321  54.001  0.00  0.00     0.002 A 
ENDBRANCH  10  11
ENDBRANCH   2  10
BRANCH   1  17
ATOM     17  N   UNL d   1      52.652  31.185  53.152  0.00  0.00    -0.136 N 
ATOM     18  C   UNL d   1      53.144  30.832  52.590  0.00  0.00     0.119 A 
ATOM     19  C   UNL d   1      53.304  30.029  52.633  0.00  0.00     0.119 A 
ATOM     20  N   UNL d   1      52.975  29.571  53.234  0.00  0.00    -0.239 NA
ATOM     21  C   UNL d   1      52.483  29.923  53.795  0.00  0.00     0.119 A 
ATOM     22  C   UNL d   1      52.317  30.735  53.760  0.00  0.00     0.119 A 
ENDBRANCH   1  17
TORSDOF 3
ENDMDL
MODEL 3
REMARK VINA RESULT:      -9.9      1.087      2.877
REMARK  3 active torsions:
REMARK  status: ('A' for Active; 'I' for Inactive)
REMARK    1  A    between atoms: N_5  and  C_1 
REMARK    2  A    between atoms: C_7  and  N_2 
REMARK    3  A    between atoms: C_9  and  C_7 
ROOT
ATOM      1  C   UNL d   1      53.989  32.262  54.162  0.00  0.00     0.720 A 
ATOM      2  N   UNL d   1      53.506  32.359  53.496  0.00  0.00    -0.139 N 
ATOM      3  N   UNL d   1      53.986  31.461  54.361  0.00  0.00    -0.060 NA
ATOM      4  C   UNL d   1      53.208  31.615  53.287  0.00  0.00     0.100 A 
ATOM      5  C   UNL d   1      53.504  31.062  53.821  0.00  0.00     0.116 A 
ATOM      6  C   UNL d   1      52.703  31.381  52.676  0.00  0.00     0.020 A 
ATOM      7  C   UNL d   1      53.298  30.268  53.749  0.00  0.00     0.021 A 
ATOM      8  C   UNL d   1      52.498  30.589  52.604  0.00  0.00     0.002 A 
ATOM      9  C   UNL d   1      52.793  30.035  53.138  0.00  0.00     0.002 A 
ENDROOT
BRANCH   2  10
ATOM     10  C   UNL d   1      53.352  33.075  53.109  0.00  0.00     0.098 C 
BRANCH  10  11
ATOM     11  C   UNL d   1      52.578  33.368  53.088  0.00  0.00     0.018 A 
ATOM     12  C   UNL d   1      52.122  33.369  53.766  0.00  0.00     0.002 A 
ATOM     13  C   UNL d   1      51.351  33.661  53.742  0.00  0.00     0.000 A 
ATOM     14  C   UNL d   1      51.042  33.952  53.033  0.00  0.00     0.000 A 
ATOM     15  C   UNL d   1      51.512  33.947  52.350  0.00  0.00     0.000 A 
ATOM     16  C   UNL d   1      52.280  33.655  52.378  0.00  0.00     0.002 A 
ENDBRANCH  10  11
ENDBRANCH   2  10
BRANCH   1  17
ATOM     17  N   UNL d   1      54.396  32.865  54.549  0.00  0.00    -0.136 N 
ATOM     18  C   UNL d   1      55.014  33.263  54.173  0.00  0.00     0.119 A 
ATOM     19  C   UNL d   1      55.414  33.862  54.565  0.00  0.00     0.119 A 
ATOM     20  N   UNL d   1      55.202  34.069  55.334  0.00  0.00    -0.239 NA
ATOM     21  C   UNL d   1      54.584  33.671  55.710  0.00  0.00     0.119 A 
ATOM     22  C   UNL d   1      54.174  33.065  55.321  0.00  0.00     0.119 A 
ENDBRANCH   1  17
TORSDOF 3
ENDMDL
MODEL 4
REMARK VINA RESULT:      -9.8      0.752      2.518
REMARK  3 active torsions:
REMARK  status: ('A' for Active; 'I' for Inactive)
REMARK    1  A    between atoms: N_5  and  C_1 
REMARK    2  A    between atoms: C_7  and  N_2 
REMARK    3  A    between atoms: C_9  and  C_7 
ROOT
ATOM      1  C   UNL d   1      52.443  33.731  53.567  0.00  0.00     0.720 A 
ATOM      2  N   UNL d   1      53.004  33.137  53.432  0.00  0.00    -0.139 N 
ATOM      3  N   UNL d   1      52.681  34.157  54.232  0.00  0.00    -0.060 NA
ATOM      4  C   UNL d   1      53.587  33.200  54.017  0.00  0.00     0.100 A 
ATOM      5  C   UNL d   1      53.388  33.829  54.510  0.00  0.00     0.116 A 
ATOM      6  C   UNL d   1      54.272  32.759  54.154  0.00  0.00     0.020 A 
ATOM      7  C   UNL d   1      53.872  34.022  55.147  0.00  0.00     0.021 A 
ATOM      8  C   UNL d   1      54.755  32.952  54.790  0.00  0.00     0.002 A 
ATOM      9  C   UNL d   1      54.556  33.581  55.284  0.00  0.00     0.002 A 
ENDROOT
BRANCH   2  10
ATOM     10  C   UNL d   1      52.982  32.580  52.819  0.00  0.00     0.098 C 
BRANCH  10  11
ATOM     11  C   UNL d   1      52.932  31.775  53.003  0.00  0.00     0.018 A 
ATOM     12  C   UNL d   1      52.244  31.469  53.322  0.00  0.00     0.002 A 
ATOM     13  C   UNL d   1      52.196  30.666  53.504  0.00  0.00     0.000 A 
ATOM     14  C   UNL d   1      52.845  30.172  53.363  0.00  0.00     0.000 A 
ATOM     15  C   UNL d   1      53.538  30.491  53.039  0.00  0.00     0.000 A 
ATOM     16  C   UNL d   1      53.581  31.292  52.859  0.00  0.00     0.002 A 
ENDBRANCH  10  11
ENDBRANCH   2  10
BRANCH   1  17
ATOM     17  N   UNL d   1      51.769  33.865  53.112  0.00  0.00    -0.136 N 
ATOM     18  C   UNL d   1      51.836  34.135  52.334  0.00  0.00     0.119 A 
ATOM     19  C   UNL d   1      51.161  34.266  51.887  0.00  0.00     0.119 A 
ATOM     20  N   UNL d   1      50.415  34.130  52.210  0.00  0.00    -0.239 NA
ATOM     21  C   UNL d   1      50.349  33.859  52.987  0.00  0.00     0.119 A 
ATOM     22  C   UNL d   1      51.026  33.724  53.446  0.00  0.00     0.119 A 
ENDBRANCH   1  17
TORSDOF 3
ENDMDL
MODEL 5
REMARK VINA RESULT:      -9.5      1.069      3.363
REMARK  3 active torsions:
REMARK  status: ('A' for Active; 'I' for Inactive)
REMARK    1  A    between atoms: N_5  and  C_1 
REMARK    2  A    between atoms: C_7  and  N_2 
REMARK    3  A    between atoms: C_9  and  C_7 
ROOT
ATOM      1  C   UNL d   1      53.446  31.743  53.880  0.00  0.00     0.720 A 
ATOM      2  N   UNL d   1      53.296  32.488  53.552  0.00  0.00    -0.139 N 
ATOM      3  N   UNL d   1      53.891  31.854  54.566  0.00  0.00    -0.060 NA
ATOM      4  C   UNL d   1      53.652  33.056  54.038  0.00  0.00     0.100 A 
ATOM      5  C   UNL d   1      54.019  32.665  54.664  0.00  0.00     0.116 A 
ATOM      6  C   UNL d   1      53.682  33.880  53.983  0.00  0.00     0.020 A 
ATOM      7  C   UNL d   1      54.420  33.094  55.240  0.00  0.00     0.021 A 
ATOM      8  C   UNL d   1      54.083  34.309  54.558  0.00  0.00     0.002 A 
ATOM      9  C   UNL d   1      54.450  33.918  55.184  0.00  0.00     0.002 A 
ENDROOT
BRANCH   2  10
ATOM     10  C   UNL d   1      52.867  32.635  52.859  0.00  0.00     0.098 C 
BRANCH  10  11
ATOM     11  C   UNL d   1      52.180  33.095  52.896  0.00  0.00     0.018 A 
ATOM     12  C   UNL d   1      51.564  32.873  53.387  0.00  0.00     0.002 A 
ATOM     13  C   UNL d   1      50.880  33.332  53.422  0.00  0.00     0.000 A 
ATOM     14  C   UNL d   1      50.819  34.016  52.961  0.00  0.00     0.000 A 
ATOM     15  C   UNL d   1      51.448  34.233  52.467  0.00  0.00     0.000 A 
ATOM     16  C   UNL d   1      52.128  33.773  52.434  0.00  0.00     0.002 A 
ENDBRANCH  10  11
ENDBRANCH   2  10
BRANCH   1  17
ATOM     17  N   UNL d   1      53.190  31.023  53.570  0.00  0.00    -0.136 N 
ATOM     18  C   UNL d   1      53.446  30.774  52.825  0.00  0.00     0.119 A 
ATOM     19  C   UNL d   1      53.188  30.057  52.522  0.00  0.00     0.119 A 
ATOM     20  N   UNL d   1      52.673  29.583  52.958  0.00  0.00    -0.239 NA
ATOM     21  C   UNL d   1      52.418  29.832  53.703  0.00  0.00     0.119 A 
ATOM     22  C   UNL d   1      52.675  30.556  54.016  0.00  0.00     0.119 A 
ENDBRANCH   1  17
TORSDOF 3
ENDMDL
MODEL 6
REMARK VINA RESULT:      -8.5      1.139      3.316
REMARK  3 active torsions:
REMARK  status: ('A' for Active; 'I' for Inactive)
REMARK    1  A    between atoms: N_5  and  C_1 
REMARK    2  A    between atoms: C_7  and  N_2 
REMARK    3  A    between atoms: C_9  and  C_7 
ROOT
ATOM      1  C   UNL d   1      53.292  33.522  54.134  0.00  0.00     0.720 A 
ATOM      2  N   UNL d   1      53.106  32.956  53.558  0.00  0.00    -0.139 N 
ATOM      3  N   UNL d   1      52.625  33.995  54.247  0.00  0.00    -0.060 NA
ATOM      4  C   UNL d   1      52.323  33.084  53.319  0.00  0.00     0.100 A 
ATOM      5  C   UNL d   1      52.027  33.725  53.745  0.00  0.00     0.116 A 
ATOM      6  C   UNL d   1      51.850  32.692  52.766  0.00  0.00     0.020 A 
ATOM      7  C   UNL d   1      51.254  33.979  53.621  0.00  0.00     0.021 A 
ATOM      8  C   UNL d   1      51.079  32.946  52.643  0.00  0.00     0.002 A 
ATOM      9  C   UNL d   1      50.782  33.587  53.069  0.00  0.00     0.002 A 
ENDROOT
BRANCH   2  10
ATOM     10  C   UNL d   1      53.616  32.369  53.274  0.00  0.00     0.098 C 
BRANCH  10  11
ATOM     11  C   UNL d   1      53.422  31.572  53.389  0.00  0.00     0.018 A 
ATOM     12  C   UNL d   1      53.402  31.260  54.144  0.00  0.00     0.002 A 
ATOM     13  C   UNL d   1      53.209  30.466  54.256  0.00  0.00     0.000 A 
ATOM     14  C   UNL d   1      53.037  29.988  53.604  0.00  0.00     0.000 A 
ATOM     15  C   UNL d   1      53.060  30.313  52.842  0.00  0.00     0.000 A 
ATOM     16  C   UNL d   1      53.253  31.105  52.734  0.00  0.00     0.002 A 
ENDBRANCH  10  11
ENDBRANCH   2  10
BRANCH   1  17
ATOM     17  N   UNL d   1      54.017  33.592  54.518  0.00  0.00    -0.136 N 
ATOM     18  C   UNL d   1      54.694  33.814  54.100  0.00  0.00     0.119 A 
ATOM     19  C   UNL d   1      55.412  33.882  54.490  0.00  0.00     0.119 A 
ATOM     20  N   UNL d   1      55.462  33.729  55.299  0.00  0.00    -0.239 NA
ATOM     21  C   UNL d   1      54.786  33.508  55.716  0.00  0.00     0.119 A 
ATOM     22  C   UNL d   1      54.056  33.437  55.330  0.00  0.00     0.119 A 
ENDBRANCH   1  17
TORSDOF 3
ENDMDL
