MODEL 1
REMARK VINA RESULT:     -11.4      0.000      0.000
REMARK  2 active torsions:
REMARK  status: ('A' for Active; 'I' for Inactive)
REMARK    1  A    between atoms: S_12  and  C_3 
REMARK    2  A    between atoms: C_14  and  S_12 
ROOT
ATOM      1  N   UNL d   1      55.483  34.246  55.504  0.00  0.00    -0.195 NA
ATOM      2  C   UNL d   1      55.017  33.631  55.217  0.00  0.00     0.086 C 
ATOM      3  C   UNL d   1      54.556  33.006  54.936  0.00  0.00     0.170 C 
ENDROOT
BRANCH   3   4
ATOM      4  S   UNL d   1      53.960  33.161  54.387  0.00  0.00    -0.060 SA
BRANCH   4   5
ATOM      5  C   UNL d   1      53.594  32.535  53.989  0.00  0.00     0.177 A 
ATOM      6  N   UNL d   1      52.968  32.686  53.473  0.00  0.00    -0.270 N 
ATOM      7  C   UNL d   1      52.596  32.071  53.071  0.00  0.00     0.151 A 
ATOM      8  C   UNL d   1      52.592  33.389  53.243  0.00  0.00     0.085 A 
ATOM      9  N   UNL d   1      52.000  32.382  52.601  0.00  0.00    -0.227 NA
ATOM     10  C   UNL d   1      52.861  31.297  53.196  0.00  0.00     0.052 A 
ATOM     11  C   UNL d   1      51.995  33.199  52.706  0.00  0.00     0.099 A 
ATOM     12  C   UNL d   1      51.528  33.795  52.385  0.00  0.00     0.021 A 
ATOM     13  C   UNL d   1      51.659  34.579  52.601  0.00  0.00     0.002 A 
ATOM     14  C   UNL d   1      52.256  34.769  53.138  0.00  0.00     0.002 A 
ATOM     15  C   UNL d   1      52.721  34.172  53.458  0.00  0.00     0.019 A 
ATOM     16  C   UNL d   1      52.493  30.676  52.798  0.00  0.00     0.004 A 
ATOM     17  C   UNL d   1      53.486  31.145  53.712  0.00  0.00     0.086 A 
ATOM     18  C   UNL d   1      52.752  29.898  52.916  0.00  0.00     0.000 A 
ATOM     19  C   UNL d   1      53.377  29.746  53.433  0.00  0.00     0.002 A 
ATOM     20  C   UNL d   1      53.744  30.373  53.831  0.00  0.00     0.019 A 
ATOM     21  N   UNL d   1      53.852  31.767  54.109  0.00  0.00    -0.222 NA
ENDBRANCH   4   5
ENDBRANCH   3   4
TORSDOF 2
ENDMDL
MODEL 2
REMARK VINA RESULT:     -10.6      1.001      2.678
REMARK  2 active torsions:
REMARK  status: ('A' for Active; 'I' for Inactive)
REMARK    1  A    between atoms: S_12  and  C_3 
REMARK    2  A    between atoms: C_14  and  S_12 
ROOT
ATOM      1  N   UNL d   1      50.357  34.645  52.904  0.00  0.00    -0.195 NA
ATOM      2  C   UNL d   1      50.896  34.024  52.860  0.00  0.00     0.086 C 
ATOM      3  C   UNL d   1      51.429  33.396  52.807  0.00  0.00     0.170 C 
ENDROOT
BRANCH   3   4
ATOM      4  S   UNL d   1      52.104  33.401  53.281  0.00  0.00    -0.060 SA
BRANCH   4   5
ATOM      5  C   UNL d   1      52.535  32.703  53.392  0.00  0.00     0.177 A 
ATOM      6  N   UNL d   1      53.211  32.709  53.865  0.00  0.00    -0.270 N 
ATOM      7  C   UNL d   1      53.648  32.020  53.983  0.00  0.00     0.151 A 
ATOM      8  C   UNL d   1      53.589  33.312  54.291  0.00  0.00     0.085 A 
ATOM      9  N   UNL d   1      54.284  32.189  54.472  0.00  0.00    -0.227 NA
ATOM     10  C   UNL d   1      53.395  31.321  53.618  0.00  0.00     0.052 A 
ATOM     11  C   UNL d   1      54.250  32.989  54.665  0.00  0.00     0.099 A 
ATOM     12  C   UNL d   1      54.732  33.466  55.129  0.00  0.00     0.021 A 
ATOM     13  C   UNL d   1      54.551  34.265  55.220  0.00  0.00     0.002 A 
ATOM     14  C   UNL d   1      53.891  34.588  54.847  0.00  0.00     0.002 A 
ATOM     15  C   UNL d   1      53.411  34.109  54.383  0.00  0.00     0.019 A 
ATOM     16  C   UNL d   1      53.826  30.628  53.730  0.00  0.00     0.004 A 
ATOM     17  C   UNL d   1      52.719  31.316  53.145  0.00  0.00     0.086 A 
ATOM     18  C   UNL d   1      53.580  29.925  53.369  0.00  0.00     0.000 A 
ATOM     19  C   UNL d   1      52.904  29.919  52.896  0.00  0.00     0.002 A 
ATOM     20  C   UNL d   1      52.474  30.617  52.785  0.00  0.00     0.019 A 
ATOM     21  N   UNL d   1      52.289  32.009  53.033  0.00  0.00    -0.222 NA
ENDBRANCH   4   5
ENDBRANCH   3   4
TORSDOF 2
ENDMDL
MODEL 3
REMARK VINA RESULT:     -10.4      0.614      2.933
REMARK  2 active torsions:
REMARK  status: ('A' for Active; 'I' for Inactive)
REMARK    1  A    between atoms: S_12  and  C_3 
REMARK    2  A    between atoms: C_14  and  S_12 
ROOT
ATOM      1  N   UNL d   1      55.580  33.844  55.516  0.00  0.00    -0.195 NA
ATOM      2  C   UNL d   1      54.833  33.822  55.171  0.00  0.00     0.086 C 
ATOM      3  C   UNL d   1      54.081  33.812  54.831  0.00  0.00     0.170 C 
ENDROOT
BRANCH   3   4
ATOM      4  S   UNL d   1      53.867  33.180  54.346  0.00  0.00    -0.060 SA
BRANCH   4   5
ATOM      5  C   UNL d   1      53.180  33.226  53.887  0.00  0.00     0.177 A 
ATOM      6  N   UNL d   1      52.898  32.553  53.502  0.00  0.00    -0.270 N 
ATOM      7  C   UNL d   1      52.215  32.587  53.042  0.00  0.00     0.151 A 
ATOM      8  C   UNL d   1      53.174  31.772  53.469  0.00  0.00     0.085 A 
ATOM      9  N   UNL d   1      52.067  31.843  52.729  0.00  0.00    -0.227 NA
ATOM     10  C   UNL d   1      51.816  33.309  52.974  0.00  0.00     0.052 A 
ATOM     11  C   UNL d   1      52.661  31.336  52.992  0.00  0.00     0.099 A 
ATOM     12  C   UNL d   1      52.802  30.537  52.862  0.00  0.00     0.021 A 
ATOM     13  C   UNL d   1      53.456  30.175  53.208  0.00  0.00     0.002 A 
ATOM     14  C   UNL d   1      53.969  30.610  53.685  0.00  0.00     0.002 A 
ATOM     15  C   UNL d   1      53.826  31.409  53.813  0.00  0.00     0.019 A 
ATOM     16  C   UNL d   1      51.132  33.352  52.517  0.00  0.00     0.004 A 
ATOM     17  C   UNL d   1      52.099  33.982  53.360  0.00  0.00     0.086 A 
ATOM     18  C   UNL d   1      50.727  34.070  52.443  0.00  0.00     0.000 A 
ATOM     19  C   UNL d   1      51.010  34.743  52.828  0.00  0.00     0.002 A 
ATOM     20  C   UNL d   1      51.697  34.697  53.287  0.00  0.00     0.019 A 
ATOM     21  N   UNL d   1      52.782  33.938  53.817  0.00  0.00    -0.222 NA
ENDBRANCH   4   5
ENDBRANCH   3   4
TORSDOF 2
ENDMDL
MODEL 4
REMARK VINA RESULT:     -10.3      1.058      3.475
REMARK  2 active torsions:
REMARK  status: ('A' for Active; 'I' for Inactive)
REMARK    1  A    between atoms: S_12  and  C_3 
REMARK    2  A    between atoms: C_14  and  S_12 
ROOT
ATOM      1  N   UNL d   1      53.084  29.574  53.409  0.00  0.00    -0.195 NA
ATOM      2  C   UNL d   1      52.885  30.342  53.189  0.00  0.00     0.086 C 
ATOM      3  C   UNL d   1      52.677  31.108  52.959  0.00  0.00     0.170 C 
ENDROOT
BRANCH   3   4
ATOM      4  S   UNL d   1      52.982  31.750  53.378  0.00  0.00    -0.060 SA
BRANCH   4   5
ATOM      5  C   UNL d   1      52.590  32.478  53.359  0.00  0.00     0.177 A 
ATOM      6  N   UNL d   1      52.902  33.124  53.767  0.00  0.00    -0.270 N 
ATOM      7  C   UNL d   1      52.520  33.853  53.756  0.00  0.00     0.151 A 
ATOM      8  C   UNL d   1      53.583  33.213  54.233  0.00  0.00     0.085 A 
ATOM      9  N   UNL d   1      52.952  34.387  54.205  0.00  0.00    -0.227 NA
ATOM     10  C   UNL d   1      51.816  33.927  53.328  0.00  0.00     0.052 A 
ATOM     11  C   UNL d   1      53.611  33.993  54.502  0.00  0.00     0.099 A 
ATOM     12  C   UNL d   1      54.233  34.239  54.980  0.00  0.00     0.021 A 
ATOM     13  C   UNL d   1      54.824  33.704  55.188  0.00  0.00     0.002 A 
ATOM     14  C   UNL d   1      54.796  32.925  54.920  0.00  0.00     0.002 A 
ATOM     15  C   UNL d   1      54.174  32.682  54.442  0.00  0.00     0.019 A 
ATOM     16  C   UNL d   1      51.427  34.653  53.311  0.00  0.00     0.004 A 
ATOM     17  C   UNL d   1      51.503  33.282  52.920  0.00  0.00     0.086 A 
ATOM     18  C   UNL d   1      50.722  34.736  52.885  0.00  0.00     0.000 A 
ATOM     19  C   UNL d   1      50.409  34.091  52.477  0.00  0.00     0.002 A 
ATOM     20  C   UNL d   1      50.802  33.362  52.495  0.00  0.00     0.019 A 
ATOM     21  N   UNL d   1      51.892  32.556  52.937  0.00  0.00    -0.222 NA
ENDBRANCH   4   5
ENDBRANCH   3   4
TORSDOF 2
ENDMDL
MODEL 5
REMARK VINA RESULT:     -10.3      1.016      3.597
REMARK  2 active torsions:
REMARK  status: ('A' for Active; 'I' for Inactive)
REMARK    1  A    between atoms: S_12  and  C_3 
REMARK    2  A    between atoms: C_14  and  S_12 
ROOT
ATOM      1  N   UNL d   1      50.243  34.099  52.267  0.00  0.00    -0.195 NA
ATOM      2  C   UNL d   1      50.982  34.057  52.628  0.00  0.00     0.086 C 
ATOM      3  C   UNL d   1      51.724  34.028  52.989  0.00  0.00     0.170 C 
ENDROOT
BRANCH   3   4
ATOM      4  S   UNL d   1      52.062  33.294  53.154  0.00  0.00    -0.060 SA
BRANCH   4   5
ATOM      5  C   UNL d   1      52.740  33.249  53.626  0.00  0.00     0.177 A 
ATOM      6  N   UNL d   1      53.132  32.528  53.715  0.00  0.00    -0.270 N 
ATOM      7  C   UNL d   1      53.808  32.471  54.182  0.00  0.00     0.151 A 
ATOM      8  C   UNL d   1      52.983  31.771  53.410  0.00  0.00     0.085 A 
ATOM      9  N   UNL d   1      54.076  31.696  54.169  0.00  0.00    -0.227 NA
ATOM     10  C   UNL d   1      54.088  33.152  54.561  0.00  0.00     0.052 A 
ATOM     11  C   UNL d   1      53.567  31.260  53.691  0.00  0.00     0.099 A 
ATOM     12  C   UNL d   1      53.556  30.467  53.475  0.00  0.00     0.021 A 
ATOM     13  C   UNL d   1      52.962  30.187  52.977  0.00  0.00     0.002 A 
ATOM     14  C   UNL d   1      52.379  30.697  52.696  0.00  0.00     0.002 A 
ATOM     15  C   UNL d   1      52.392  31.489  52.914  0.00  0.00     0.019 A 
ATOM     16  C   UNL d   1      54.763  33.104  55.030  0.00  0.00     0.004 A 
ATOM     17  C   UNL d   1      53.696  33.873  54.472  0.00  0.00     0.086 A 
ATOM     18  C   UNL d   1      55.051  33.780  55.413  0.00  0.00     0.000 A 
ATOM     19  C   UNL d   1      54.659  34.501  55.324  0.00  0.00     0.002 A 
ATOM     20  C   UNL d   1      53.981  34.546  54.852  0.00  0.00     0.019 A 
ATOM     21  N   UNL d   1      53.021  33.920  54.003  0.00  0.00    -0.222 NA
ENDBRANCH   4   5
ENDBRANCH   3   4
TORSDOF 2
ENDMDL
MODEL 6
REMARK VINA RESULT:      -9.9      1.097      2.972
REMARK  2 active torsions:
REMARK  status: ('A' for Active; 'I' for Inactive)
REMARK    1  A    between atoms: S_12  and  C_3 
REMARK    2  A    between atoms: C_14  and  S_12 
ROOT
ATOM      1  N   UNL d   1      52.540  29.594  53.251  0.00  0.00    -0.195 NA
ATOM      2  C   UNL d   1      52.905  30.332  53.270  0.00  0.00     0.086 C 
ATOM      3  C   UNL d   1      53.282  31.066  53.289  0.00  0.00     0.170 C 
ENDROOT
BRANCH   3   4
ATOM      4  S   UNL d   1      52.825  31.752  53.331  0.00  0.00    -0.060 SA
BRANCH   4   5
ATOM      5  C   UNL d   1      53.130  32.428  53.697  0.00  0.00     0.177 A 
ATOM      6  N   UNL d   1      52.719  33.142  53.649  0.00  0.00    -0.270 N 
ATOM      7  C   UNL d   1      53.012  33.822  54.009  0.00  0.00     0.151 A 
ATOM      8  C   UNL d   1      52.005  33.351  53.281  0.00  0.00     0.085 A 
ATOM      9  N   UNL d   1      52.494  34.442  53.871  0.00  0.00    -0.227 NA
ATOM     10  C   UNL d   1      53.729  33.776  54.423  0.00  0.00     0.052 A 
ATOM     11  C   UNL d   1      51.868  34.153  53.420  0.00  0.00     0.099 A 
ATOM     12  C   UNL d   1      51.194  34.512  53.117  0.00  0.00     0.021 A 
ATOM     13  C   UNL d   1      50.657  34.068  52.676  0.00  0.00     0.002 A 
ATOM     14  C   UNL d   1      50.794  33.266  52.538  0.00  0.00     0.002 A 
ATOM     15  C   UNL d   1      51.469  32.910  52.842  0.00  0.00     0.019 A 
ATOM     16  C   UNL d   1      54.029  34.451  54.786  0.00  0.00     0.004 A 
ATOM     17  C   UNL d   1      54.139  33.062  54.471  0.00  0.00     0.086 A 
ATOM     18  C   UNL d   1      54.745  34.414  55.202  0.00  0.00     0.000 A 
ATOM     19  C   UNL d   1      55.156  33.700  55.251  0.00  0.00     0.002 A 
ATOM     20  C   UNL d   1      54.851  33.024  54.884  0.00  0.00     0.019 A 
ATOM     21  N   UNL d   1      53.838  32.388  54.107  0.00  0.00    -0.222 NA
ENDBRANCH   4   5
ENDBRANCH   3   4
TORSDOF 2
ENDMDL
