MODEL 1
REMARK VINA RESULT:      -7.9      0.000      0.000
REMARK  4 active torsions:
REMARK  status: ('A' for Active; 'I' for Inactive)
REMARK    1  A    between atoms: N_7  and  C_2 
REMARK    2  A    between atoms: C_5  and  C_10 
REMARK    3  A    between atoms: N_6  and  N_7 
REMARK    4  A    between atoms: C_10  and  N_6 
ROOT
ATOM      1  C   UNL d   1      53.856  32.886  53.929  0.00  0.00     0.125 C 
ENDROOT
BRANCH   1   2
ATOM      2  C   UNL d   1      53.440  33.611  53.956  0.00  0.00     0.060 A 
ATOM      3  C   UNL d   1      53.655  34.191  54.509  0.00  0.00     0.197 A 
ATOM      4  C   UNL d   1      53.238  34.913  54.534  0.00  0.00     0.043 A 
ATOM      5  O   UNL d   1      54.274  34.073  55.038  0.00  0.00    -0.286 OA
ATOM      6  C   UNL d   1      52.621  35.045  54.014  0.00  0.00     0.010 A 
ATOM      7  C   UNL d   1      52.413  34.464  53.468  0.00  0.00     0.035 A 
ATOM      8  C   UNL d   1      52.810  33.747  53.427  0.00  0.00     0.011 A 
ATOM      9 BR   UNL d   1      51.775  34.593  52.927  0.00  0.00    -0.049 Br
ENDBRANCH   1   2
BRANCH   1  10
ATOM     10  N   UNL d   1      53.458  32.153  53.804  0.00  0.00    -0.144 NA
BRANCH  10  11
ATOM     11  N   UNL d   1      53.858  31.509  53.532  0.00  0.00    -0.121 NA
BRANCH  11  12
ATOM     12  C   UNL d   1      53.533  30.752  53.620  0.00  0.00     0.217 A 
ATOM     13  N   UNL d   1      53.572  30.211  54.213  0.00  0.00    -0.181 NA
ATOM     14  C   UNL d   1      53.146  29.575  53.988  0.00  0.00     0.288 A 
ATOM     15  O   UNL d   1      53.038  28.889  54.432  0.00  0.00    -0.265 OA
ATOM     16  C   UNL d   1      52.832  29.685  53.269  0.00  0.00     0.101 A 
ATOM     17  S   UNL d   1      53.065  30.433  53.009  0.00  0.00    -0.041 SA
ENDBRANCH  11  12
ENDBRANCH  10  11
ENDBRANCH   1  10
TORSDOF 4
ENDMDL
MODEL 2
REMARK VINA RESULT:      -7.4      2.155      4.328
REMARK  4 active torsions:
REMARK  status: ('A' for Active; 'I' for Inactive)
REMARK    1  A    between atoms: N_7  and  C_2 
REMARK    2  A    between atoms: C_5  and  C_10 
REMARK    3  A    between atoms: N_6  and  N_7 
REMARK    4  A    between atoms: C_10  and  N_6 
ROOT
ATOM      1  C   UNL d   1      53.811  31.695  53.419  0.00  0.00     0.125 C 
ENDROOT
BRANCH   1   2
ATOM      2  C   UNL d   1      53.438  30.946  53.441  0.00  0.00     0.060 A 
ATOM      3  C   UNL d   1      52.894  30.738  52.849  0.00  0.00     0.197 A 
ATOM      4  C   UNL d   1      52.525  29.990  52.874  0.00  0.00     0.043 A 
ATOM      5  O   UNL d   1      52.708  31.252  52.235  0.00  0.00    -0.286 OA
ATOM      6  C   UNL d   1      52.700  29.469  53.478  0.00  0.00     0.010 A 
ATOM      7  C   UNL d   1      53.241  29.683  54.062  0.00  0.00     0.035 A 
ATOM      8  C   UNL d   1      53.616  30.413  54.057  0.00  0.00     0.011 A 
ATOM      9 BR   UNL d   1      53.427  29.148  54.690  0.00  0.00    -0.049 Br
ENDBRANCH   1   2
BRANCH   1  10
ATOM     10  N   UNL d   1      53.566  32.325  53.925  0.00  0.00    -0.144 NA
BRANCH  10  11
ATOM     11  N   UNL d   1      54.026  32.979  54.018  0.00  0.00    -0.121 NA
BRANCH  11  12
ATOM     12  C   UNL d   1      53.679  33.702  54.226  0.00  0.00     0.217 A 
ATOM     13  N   UNL d   1      53.221  34.220  53.818  0.00  0.00    -0.181 NA
ATOM     14  C   UNL d   1      53.048  34.828  54.306  0.00  0.00     0.288 A 
ATOM     15  O   UNL d   1      52.589  35.484  54.111  0.00  0.00    -0.265 OA
ATOM     16  C   UNL d   1      53.380  34.721  55.018  0.00  0.00     0.101 A 
ATOM     17  S   UNL d   1      53.791  34.005  54.994  0.00  0.00    -0.041 SA
ENDBRANCH  11  12
ENDBRANCH  10  11
ENDBRANCH   1  10
TORSDOF 4
ENDMDL
MODEL 3
REMARK VINA RESULT:      -7.0      2.814      4.194
REMARK  4 active torsions:
REMARK  status: ('A' for Active; 'I' for Inactive)
REMARK    1  A    between atoms: N_7  and  C_2 
REMARK    2  A    between atoms: C_5  and  C_10 
REMARK    3  A    between atoms: N_6  and  N_7 
REMARK    4  A    between atoms: C_10  and  N_6 
ROOT
ATOM      1  C   UNL d   1      52.586  33.083  52.638  0.00  0.00     0.125 C 
ENDROOT
BRANCH   1   2
ATOM      2  C   UNL d   1      53.046  32.682  53.212  0.00  0.00     0.060 A 
ATOM      3  C   UNL d   1      53.123  31.857  53.177  0.00  0.00     0.197 A 
ATOM      4  C   UNL d   1      53.581  31.461  53.750  0.00  0.00     0.043 A 
ATOM      5  O   UNL d   1      52.757  31.415  52.588  0.00  0.00    -0.286 OA
ATOM      6  C   UNL d   1      53.951  31.887  54.341  0.00  0.00     0.010 A 
ATOM      7  C   UNL d   1      53.870  32.707  54.370  0.00  0.00     0.035 A 
ATOM      8  C   UNL d   1      53.424  33.116  53.816  0.00  0.00     0.011 A 
ATOM      9 BR   UNL d   1      54.250  33.154  54.979  0.00  0.00    -0.049 Br
ENDBRANCH   1   2
BRANCH   1  10
ATOM     10  N   UNL d   1      51.912  33.542  52.854  0.00  0.00    -0.144 NA
BRANCH  10  11
ATOM     11  N   UNL d   1      51.573  34.047  52.327  0.00  0.00    -0.121 NA
BRANCH  11  12
ATOM     12  C   UNL d   1      50.800  34.319  52.453  0.00  0.00     0.217 A 
ATOM     13  N   UNL d   1      50.459  34.713  53.064  0.00  0.00    -0.181 NA
ATOM     14  C   UNL d   1      49.692  34.830  52.878  0.00  0.00     0.288 A 
ATOM     15  O   UNL d   1      49.137  35.214  53.351  0.00  0.00    -0.265 OA
ATOM     16  C   UNL d   1      49.525  34.526  52.166  0.00  0.00     0.101 A 
ATOM     17  S   UNL d   1      50.219  34.191  51.871  0.00  0.00    -0.041 SA
ENDBRANCH  11  12
ENDBRANCH  10  11
ENDBRANCH   1  10
TORSDOF 4
ENDMDL
MODEL 4
REMARK VINA RESULT:      -5.8      4.147      5.493
REMARK  4 active torsions:
REMARK  status: ('A' for Active; 'I' for Inactive)
REMARK    1  A    between atoms: N_7  and  C_2 
REMARK    2  A    between atoms: C_5  and  C_10 
REMARK    3  A    between atoms: N_6  and  N_7 
REMARK    4  A    between atoms: C_10  and  N_6 
ROOT
ATOM      1  C   UNL d   1      50.325  34.208  52.703  0.00  0.00     0.125 C 
ENDROOT
BRANCH   1   2
ATOM      2  C   UNL d   1      51.056  34.025  53.067  0.00  0.00     0.060 A 
ATOM      3  C   UNL d   1      51.232  33.239  53.268  0.00  0.00     0.197 A 
ATOM      4  C   UNL d   1      51.961  33.060  53.631  0.00  0.00     0.043 A 
ATOM      5  O   UNL d   1      50.703  32.627  53.119  0.00  0.00    -0.286 OA
ATOM      6  C   UNL d   1      52.497  33.657  53.786  0.00  0.00     0.010 A 
ATOM      7  C   UNL d   1      52.315  34.435  53.583  0.00  0.00     0.035 A 
ATOM      8  C   UNL d   1      51.604  34.633  53.225  0.00  0.00     0.011 A 
ATOM      9 BR   UNL d   1      52.865  35.058  53.740  0.00  0.00    -0.049 Br
ENDBRANCH   1   2
BRANCH   1  10
ATOM     10  N   UNL d   1      49.863  34.869  52.950  0.00  0.00    -0.144 NA
BRANCH  10  11
ATOM     11  N   UNL d   1      49.126  34.991  52.648  0.00  0.00    -0.121 NA
BRANCH  11  12
ATOM     12  C   UNL d   1      48.619  35.543  53.002  0.00  0.00     0.217 A 
ATOM     13  N   UNL d   1      48.503  35.756  53.768  0.00  0.00    -0.181 NA
ATOM     14  C   UNL d   1      47.939  36.321  53.778  0.00  0.00     0.288 A 
ATOM     15  O   UNL d   1      47.649  36.697  54.452  0.00  0.00    -0.265 OA
ATOM     16  C   UNL d   1      47.686  36.481  53.044  0.00  0.00     0.101 A 
ATOM     17  S   UNL d   1      48.107  35.995  52.527  0.00  0.00    -0.041 SA
ENDBRANCH  11  12
ENDBRANCH  10  11
ENDBRANCH   1  10
TORSDOF 4
ENDMDL
MODEL 5
REMARK VINA RESULT:      -5.8      4.081      5.225
REMARK  4 active torsions:
REMARK  status: ('A' for Active; 'I' for Inactive)
REMARK    1  A    between atoms: N_7  and  C_2 
REMARK    2  A    between atoms: C_5  and  C_10 
REMARK    3  A    between atoms: N_6  and  N_7 
REMARK    4  A    between atoms: C_10  and  N_6 
ROOT
ATOM      1  C   UNL d   1      49.284  34.548  52.185  0.00  0.00     0.125 C 
ENDROOT
BRANCH   1   2
ATOM      2  C   UNL d   1      48.651  35.092  52.255  0.00  0.00     0.060 A 
ATOM      3  C   UNL d   1      48.101  35.168  51.638  0.00  0.00     0.197 A 
ATOM      4  C   UNL d   1      47.472  35.711  51.711  0.00  0.00     0.043 A 
ATOM      5  O   UNL d   1      48.159  34.719  50.952  0.00  0.00    -0.286 OA
ATOM      6  C   UNL d   1      47.401  36.164  52.388  0.00  0.00     0.010 A 
ATOM      7  C   UNL d   1      47.952  36.082  52.996  0.00  0.00     0.035 A 
ATOM      8  C   UNL d   1      48.578  35.554  52.945  0.00  0.00     0.011 A 
ATOM      9 BR   UNL d   1      47.885  36.548  53.699  0.00  0.00    -0.049 Br
ENDBRANCH   1   2
BRANCH   1  10
ATOM     10  N   UNL d   1      49.988  34.629  52.643  0.00  0.00    -0.144 NA
BRANCH  10  11
ATOM     11  N   UNL d   1      50.613  34.134  52.526  0.00  0.00    -0.121 NA
BRANCH  11  12
ATOM     12  C   UNL d   1      51.312  34.242  52.957  0.00  0.00     0.217 A 
ATOM     13  N   UNL d   1      51.731  34.899  53.152  0.00  0.00    -0.181 NA
ATOM     14  C   UNL d   1      52.365  34.664  53.576  0.00  0.00     0.288 A 
ATOM     15  O   UNL d   1      52.943  35.161  53.889  0.00  0.00    -0.265 OA
ATOM     16  C   UNL d   1      52.371  33.877  53.663  0.00  0.00     0.101 A 
ATOM     17  S   UNL d   1      51.705  33.581  53.274  0.00  0.00    -0.041 SA
ENDBRANCH  11  12
ENDBRANCH  10  11
ENDBRANCH   1  10
TORSDOF 4
ENDMDL
MODEL 6
REMARK VINA RESULT:      -5.5      2.462      3.308
REMARK  4 active torsions:
REMARK  status: ('A' for Active; 'I' for Inactive)
REMARK    1  A    between atoms: N_7  and  C_2 
REMARK    2  A    between atoms: C_5  and  C_10 
REMARK    3  A    between atoms: N_6  and  N_7 
REMARK    4  A    between atoms: C_10  and  N_6 
ROOT
ATOM      1  C   UNL d   1      51.882  33.130  53.472  0.00  0.00     0.125 C 
ENDROOT
BRANCH   1   2
ATOM      2  C   UNL d   1      51.362  33.613  53.029  0.00  0.00     0.060 A 
ATOM      3  C   UNL d   1      51.456  33.677  52.207  0.00  0.00     0.197 A 
ATOM      4  C   UNL d   1      50.936  34.159  51.768  0.00  0.00     0.043 A 
ATOM      5  O   UNL d   1      52.054  33.276  51.809  0.00  0.00    -0.286 OA
ATOM      6  C   UNL d   1      50.337  34.564  52.149  0.00  0.00     0.010 A 
ATOM      7  C   UNL d   1      50.249  34.495  52.966  0.00  0.00     0.035 A 
ATOM      8  C   UNL d   1      50.750  34.027  53.416  0.00  0.00     0.011 A 
ATOM      9 BR   UNL d   1      49.632  34.911  53.367  0.00  0.00    -0.049 Br
ENDBRANCH   1   2
BRANCH   1  10
ATOM     10  N   UNL d   1      52.552  33.452  53.870  0.00  0.00    -0.144 NA
BRANCH  10  11
ATOM     11  N   UNL d   1      52.978  33.005  54.387  0.00  0.00    -0.121 NA
BRANCH  11  12
ATOM     12  C   UNL d   1      53.739  33.244  54.612  0.00  0.00     0.217 A 
ATOM     13  N   UNL d   1      54.003  33.851  55.066  0.00  0.00    -0.181 NA
ATOM     14  C   UNL d   1      54.800  33.806  55.091  0.00  0.00     0.288 A 
ATOM     15  O   UNL d   1      55.297  34.323  55.496  0.00  0.00    -0.265 OA
ATOM     16  C   UNL d   1      55.060  33.189  54.667  0.00  0.00     0.101 A 
ATOM     17  S   UNL d   1      54.399  32.811  54.349  0.00  0.00    -0.041 SA
ENDBRANCH  11  12
ENDBRANCH  10  11
ENDBRANCH   1  10
TORSDOF 4
ENDMDL
MODEL 7
REMARK VINA RESULT:      -5.2     10.570     11.013
REMARK  4 active torsions:
REMARK  status: ('A' for Active; 'I' for Inactive)
REMARK    1  A    between atoms: N_7  and  C_2 
REMARK    2  A    between atoms: C_5  and  C_10 
REMARK    3  A    between atoms: N_6  and  N_7 
REMARK    4  A    between atoms: C_10  and  N_6 
ROOT
ATOM      1  C   UNL d   1      44.746  30.319  60.147  0.00  0.00     0.125 C 
ENDROOT
BRANCH   1   2
ATOM      2  C   UNL d   1      44.670  30.223  60.975  0.00  0.00     0.060 A 
ATOM      3  C   UNL d   1      44.602  30.890  61.465  0.00  0.00     0.197 A 
ATOM      4  C   UNL d   1      44.527  30.791  62.289  0.00  0.00     0.043 A 
ATOM      5  O   UNL d   1      44.608  31.653  61.156  0.00  0.00    -0.286 OA
ATOM      6  C   UNL d   1      44.519  30.040  62.610  0.00  0.00     0.010 A 
ATOM      7  C   UNL d   1      44.586  29.382  62.118  0.00  0.00     0.035 A 
ATOM      8  C   UNL d   1      44.662  29.457  61.304  0.00  0.00     0.011 A 
ATOM      9 BR   UNL d   1      44.579  28.601  62.443  0.00  0.00    -0.049 Br
ENDBRANCH   1   2
BRANCH   1  10
ATOM     10  N   UNL d   1      44.959  29.675  59.646  0.00  0.00    -0.144 NA
BRANCH  10  11
ATOM     11  N   UNL d   1      45.101  29.794  58.862  0.00  0.00    -0.121 NA
BRANCH  11  12
ATOM     12  C   UNL d   1      45.171  29.145  58.351  0.00  0.00     0.217 A 
ATOM     13  N   UNL d   1      45.505  28.420  58.441  0.00  0.00    -0.181 NA
ATOM     14  C   UNL d   1      45.405  28.022  57.756  0.00  0.00     0.288 A 
ATOM     15  O   UNL d   1      45.664  27.254  57.605  0.00  0.00    -0.265 OA
ATOM     16  C   UNL d   1      45.016  28.465  57.226  0.00  0.00     0.101 A 
ATOM     17  S   UNL d   1      44.854  29.192  57.583  0.00  0.00    -0.041 SA
ENDBRANCH  11  12
ENDBRANCH  10  11
ENDBRANCH   1  10
TORSDOF 4
ENDMDL
MODEL 8
REMARK VINA RESULT:      -5.2      9.498      9.795
REMARK  4 active torsions:
REMARK  status: ('A' for Active; 'I' for Inactive)
REMARK    1  A    between atoms: N_7  and  C_2 
REMARK    2  A    between atoms: C_5  and  C_10 
REMARK    3  A    between atoms: N_6  and  N_7 
REMARK    4  A    between atoms: C_10  and  N_6 
ROOT
ATOM      1  C   UNL d   1      44.902  29.247  56.416  0.00  0.00     0.125 C 
ENDROOT
BRANCH   1   2
ATOM      2  C   UNL d   1      44.711  30.039  56.607  0.00  0.00     0.060 A 
ATOM      3  C   UNL d   1      44.504  30.571  56.005  0.00  0.00     0.197 A 
ATOM      4  C   UNL d   1      44.314  31.360  56.199  0.00  0.00     0.043 A 
ATOM      5  O   UNL d   1      44.479  30.340  55.216  0.00  0.00    -0.286 OA
ATOM      6  C   UNL d   1      44.334  31.604  56.978  0.00  0.00     0.010 A 
ATOM      7  C   UNL d   1      44.541  31.070  57.571  0.00  0.00     0.035 A 
ATOM      8  C   UNL d   1      44.731  30.289  57.402  0.00  0.00     0.011 A 
ATOM      9 BR   UNL d   1      44.564  31.315  58.380  0.00  0.00    -0.049 Br
ENDBRANCH   1   2
BRANCH   1  10
ATOM     10  N   UNL d   1      44.862  28.632  56.992  0.00  0.00    -0.144 NA
BRANCH  10  11
ATOM     11  N   UNL d   1      45.067  27.877  56.802  0.00  0.00    -0.121 NA
BRANCH  11  12
ATOM     12  C   UNL d   1      45.077  27.291  57.388  0.00  0.00     0.217 A 
ATOM     13  N   UNL d   1      45.383  27.273  58.130  0.00  0.00    -0.181 NA
ATOM     14  C   UNL d   1      45.223  26.555  58.441  0.00  0.00     0.288 A 
ATOM     15  O   UNL d   1      45.438  26.300  59.194  0.00  0.00    -0.265 OA
ATOM     16  C   UNL d   1      44.823  26.107  57.924  0.00  0.00     0.101 A 
ATOM     17  S   UNL d   1      44.716  26.556  57.239  0.00  0.00    -0.041 SA
ENDBRANCH  11  12
ENDBRANCH  10  11
ENDBRANCH   1  10
TORSDOF 4
ENDMDL
MODEL 9
REMARK VINA RESULT:      -5.2      9.904     10.313
REMARK  4 active torsions:
REMARK  status: ('A' for Active; 'I' for Inactive)
REMARK    1  A    between atoms: N_7  and  C_2 
REMARK    2  A    between atoms: C_5  and  C_10 
REMARK    3  A    between atoms: N_6  and  N_7 
REMARK    4  A    between atoms: C_10  and  N_6 
ROOT
ATOM      1  C   UNL d   1      45.398  29.618  58.489  0.00  0.00     0.125 C 
ENDROOT
BRANCH   1   2
ATOM      2  C   UNL d   1      45.035  30.200  58.968  0.00  0.00     0.060 A 
ATOM      3  C   UNL d   1      44.675  30.860  58.616  0.00  0.00     0.197 A 
ATOM      4  C   UNL d   1      44.314  31.438  59.097  0.00  0.00     0.043 A 
ATOM      5  O   UNL d   1      44.665  30.961  57.800  0.00  0.00    -0.286 OA
ATOM      6  C   UNL d   1      44.316  31.352  59.910  0.00  0.00     0.010 A 
ATOM      7  C   UNL d   1      44.675  30.693  60.252  0.00  0.00     0.035 A 
ATOM      8  C   UNL d   1      45.036  30.113  59.797  0.00  0.00     0.011 A 
ATOM      9 BR   UNL d   1      44.682  30.597  61.092  0.00  0.00    -0.049 Br
ENDBRANCH   1   2
BRANCH   1  10
ATOM     10  N   UNL d   1      45.205  28.800  58.564  0.00  0.00    -0.144 NA
BRANCH  10  11
ATOM     11  N   UNL d   1      45.594  28.245  58.130  0.00  0.00    -0.121 NA
BRANCH  11  12
ATOM     12  C   UNL d   1      45.361  27.450  58.171  0.00  0.00     0.217 A 
ATOM     13  N   UNL d   1      45.341  26.923  58.776  0.00  0.00    -0.181 NA
ATOM     14  C   UNL d   1      45.063  26.233  58.486  0.00  0.00     0.288 A 
ATOM     15  O   UNL d   1      44.952  25.541  58.920  0.00  0.00    -0.265 OA
ATOM     16  C   UNL d   1      44.904  26.296  57.713  0.00  0.00     0.101 A 
ATOM     17  S   UNL d   1      45.087  27.068  57.484  0.00  0.00    -0.041 SA
ENDBRANCH  11  12
ENDBRANCH  10  11
ENDBRANCH   1  10
TORSDOF 4
ENDMDL
