MODEL 1
REMARK VINA RESULT:      -8.7      0.000      0.000
REMARK  1 active torsions:
REMARK  status: ('A' for Active; 'I' for Inactive)
REMARK    1  A    between atoms: C_11  and  C_9 
ROOT
ATOM      1  N   UNL d   1     -47.566  13.161  23.121  0.00  0.00    -0.253 N 
ATOM      2  C   UNL d   1     -48.316  12.892  23.316  0.00  0.00     0.182 A 
ATOM      3  C   UNL d   1     -47.478  13.955  22.848  0.00  0.00     0.267 A 
ATOM      4  N   UNL d   1     -48.256  12.126  23.559  0.00  0.00    -0.221 NA
ATOM      5  S   UNL d   1     -48.976  13.371  23.254  0.00  0.00    -0.050 SA
ATOM      6  C   UNL d   1     -48.122  14.448  22.779  0.00  0.00     0.068 A 
ATOM      7  C   UNL d   1     -47.049  12.551  23.247  0.00  0.00     0.086 A 
ATOM      8  C   UNL d   1     -47.455  11.893  23.520  0.00  0.00     0.100 A 
ATOM      9  C   UNL d   1     -48.896  14.146  22.988  0.00  0.00     0.037 A 
ATOM     10  O   UNL d   1     -46.707  14.258  22.639  0.00  0.00    -0.267 OA
ATOM     11  C   UNL d   1     -46.209  12.504  23.142  0.00  0.00     0.019 A 
ATOM     12  C   UNL d   1     -47.070  11.200  23.692  0.00  0.00     0.021 A 
ATOM     13  C   UNL d   1     -45.832  11.799  23.319  0.00  0.00     0.002 A 
ATOM     14  C   UNL d   1     -46.239  11.159  23.587  0.00  0.00     0.002 A 
ENDROOT
BRANCH   9  15
ATOM     15  C   UNL d   1     -49.623  14.565  22.955  0.00  0.00     0.006 A 
ATOM     16  C   UNL d   1     -50.150  14.437  22.334  0.00  0.00     0.001 A 
ATOM     17  C   UNL d   1     -50.878  14.854  22.298  0.00  0.00     0.000 A 
ATOM     18  C   UNL d   1     -51.063  15.391  22.887  0.00  0.00     0.000 A 
ATOM     19  C   UNL d   1     -50.532  15.528  23.524  0.00  0.00     0.000 A 
ATOM     20  C   UNL d   1     -49.816  15.118  23.559  0.00  0.00     0.001 A 
ENDBRANCH   9  15
TORSDOF 1
ENDMDL
MODEL 2
REMARK VINA RESULT:      -8.2      1.286      4.164
REMARK  1 active torsions:
REMARK  status: ('A' for Active; 'I' for Inactive)
REMARK    1  A    between atoms: C_11  and  C_9 
ROOT
ATOM      1  N   UNL d   1     -49.042  13.971  22.410  0.00  0.00    -0.253 N 
ATOM      2  C   UNL d   1     -48.455  14.279  22.893  0.00  0.00     0.182 A 
ATOM      3  C   UNL d   1     -48.855  13.314  21.914  0.00  0.00     0.267 A 
ATOM      4  N   UNL d   1     -48.766  14.896  23.308  0.00  0.00    -0.221 NA
ATOM      5  S   UNL d   1     -47.698  13.969  22.905  0.00  0.00    -0.050 SA
ATOM      6  C   UNL d   1     -48.107  12.990  21.911  0.00  0.00     0.068 A 
ATOM      7  C   UNL d   1     -49.713  14.405  22.535  0.00  0.00     0.086 A 
ATOM      8  C   UNL d   1     -49.567  14.989  23.092  0.00  0.00     0.100 A 
ATOM      9  C   UNL d   1     -47.511  13.328  22.424  0.00  0.00     0.037 A 
ATOM     10  O   UNL d   1     -49.449  12.975  21.402  0.00  0.00    -0.267 OA
ATOM     11  C   UNL d   1     -50.487  14.343  22.195  0.00  0.00     0.019 A 
ATOM     12  C   UNL d   1     -50.148  15.507  23.323  0.00  0.00     0.021 A 
ATOM     13  C   UNL d   1     -51.064  14.871  22.436  0.00  0.00     0.002 A 
ATOM     14  C   UNL d   1     -50.911  15.441  22.983  0.00  0.00     0.002 A 
ENDROOT
BRANCH   9  15
ATOM     15  C   UNL d   1     -46.714  13.075  22.501  0.00  0.00     0.006 A 
ATOM     16  C   UNL d   1     -46.119  13.431  22.055  0.00  0.00     0.001 A 
ATOM     17  C   UNL d   1     -45.320  13.180  22.129  0.00  0.00     0.000 A 
ATOM     18  C   UNL d   1     -45.136  12.576  22.650  0.00  0.00     0.000 A 
ATOM     19  C   UNL d   1     -45.737  12.207  23.109  0.00  0.00     0.000 A 
ATOM     20  C   UNL d   1     -46.521  12.455  23.035  0.00  0.00     0.001 A 
ENDBRANCH   9  15
TORSDOF 1
ENDMDL
MODEL 3
REMARK VINA RESULT:      -7.6      1.692      3.813
REMARK  1 active torsions:
REMARK  status: ('A' for Active; 'I' for Inactive)
REMARK    1  A    between atoms: C_11  and  C_9 
ROOT
ATOM      1  N   UNL d   1     -48.637  12.360  23.202  0.00  0.00    -0.253 N 
ATOM      2  C   UNL d   1     -48.468  13.092  22.872  0.00  0.00     0.182 A 
ATOM      3  C   UNL d   1     -48.002  11.823  23.344  0.00  0.00     0.267 A 
ATOM      4  N   UNL d   1     -49.158  13.500  22.792  0.00  0.00    -0.221 NA
ATOM      5  S   UNL d   1     -47.704  13.313  22.678  0.00  0.00    -0.050 SA
ATOM      6  C   UNL d   1     -47.234  12.024  23.158  0.00  0.00     0.068 A 
ATOM      7  C   UNL d   1     -49.437  12.327  23.322  0.00  0.00     0.086 A 
ATOM      8  C   UNL d   1     -49.786  13.027  23.074  0.00  0.00     0.100 A 
ATOM      9  C   UNL d   1     -47.082  12.793  22.814  0.00  0.00     0.037 A 
ATOM     10  O   UNL d   1     -48.151  11.056  23.687  0.00  0.00    -0.267 OA
ATOM     11  C   UNL d   1     -49.925  11.714  23.645  0.00  0.00     0.019 A 
ATOM     12  C   UNL d   1     -50.586  13.142  23.132  0.00  0.00     0.021 A 
ATOM     13  C   UNL d   1     -50.731  11.842  23.698  0.00  0.00     0.002 A 
ATOM     14  C   UNL d   1     -51.064  12.532  23.452  0.00  0.00     0.002 A 
ENDROOT
BRANCH   9  15
ATOM     15  C   UNL d   1     -46.334  13.100  22.586  0.00  0.00     0.006 A 
ATOM     16  C   UNL d   1     -45.799  12.630  22.171  0.00  0.00     0.001 A 
ATOM     17  C   UNL d   1     -45.050  12.934  21.941  0.00  0.00     0.000 A 
ATOM     18  C   UNL d   1     -44.855  13.706  22.132  0.00  0.00     0.000 A 
ATOM     19  C   UNL d   1     -45.395  14.193  22.554  0.00  0.00     0.000 A 
ATOM     20  C   UNL d   1     -46.129  13.893  22.780  0.00  0.00     0.001 A 
ENDBRANCH   9  15
TORSDOF 1
ENDMDL
MODEL 4
REMARK VINA RESULT:      -7.3      0.885      4.123
REMARK  1 active torsions:
REMARK  status: ('A' for Active; 'I' for Inactive)
REMARK    1  A    between atoms: C_11  and  C_9 
ROOT
ATOM      1  N   UNL d   1     -47.690  13.989  22.820  0.00  0.00    -0.253 N 
ATOM      2  C   UNL d   1     -47.926  13.210  22.922  0.00  0.00     0.182 A 
ATOM      3  C   UNL d   1     -46.865  14.167  22.827  0.00  0.00     0.267 A 
ATOM      4  N   UNL d   1     -48.731  13.183  22.894  0.00  0.00    -0.221 NA
ATOM      5  S   UNL d   1     -47.386  12.605  23.031  0.00  0.00    -0.050 SA
ATOM      6  C   UNL d   1     -46.310  13.579  22.934  0.00  0.00     0.068 A 
ATOM      7  C   UNL d   1     -48.359  14.435  22.729  0.00  0.00     0.086 A 
ATOM      8  C   UNL d   1     -49.023  13.955  22.771  0.00  0.00     0.100 A 
ATOM      9  C   UNL d   1     -46.580  12.773  23.039  0.00  0.00     0.037 A 
ATOM     10  O   UNL d   1     -46.594  14.969  22.723  0.00  0.00    -0.267 OA
ATOM     11  C   UNL d   1     -48.458  15.268  22.605  0.00  0.00     0.019 A 
ATOM     12  C   UNL d   1     -49.770  14.262  22.697  0.00  0.00     0.021 A 
ATOM     13  C   UNL d   1     -49.217  15.565  22.532  0.00  0.00     0.002 A 
ATOM     14  C   UNL d   1     -49.862  15.086  22.575  0.00  0.00     0.002 A 
ENDROOT
BRANCH   9  15
ATOM     15  C   UNL d   1     -46.099  12.095  23.156  0.00  0.00     0.006 A 
ATOM     16  C   UNL d   1     -45.333  12.070  22.852  0.00  0.00     0.001 A 
ATOM     17  C   UNL d   1     -44.848  11.393  22.967  0.00  0.00     0.000 A 
ATOM     18  C   UNL d   1     -45.144  10.754  23.385  0.00  0.00     0.000 A 
ATOM     19  C   UNL d   1     -45.925  10.770  23.698  0.00  0.00     0.000 A 
ATOM     20  C   UNL d   1     -46.400  11.436  23.584  0.00  0.00     0.001 A 
ENDBRANCH   9  15
TORSDOF 1
ENDMDL
MODEL 5
REMARK VINA RESULT:      -6.9      8.931     10.670
REMARK  1 active torsions:
REMARK  status: ('A' for Active; 'I' for Inactive)
REMARK    1  A    between atoms: C_11  and  C_9 
ROOT
ATOM      1  N   UNL d   1     -40.027  14.827  19.057  0.00  0.00    -0.253 N 
ATOM      2  C   UNL d   1     -39.245  15.016  18.895  0.00  0.00     0.182 A 
ATOM      3  C   UNL d   1     -40.459  14.370  18.495  0.00  0.00     0.267 A 
ATOM      4  N   UNL d   1     -38.956  15.450  19.509  0.00  0.00    -0.221 NA
ATOM      5  S   UNL d   1     -38.877  14.774  18.205  0.00  0.00    -0.050 SA
ATOM      6  C   UNL d   1     -40.111  14.119  17.802  0.00  0.00     0.068 A 
ATOM      7  C   UNL d   1     -40.210  15.151  19.777  0.00  0.00     0.086 A 
ATOM      8  C   UNL d   1     -39.558  15.545  20.079  0.00  0.00     0.100 A 
ATOM      9  C   UNL d   1     -39.294  14.328  17.654  0.00  0.00     0.037 A 
ATOM     10  O   UNL d   1     -41.274  14.161  18.641  0.00  0.00    -0.267 OA
ATOM     11  C   UNL d   1     -40.930  15.138  20.224  0.00  0.00     0.019 A 
ATOM     12  C   UNL d   1     -39.588  15.922  20.797  0.00  0.00     0.021 A 
ATOM     13  C   UNL d   1     -40.948  15.521  20.947  0.00  0.00     0.002 A 
ATOM     14  C   UNL d   1     -40.303  15.906  21.236  0.00  0.00     0.002 A 
ENDROOT
BRANCH   9  15
ATOM     15  C   UNL d   1     -38.840  14.124  16.977  0.00  0.00     0.006 A 
ATOM     16  C   UNL d   1     -38.416  13.417  16.958  0.00  0.00     0.001 A 
ATOM     17  C   UNL d   1     -37.960  13.209  16.284  0.00  0.00     0.000 A 
ATOM     18  C   UNL d   1     -37.940  13.717  15.641  0.00  0.00     0.000 A 
ATOM     19  C   UNL d   1     -38.369  14.440  15.652  0.00  0.00     0.000 A 
ATOM     20  C   UNL d   1     -38.816  14.643  16.316  0.00  0.00     0.001 A 
ENDBRANCH   9  15
TORSDOF 1
ENDMDL
MODEL 6
REMARK VINA RESULT:      -6.5      1.456      4.365
REMARK  1 active torsions:
REMARK  status: ('A' for Active; 'I' for Inactive)
REMARK    1  A    between atoms: C_11  and  C_9 
ROOT
ATOM      1  N   UNL d   1     -49.020  12.290  23.206  0.00  0.00    -0.253 N 
ATOM      2  C   UNL d   1     -48.374  12.756  23.009  0.00  0.00     0.182 A 
ATOM      3  C   UNL d   1     -48.883  11.505  23.484  0.00  0.00     0.267 A 
ATOM      4  N   UNL d   1     -48.645  13.473  22.761  0.00  0.00    -0.221 NA
ATOM      5  S   UNL d   1     -47.606  12.481  23.075  0.00  0.00    -0.050 SA
ATOM      6  C   UNL d   1     -48.127  11.211  23.557  0.00  0.00     0.068 A 
ATOM      7  C   UNL d   1     -49.686  12.731  23.075  0.00  0.00     0.086 A 
ATOM      8  C   UNL d   1     -49.479  13.474  22.797  0.00  0.00     0.100 A 
ATOM      9  C   UNL d   1     -47.468  11.716  23.345  0.00  0.00     0.037 A 
ATOM     10  O   UNL d   1     -49.539  11.000  23.695  0.00  0.00    -0.267 OA
ATOM     11  C   UNL d   1     -50.506  12.542  23.179  0.00  0.00     0.019 A 
ATOM     12  C   UNL d   1     -50.042  14.030  22.621  0.00  0.00     0.021 A 
ATOM     13  C   UNL d   1     -51.064  13.111  22.998  0.00  0.00     0.002 A 
ATOM     14  C   UNL d   1     -50.852  13.838  22.726  0.00  0.00     0.002 A 
ENDROOT
BRANCH   9  15
ATOM     15  C   UNL d   1     -46.653  11.517  23.382  0.00  0.00     0.006 A 
ATOM     16  C   UNL d   1     -46.081  12.061  23.143  0.00  0.00     0.001 A 
ATOM     17  C   UNL d   1     -45.264  11.866  23.178  0.00  0.00     0.000 A 
ATOM     18  C   UNL d   1     -45.039  11.128  23.452  0.00  0.00     0.000 A 
ATOM     19  C   UNL d   1     -45.616  10.567  23.698  0.00  0.00     0.000 A 
ATOM     20  C   UNL d   1     -46.418  10.760  23.663  0.00  0.00     0.001 A 
ENDBRANCH   9  15
TORSDOF 1
ENDMDL
MODEL 7
REMARK VINA RESULT:      -6.3      8.798      9.801
REMARK  1 active torsions:
REMARK  status: ('A' for Active; 'I' for Inactive)
REMARK    1  A    between atoms: C_11  and  C_9 
ROOT
ATOM      1  N   UNL d   1     -40.237  15.100  19.373  0.00  0.00    -0.253 N 
ATOM      2  C   UNL d   1     -39.579  14.624  19.490  0.00  0.00     0.182 A 
ATOM      3  C   UNL d   1     -40.630  15.423  20.046  0.00  0.00     0.267 A 
ATOM      4  N   UNL d   1     -39.306  14.385  18.771  0.00  0.00    -0.221 NA
ATOM      5  S   UNL d   1     -39.296  14.456  20.240  0.00  0.00    -0.050 SA
ATOM      6  C   UNL d   1     -40.364  15.269  20.800  0.00  0.00     0.068 A 
ATOM      7  C   UNL d   1     -40.361  15.148  18.574  0.00  0.00     0.086 A 
ATOM      8  C   UNL d   1     -39.793  14.711  18.176  0.00  0.00     0.100 A 
ATOM      9  C   UNL d   1     -39.675  14.769  20.899  0.00  0.00     0.037 A 
ATOM     10  O   UNL d   1     -41.316  15.921  19.949  0.00  0.00    -0.267 OA
ATOM     11  C   UNL d   1     -40.954  15.559  18.128  0.00  0.00     0.019 A 
ATOM     12  C   UNL d   1     -39.787  14.663  17.366  0.00  0.00     0.021 A 
ATOM     13  C   UNL d   1     -40.938  15.503  17.312  0.00  0.00     0.002 A 
ATOM     14  C   UNL d   1     -40.376  15.071  16.930  0.00  0.00     0.002 A 
ENDROOT
BRANCH   9  15
ATOM     15  C   UNL d   1     -39.318  14.547  21.626  0.00  0.00     0.006 A 
ATOM     16  C   UNL d   1     -39.403  13.779  21.914  0.00  0.00     0.001 A 
ATOM     17  C   UNL d   1     -39.047  13.552  22.641  0.00  0.00     0.000 A 
ATOM     18  C   UNL d   1     -38.613  14.103  23.064  0.00  0.00     0.000 A 
ATOM     19  C   UNL d   1     -38.521  14.888  22.778  0.00  0.00     0.000 A 
ATOM     20  C   UNL d   1     -38.871  15.109  22.064  0.00  0.00     0.001 A 
ENDBRANCH   9  15
TORSDOF 1
ENDMDL
MODEL 8
REMARK VINA RESULT:      -6.1      9.457     10.371
REMARK  1 active torsions:
REMARK  status: ('A' for Active; 'I' for Inactive)
REMARK    1  A    between atoms: C_11  and  C_9 
ROOT
ATOM      1  N   UNL d   1     -39.365  14.973  18.895  0.00  0.00    -0.253 N 
ATOM      2  C   UNL d   1     -39.776  14.359  19.252  0.00  0.00     0.182 A 
ATOM      3  C   UNL d   1     -38.681  15.282  19.281  0.00  0.00     0.267 A 
ATOM      4  N   UNL d   1     -40.400  14.164  18.782  0.00  0.00    -0.221 NA
ATOM      5  S   UNL d   1     -39.540  14.040  19.968  0.00  0.00    -0.050 SA
ATOM      6  C   UNL d   1     -38.430  14.979  19.994  0.00  0.00     0.068 A 
ATOM      7  C   UNL d   1     -39.747  15.150  18.203  0.00  0.00     0.086 A 
ATOM      8  C   UNL d   1     -40.396  14.658  18.109  0.00  0.00     0.100 A 
ATOM      9  C   UNL d   1     -38.874  14.338  20.348  0.00  0.00     0.037 A 
ATOM     10  O   UNL d   1     -38.237  15.921  18.930  0.00  0.00    -0.267 OA
ATOM     11  C   UNL d   1     -39.577  15.730  17.608  0.00  0.00     0.019 A 
ATOM     12  C   UNL d   1     -40.879  14.716  17.459  0.00  0.00     0.021 A 
ATOM     13  C   UNL d   1     -40.071  15.779  16.958  0.00  0.00     0.002 A 
ATOM     14  C   UNL d   1     -40.706  15.292  16.874  0.00  0.00     0.002 A 
ENDROOT
BRANCH   9  15
ATOM     15  C   UNL d   1     -38.705  13.952  21.075  0.00  0.00     0.006 A 
ATOM     16  C   UNL d   1     -38.111  13.381  21.116  0.00  0.00     0.001 A 
ATOM     17  C   UNL d   1     -37.940  12.994  21.842  0.00  0.00     0.000 A 
ATOM     18  C   UNL d   1     -38.368  13.189  22.512  0.00  0.00     0.000 A 
ATOM     19  C   UNL d   1     -38.975  13.770  22.479  0.00  0.00     0.000 A 
ATOM     20  C   UNL d   1     -39.143  14.150  21.766  0.00  0.00     0.001 A 
ENDBRANCH   9  15
TORSDOF 1
ENDMDL
MODEL 9
REMARK VINA RESULT:      -5.8      1.846      2.834
REMARK  1 active torsions:
REMARK  status: ('A' for Active; 'I' for Inactive)
REMARK    1  A    between atoms: C_11  and  C_9 
ROOT
ATOM      1  N   UNL d   1     -45.338  11.620  23.121  0.00  0.00    -0.253 N 
ATOM      2  C   UNL d   1     -45.983  11.218  23.430  0.00  0.00     0.182 A 
ATOM      3  C   UNL d   1     -45.455  12.394  22.806  0.00  0.00     0.267 A 
ATOM      4  N   UNL d   1     -45.732  10.499  23.693  0.00  0.00    -0.221 NA
ATOM      5  S   UNL d   1     -46.732  11.547  23.442  0.00  0.00    -0.050 SA
ATOM      6  C   UNL d   1     -46.193  12.740  22.808  0.00  0.00     0.068 A 
ATOM      7  C   UNL d   1     -44.692  11.138  23.198  0.00  0.00     0.086 A 
ATOM      8  C   UNL d   1     -44.911  10.432  23.552  0.00  0.00     0.100 A 
ATOM      9  C   UNL d   1     -46.851  12.302  23.136  0.00  0.00     0.037 A 
ATOM     10  O   UNL d   1     -44.799  12.833  22.479  0.00  0.00    -0.267 OA
ATOM     11  C   UNL d   1     -43.881  11.256  22.978  0.00  0.00     0.019 A 
ATOM     12  C   UNL d   1     -44.369   9.845  23.697  0.00  0.00     0.021 A 
ATOM     13  C   UNL d   1     -43.344  10.657  23.129  0.00  0.00     0.002 A 
ATOM     14  C   UNL d   1     -43.569   9.968  23.477  0.00  0.00     0.002 A 
ENDROOT
BRANCH   9  15
ATOM     15  C   UNL d   1     -47.649  12.561  23.188  0.00  0.00     0.006 A 
ATOM     16  C   UNL d   1     -48.260  12.013  23.269  0.00  0.00     0.001 A 
ATOM     17  C   UNL d   1     -49.059  12.268  23.321  0.00  0.00     0.000 A 
ATOM     18  C   UNL d   1     -49.227  13.068  23.292  0.00  0.00     0.000 A 
ATOM     19  C   UNL d   1     -48.610  13.634  23.210  0.00  0.00     0.000 A 
ATOM     20  C   UNL d   1     -47.826  13.382  23.159  0.00  0.00     0.001 A 
ENDBRANCH   9  15
TORSDOF 1
ENDMDL
