MODEL 1
REMARK VINA RESULT:      -3.4      0.000      0.000
REMARK  6 active torsions:
REMARK  status: ('A' for Active; 'I' for Inactive)
REMARK    1  A    between atoms: O_8  and  C_1 
REMARK    2  A    between atoms: C_2  and  C_3 
REMARK    3  A    between atoms: C_3  and  O_8 
REMARK    4  A    between atoms: C_4  and  S_17 
REMARK    5  A    between atoms: C_23  and  C_14 
REMARK    6  A    between atoms: S_17  and  C_23 
ROOT
ATOM      1  C   UNL d   1     -41.336-122.756 -50.682  0.00  0.00     0.167 A 
ATOM      2  C   UNL d   1     -41.193-122.029 -51.054  0.00  0.00     0.222 A 
ATOM      3  C   UNL d   1     -41.123-122.017 -51.881  0.00  0.00     0.069 A 
ATOM      4  C   UNL d   1     -41.406-123.450 -51.122  0.00  0.00     0.151 A 
ATOM      5  C   UNL d   1     -41.194-122.711 -52.321  0.00  0.00     0.110 A 
ATOM      6  O   UNL d   1     -41.335-123.424 -51.939  0.00  0.00    -0.302 OA
ATOM      7  O   UNL d   1     -41.123-121.342 -50.618  0.00  0.00    -0.284 OA
ENDROOT
BRANCH   5   8
ATOM      8  C   UNL d   1     -41.123-122.688 -53.141  0.00  0.00     0.063 C 
BRANCH   8   9
ATOM      9  S   UNL d   1     -41.803-122.295 -53.400  0.00  0.00    -0.046 SA
BRANCH   9  10
ATOM     10  C   UNL d   1     -42.013-122.317 -54.191  0.00  0.00     0.194 A 
ATOM     11  N   UNL d   1     -41.831-121.680 -54.678  0.00  0.00    -0.221 NA
ATOM     12  C   UNL d   1     -42.039-121.700 -55.465  0.00  0.00     0.085 A 
ATOM     13  C   UNL d   1     -41.858-121.062 -55.952  0.00  0.00     0.021 C 
ATOM     14  C   UNL d   1     -42.432-122.356 -55.777  0.00  0.00     0.038 A 
ATOM     15  C   UNL d   1     -42.608-122.989 -55.277  0.00  0.00     0.085 A 
ATOM     16  N   UNL d   1     -42.396-122.962 -54.490  0.00  0.00    -0.221 NA
ATOM     17  C   UNL d   1     -43.001-123.646 -55.589  0.00  0.00     0.021 C 
ENDBRANCH   9  10
ENDBRANCH   8   9
ENDBRANCH   5   8
BRANCH   1  18
ATOM     18  O   UNL d   1     -41.436-122.989 -49.892  0.00  0.00    -0.266 OA
BRANCH  18  19
ATOM     19  C   UNL d   1     -42.192-123.026 -49.565  0.00  0.00     0.323 C 
ATOM     20  O   UNL d   1     -42.840-122.887 -50.031  0.00  0.00    -0.257 OA
BRANCH  19  21
ATOM     21  C   UNL d   1     -42.297-123.206 -48.761  0.00  0.00     0.164 A 
ATOM     22  O   UNL d   1     -41.720-123.129 -48.192  0.00  0.00    -0.295 OA
ATOM     23  C   UNL d   1     -42.062-123.365 -47.482  0.00  0.00     0.134 A 
ATOM     24 BR   UNL d   1     -41.675-123.376 -46.760  0.00  0.00    -0.022 Br
ATOM     25  C   UNL d   1     -42.819-123.578 -47.620  0.00  0.00     0.034 A 
ATOM     26  C   UNL d   1     -42.964-123.478 -48.415  0.00  0.00     0.033 A 
ENDBRANCH  19  21
ENDBRANCH  18  19
ENDBRANCH   1  18
TORSDOF 6
ENDMDL
MODEL 2
REMARK VINA RESULT:      -3.3      2.833      5.826
REMARK  6 active torsions:
REMARK  status: ('A' for Active; 'I' for Inactive)
REMARK    1  A    between atoms: O_8  and  C_1 
REMARK    2  A    between atoms: C_2  and  C_3 
REMARK    3  A    between atoms: C_3  and  O_8 
REMARK    4  A    between atoms: C_4  and  S_17 
REMARK    5  A    between atoms: C_23  and  C_14 
REMARK    6  A    between atoms: S_17  and  C_23 
ROOT
ATOM      1  C   UNL d   1     -41.381-122.307 -52.662  0.00  0.00     0.167 A 
ATOM      2  C   UNL d   1     -41.266-123.092 -52.418  0.00  0.00     0.222 A 
ATOM      3  C   UNL d   1     -41.180-123.244 -51.606  0.00  0.00     0.069 A 
ATOM      4  C   UNL d   1     -41.409-121.693 -52.111  0.00  0.00     0.151 A 
ATOM      5  C   UNL d   1     -41.209-122.630 -51.056  0.00  0.00     0.110 A 
ATOM      6  O   UNL d   1     -41.323-121.858 -51.312  0.00  0.00    -0.302 OA
ATOM      7  O   UNL d   1     -41.238-123.700 -52.963  0.00  0.00    -0.284 OA
ENDROOT
BRANCH   5   8
ATOM      8  C   UNL d   1     -41.123-122.791 -50.254  0.00  0.00     0.063 C 
BRANCH   8   9
ATOM      9  S   UNL d   1     -41.861-122.617 -49.924  0.00  0.00    -0.046 SA
BRANCH   9  10
ATOM     10  C   UNL d   1     -42.063-122.916 -49.189  0.00  0.00     0.194 A 
ATOM     11  N   UNL d   1     -42.818-123.218 -49.066  0.00  0.00    -0.221 NA
ATOM     12  C   UNL d   1     -43.021-123.516 -48.336  0.00  0.00     0.085 A 
ATOM     13  C   UNL d   1     -43.776-123.817 -48.214  0.00  0.00     0.021 C 
ATOM     14  C   UNL d   1     -42.472-123.518 -47.719  0.00  0.00     0.038 A 
ATOM     15  C   UNL d   1     -41.717-123.212 -47.856  0.00  0.00     0.085 A 
ATOM     16  N   UNL d   1     -41.522-122.915 -48.590  0.00  0.00    -0.221 NA
ATOM     17  C   UNL d   1     -41.169-123.214 -47.238  0.00  0.00     0.021 C 
ENDBRANCH   9  10
ENDBRANCH   8   9
ENDBRANCH   5   8
BRANCH   1  18
ATOM     18  O   UNL d   1     -41.486-121.943 -53.399  0.00  0.00    -0.266 OA
BRANCH  18  19
ATOM     19  C   UNL d   1     -42.229-121.937 -53.755  0.00  0.00     0.323 C 
ATOM     20  O   UNL d   1     -42.896-121.982 -53.297  0.00  0.00    -0.257 OA
BRANCH  19  21
ATOM     21  C   UNL d   1     -42.303-121.885 -54.581  0.00  0.00     0.164 A 
ATOM     22  O   UNL d   1     -41.766-121.517 -55.069  0.00  0.00    -0.295 OA
ATOM     23  C   UNL d   1     -42.056-121.597 -55.835  0.00  0.00     0.134 A 
ATOM     24 BR   UNL d   1     -41.687-121.305 -56.506  0.00  0.00    -0.022 Br
ATOM     25  C   UNL d   1     -42.745-122.000 -55.807  0.00  0.00     0.034 A 
ATOM     26  C   UNL d   1     -42.897-122.178 -55.028  0.00  0.00     0.033 A 
ENDBRANCH  19  21
ENDBRANCH  18  19
ENDBRANCH   1  18
TORSDOF 6
ENDMDL
