MODEL 1
REMARK VINA RESULT:      35.2      0.000      0.000
REMARK  4 active torsions:
REMARK  status: ('A' for Active; 'I' for Inactive)
REMARK    1  A    between atoms: C_3  and  C_1 
REMARK       I    between atoms: N_8  and  C_3 
REMARK    2  A    between atoms: C_10  and  C_7 
REMARK    3  A    between atoms: C_9  and  N_8 
REMARK    4  A    between atoms: O_14  and  C_10 
ROOT
ATOM      1  C   UNL d   1      60.378  49.293  50.897  0.00  0.00     0.081 A 
ATOM      2  C   UNL d   1      59.795  49.480  50.348  0.00  0.00     0.090 A 
ATOM      3  C   UNL d   1      61.172  49.307  50.671  0.00  0.00     0.007 A 
ATOM      4  C   UNL d   1      60.001  49.680  49.573  0.00  0.00     0.019 A 
ATOM      5  C   UNL d   1      61.382  49.507  49.896  0.00  0.00     0.000 A 
ATOM      6  C   UNL d   1      60.790  49.694  49.347  0.00  0.00     0.002 A 
ENDROOT
BRANCH   2   7
ATOM      7  N   UNL d   1      59.026  49.448  50.633  0.00  0.00    -0.207 NA
ATOM      8  C   UNL d   1      58.395  49.562  50.115  0.00  0.00     0.287 C 
ATOM      9  O   UNL d   1      58.536  49.705  49.320  0.00  0.00    -0.265 OA
BRANCH   8  10
ATOM     10  C   UNL d   1      57.619  49.532  50.393  0.00  0.00     0.108 A 
ATOM     11  C   UNL d   1      56.949  49.339  49.949  0.00  0.00     0.094 A 
ATOM     12  N   UNL d   1      56.295  49.379  50.450  0.00  0.00    -0.219 NA
ATOM     13  C   UNL d   1      56.940  49.142  49.151  0.00  0.00     0.021 C 
ATOM     14  C   UNL d   1      56.559  49.595  51.194  0.00  0.00     0.215 A 
ATOM     15  S   UNL d   1      57.376  49.690  51.161  0.00  0.00    -0.041 SA
ATOM     16  N   UNL d   1      56.091  49.701  51.867  0.00  0.00    -0.120 N 
ENDBRANCH   8  10
ENDBRANCH   2   7
BRANCH   1  17
ATOM     17  C   UNL d   1      60.172  49.095  51.668  0.00  0.00     0.297 C 
ATOM     18  O   UNL d   1      59.707  48.435  51.806  0.00  0.00    -0.259 OA
BRANCH  17  19
ATOM     19  O   UNL d   1      60.432  49.557  52.290  0.00  0.00    -0.296 OA
ATOM     20  C   UNL d   1      60.116  49.446  53.044  0.00  0.00     0.185 C 
ENDBRANCH  17  19
ENDBRANCH   1  17
TORSDOF 4
ENDMDL
