MODEL 1
REMARK VINA RESULT:      -5.4      0.000      0.000
REMARK  3 active torsions:
REMARK  status: ('A' for Active; 'I' for Inactive)
REMARK    1  A    between atoms: C_6  and  N_2 
REMARK    2  A    between atoms: C_7  and  C_6 
REMARK       I    between atoms: N_11  and  C_7 
REMARK    3  A    between atoms: C_14  and  N_11 
ROOT
ATOM      1  S   UNL d   1      58.551  -0.239  29.229  0.00  0.00     0.274 S 
ATOM      2  N   UNL d   1      58.577   0.232  29.894  0.00  0.00    -0.192 N 
ATOM      3  C   UNL d   1      59.361   0.271  30.158  0.00  0.00     0.275 A 
ATOM      4  C   UNL d   1      59.808  -0.183  29.644  0.00  0.00     0.069 A 
ATOM      5  C   UNL d   1      59.313  -0.495  29.077  0.00  0.00     0.109 A 
ATOM      6  O   UNL d   1      57.843   0.090  29.499  0.00  0.00    -0.200 OA
ATOM      7  O   UNL d   1      58.272  -0.660  28.568  0.00  0.00    -0.200 OA
ATOM      8  O   UNL d   1      59.643   0.682  30.806  0.00  0.00    -0.266 OA
ATOM      9  C   UNL d   1      60.616  -0.350  29.627  0.00  0.00     0.005 A 
ATOM     10  C   UNL d   1      59.616  -0.979  28.482  0.00  0.00     0.013 A 
ATOM     11  C   UNL d   1      60.920  -0.836  29.031  0.00  0.00     0.000 A 
ATOM     12  C   UNL d   1      60.425  -1.147  28.464  0.00  0.00     0.001 A 
ENDROOT
BRANCH   2  13
ATOM     13  C   UNL d   1      57.931   0.612  30.250  0.00  0.00     0.157 C 
BRANCH  13  14
ATOM     14  C   UNL d   1      57.667   0.357  30.980  0.00  0.00     0.298 C 
ATOM     15  N   UNL d   1      56.863   0.179  31.085  0.00  0.00    -0.207 NA
ATOM     16  O   UNL d   1      58.183   0.274  31.611  0.00  0.00    -0.264 OA
BRANCH  15  17
ATOM     17  C   UNL d   1      56.588  -0.079  31.820  0.00  0.00     0.085 A 
ATOM     18  C   UNL d   1      56.509  -0.877  31.955  0.00  0.00     0.019 A 
ATOM     19  C   UNL d   1      56.233  -1.135  32.689  0.00  0.00     0.002 A 
ATOM     20  C   UNL d   1      56.044  -0.593  33.270  0.00  0.00     0.000 A 
ATOM     21  C   UNL d   1      56.127   0.216  33.126  0.00  0.00     0.002 A 
ATOM     22  C   UNL d   1      56.396   0.471  32.409  0.00  0.00     0.019 A 
ENDBRANCH  15  17
ENDBRANCH  13  14
ENDBRANCH   2  13
TORSDOF 3
ENDMDL
MODEL 2
REMARK VINA RESULT:      -5.2      0.701      1.166
REMARK  3 active torsions:
REMARK  status: ('A' for Active; 'I' for Inactive)
REMARK    1  A    between atoms: C_6  and  N_2 
REMARK    2  A    between atoms: C_7  and  C_6 
REMARK       I    between atoms: N_11  and  C_7 
REMARK    3  A    between atoms: C_14  and  N_11 
ROOT
ATOM      1  S   UNL d   1      59.526   0.168  29.580  0.00  0.00     0.274 S 
ATOM      2  N   UNL d   1      58.774  -0.125  29.698  0.00  0.00    -0.192 N 
ATOM      3  C   UNL d   1      58.763  -0.920  29.463  0.00  0.00     0.275 A 
ATOM      4  C   UNL d   1      59.517  -1.102  29.202  0.00  0.00     0.069 A 
ATOM      5  C   UNL d   1      59.983  -0.437  29.273  0.00  0.00     0.109 A 
ATOM      6  O   UNL d   1      58.956   0.679  29.889  0.00  0.00    -0.200 OA
ATOM      7  O   UNL d   1      60.180   0.682  29.554  0.00  0.00    -0.200 OA
ATOM      8  O   UNL d   1      58.125  -1.430  29.485  0.00  0.00    -0.266 OA
ATOM      9  C   UNL d   1      59.835  -1.803  28.905  0.00  0.00     0.005 A 
ATOM     10  C   UNL d   1      60.776  -0.460  29.048  0.00  0.00     0.013 A 
ATOM     11  C   UNL d   1      60.630  -1.827  28.679  0.00  0.00     0.000 A 
ATOM     12  C   UNL d   1      61.097  -1.162  28.750  0.00  0.00     0.001 A 
ENDROOT
BRANCH   2  13
ATOM     13  C   UNL d   1      58.127   0.296  30.001  0.00  0.00     0.157 C 
BRANCH  13  14
ATOM     14  C   UNL d   1      57.864   0.139  30.758  0.00  0.00     0.298 C 
ATOM     15  N   UNL d   1      57.049   0.087  30.906  0.00  0.00    -0.207 NA
ATOM     16  O   UNL d   1      58.392   0.030  31.376  0.00  0.00    -0.264 OA
BRANCH  15  17
ATOM     17  C   UNL d   1      56.774  -0.071  31.668  0.00  0.00     0.085 A 
ATOM     18  C   UNL d   1      56.581  -0.835  31.868  0.00  0.00     0.019 A 
ATOM     19  C   UNL d   1      56.306  -0.994  32.630  0.00  0.00     0.002 A 
ATOM     20  C   UNL d   1      56.230  -0.389  33.174  0.00  0.00     0.000 A 
ATOM     21  C   UNL d   1      56.428   0.385  32.963  0.00  0.00     0.002 A 
ATOM     22  C   UNL d   1      56.697   0.543  32.219  0.00  0.00     0.019 A 
ENDBRANCH  15  17
ENDBRANCH  13  14
ENDBRANCH   2  13
TORSDOF 3
ENDMDL
MODEL 3
REMARK VINA RESULT:      -3.5      1.098      1.442
REMARK  3 active torsions:
REMARK  status: ('A' for Active; 'I' for Inactive)
REMARK    1  A    between atoms: C_6  and  N_2 
REMARK    2  A    between atoms: C_7  and  C_6 
REMARK       I    between atoms: N_11  and  C_7 
REMARK    3  A    between atoms: C_14  and  N_11 
ROOT
ATOM      1  S   UNL d   1      58.574  -1.090  29.965  0.00  0.00     0.274 S 
ATOM      2  N   UNL d   1      57.922  -0.662  30.200  0.00  0.00    -0.192 N 
ATOM      3  C   UNL d   1      57.943   0.076  29.825  0.00  0.00     0.275 A 
ATOM      4  C   UNL d   1      58.616   0.088  29.360  0.00  0.00     0.069 A 
ATOM      5  C   UNL d   1      59.002  -0.624  29.446  0.00  0.00     0.109 A 
ATOM      6  O   UNL d   1      58.050  -1.444  30.495  0.00  0.00    -0.200 OA
ATOM      7  O   UNL d   1      59.133  -1.702  29.884  0.00  0.00    -0.200 OA
ATOM      8  O   UNL d   1      57.399   0.682  29.899  0.00  0.00    -0.266 OA
ATOM      9  C   UNL d   1      58.926   0.672  28.865  0.00  0.00     0.005 A 
ATOM     10  C   UNL d   1      59.705  -0.768  29.038  0.00  0.00     0.013 A 
ATOM     11  C   UNL d   1      59.630   0.528  28.456  0.00  0.00     0.000 A 
ATOM     12  C   UNL d   1      60.016  -0.184  28.541  0.00  0.00     0.001 A 
ENDROOT
BRANCH   2  13
ATOM     13  C   UNL d   1      57.333  -0.918  30.726  0.00  0.00     0.157 C 
BRANCH  13  14
ATOM     14  C   UNL d   1      57.142  -0.456  31.372  0.00  0.00     0.298 C 
ATOM     15  N   UNL d   1      56.664  -0.771  31.972  0.00  0.00    -0.207 NA
ATOM     16  O   UNL d   1      57.416   0.314  31.438  0.00  0.00    -0.264 OA
BRANCH  15  17
ATOM     17  C   UNL d   1      56.466  -0.311  32.630  0.00  0.00     0.085 A 
ATOM     18  C   UNL d   1      55.696  -0.071  32.728  0.00  0.00     0.019 A 
ATOM     19  C   UNL d   1      55.499   0.388  33.385  0.00  0.00     0.002 A 
ATOM     20  C   UNL d   1      56.073   0.597  33.927  0.00  0.00     0.000 A 
ATOM     21  C   UNL d   1      56.854   0.350  33.821  0.00  0.00     0.002 A 
ATOM     22  C   UNL d   1      57.049  -0.099  33.180  0.00  0.00     0.019 A 
ENDBRANCH  15  17
ENDBRANCH  13  14
ENDBRANCH   2  13
TORSDOF 3
ENDMDL
MODEL 4
REMARK VINA RESULT:      -3.2      1.658      2.385
REMARK  3 active torsions:
REMARK  status: ('A' for Active; 'I' for Inactive)
REMARK    1  A    between atoms: C_6  and  N_2 
REMARK    2  A    between atoms: C_7  and  C_6 
REMARK       I    between atoms: N_11  and  C_7 
REMARK    3  A    between atoms: C_14  and  N_11 
ROOT
ATOM      1  S   UNL d   1      60.035  -1.561  28.692  0.00  0.00     0.274 S 
ATOM      2  N   UNL d   1      59.249  -1.560  28.910  0.00  0.00    -0.192 N 
ATOM      3  C   UNL d   1      59.013  -2.343  29.045  0.00  0.00     0.275 A 
ATOM      4  C   UNL d   1      59.666  -2.816  28.907  0.00  0.00     0.069 A 
ATOM      5  C   UNL d   1      60.290  -2.338  28.691  0.00  0.00     0.109 A 
ATOM      6  O   UNL d   1      59.646  -0.834  28.735  0.00  0.00    -0.200 OA
ATOM      7  O   UNL d   1      60.792  -1.307  28.460  0.00  0.00    -0.200 OA
ATOM      8  O   UNL d   1      58.272  -2.600  29.274  0.00  0.00    -0.266 OA
ATOM      9  C   UNL d   1      59.764  -3.634  28.953  0.00  0.00     0.005 A 
ATOM     10  C   UNL d   1      61.025  -2.670  28.517  0.00  0.00     0.013 A 
ATOM     11  C   UNL d   1      60.501  -3.967  28.779  0.00  0.00     0.000 A 
ATOM     12  C   UNL d   1      61.126  -3.489  28.563  0.00  0.00     0.001 A 
ENDROOT
BRANCH   2  13
ATOM     13  C   UNL d   1      58.763  -0.891  28.984  0.00  0.00     0.157 C 
BRANCH  13  14
ATOM     14  C   UNL d   1      58.600  -0.594  29.727  0.00  0.00     0.298 C 
ATOM     15  N   UNL d   1      57.815  -0.575  29.996  0.00  0.00    -0.207 NA
ATOM     16  O   UNL d   1      59.198  -0.313  30.212  0.00  0.00    -0.264 OA
BRANCH  15  17
ATOM     17  C   UNL d   1      57.640  -0.276  30.746  0.00  0.00     0.085 A 
ATOM     18  C   UNL d   1      58.036   0.383  31.011  0.00  0.00     0.019 A 
ATOM     19  C   UNL d   1      57.861   0.682  31.761  0.00  0.00     0.002 A 
ATOM     20  C   UNL d   1      57.298   0.318  32.227  0.00  0.00     0.000 A 
ATOM     21  C   UNL d   1      56.900  -0.352  31.951  0.00  0.00     0.002 A 
ATOM     22  C   UNL d   1      57.069  -0.646  31.219  0.00  0.00     0.019 A 
ENDBRANCH  15  17
ENDBRANCH  13  14
ENDBRANCH   2  13
TORSDOF 3
ENDMDL
