MODEL 1
REMARK VINA RESULT:      57.9      0.000      0.000
REMARK  5 active torsions:
REMARK  status: ('A' for Active; 'I' for Inactive)
REMARK    1  A    between atoms: S_10  and  C_1 
REMARK    2  A    between atoms: C_2  and  C_3 
REMARK    3  A    between atoms: C_13  and  C_6 
REMARK       I    between atoms: N_8  and  C_9 
REMARK    4  A    between atoms: C_9  and  C_11 
REMARK    5  A    between atoms: C_11  and  S_10 
ROOT
ATOM      1  C   UNL d   1     -50.420  26.785  33.385  0.00  0.00     0.194 A 
ATOM      2  C   UNL d   1     -50.000  25.412  33.376  0.00  0.00     0.156 A 
ATOM      3  N   UNL d   1     -49.814  26.215  33.387  0.00  0.00    -0.217 NA
ATOM      4  N   UNL d   1     -51.190  26.550  33.371  0.00  0.00    -0.221 NA
ATOM      5  C   UNL d   1     -51.375  25.739  33.360  0.00  0.00     0.085 A 
ATOM      6  C   UNL d   1     -50.771  25.176  33.362  0.00  0.00     0.042 A 
ENDROOT
BRANCH   1   7
ATOM      7  S   UNL d   1     -50.222  27.597  33.397  0.00  0.00    -0.043 SA
BRANCH   7   8
ATOM      8  C   UNL d   1     -49.605  27.874  33.872  0.00  0.00     0.099 C 
BRANCH   8   9
ATOM      9  C   UNL d   1     -49.472  28.685  33.947  0.00  0.00     0.272 C 
ATOM     10  N   UNL d   1     -48.836  28.964  34.403  0.00  0.00    -0.267 N 
ATOM     11  C   UNL d   1     -48.335  28.426  34.782  0.00  0.00     0.110 A 
ATOM     12  C   UNL d   1     -48.711  29.765  34.473  0.00  0.00     0.110 A 
ATOM     13  C   UNL d   1     -47.709  28.690  35.231  0.00  0.00     0.142 A 
ATOM     14  O   UNL d   1     -47.575  29.504  35.308  0.00  0.00    -0.300 OA
ATOM     15  C   UNL d   1     -48.076  30.042  34.928  0.00  0.00     0.142 A 
ATOM     16  O   UNL d   1     -49.978  29.228  33.564  0.00  0.00    -0.266 OA
ENDBRANCH   8   9
ENDBRANCH   7   8
ENDBRANCH   1   7
BRANCH   2  17
ATOM     17  C   UNL d   1     -49.388  24.866  33.378  0.00  0.00     0.435 C 
ATOM     18  F   UNL d   1     -48.771  24.303  33.382  0.00  0.00    -0.165 F 
ATOM     19  F   UNL d   1     -49.960  24.255  33.428  0.00  0.00    -0.165 F 
ATOM     20  F   UNL d   1     -48.821  25.478  33.329  0.00  0.00    -0.165 F 
ENDBRANCH   2  17
BRANCH   5  21
ATOM     21  C   UNL d   1     -52.173  25.495  33.346  0.00  0.00     0.018 A 
ATOM     22  C   UNL d   1     -52.362  24.682  33.358  0.00  0.00     0.002 A 
ATOM     23  C   UNL d   1     -53.148  24.442  33.344  0.00  0.00     0.000 A 
ATOM     24  C   UNL d   1     -53.759  25.011  33.318  0.00  0.00     0.000 A 
ATOM     25  C   UNL d   1     -53.579  25.812  33.306  0.00  0.00     0.000 A 
ATOM     26  C   UNL d   1     -52.768  26.059  33.320  0.00  0.00     0.002 A 
ENDBRANCH   5  21
TORSDOF 5
ENDMDL
MODEL 2
REMARK VINA RESULT:      59.4      1.787      2.442
REMARK  5 active torsions:
REMARK  status: ('A' for Active; 'I' for Inactive)
REMARK    1  A    between atoms: S_10  and  C_1 
REMARK    2  A    between atoms: C_2  and  C_3 
REMARK    3  A    between atoms: C_13  and  C_6 
REMARK       I    between atoms: N_8  and  C_9 
REMARK    4  A    between atoms: C_9  and  C_11 
REMARK    5  A    between atoms: C_11  and  S_10 
ROOT
ATOM      1  C   UNL d   1     -50.284  26.888  33.509  0.00  0.00     0.194 A 
ATOM      2  C   UNL d   1     -51.720  26.905  33.519  0.00  0.00     0.156 A 
ATOM      3  N   UNL d   1     -51.001  27.309  33.537  0.00  0.00    -0.217 NA
ATOM      4  N   UNL d   1     -50.294  26.083  33.464  0.00  0.00    -0.221 NA
ATOM      5  C   UNL d   1     -51.021  25.679  33.445  0.00  0.00     0.085 A 
ATOM      6  C   UNL d   1     -51.730  26.100  33.473  0.00  0.00     0.042 A 
ENDROOT
BRANCH   1   7
ATOM      7  S   UNL d   1     -49.560  27.305  33.528  0.00  0.00    -0.043 SA
BRANCH   7   8
ATOM      8  C   UNL d   1     -49.312  27.688  34.218  0.00  0.00     0.099 C 
BRANCH   8   9
ATOM      9  C   UNL d   1     -48.520  27.654  34.447  0.00  0.00     0.272 C 
ATOM     10  N   UNL d   1     -48.183  28.279  34.879  0.00  0.00    -0.267 N 
ATOM     11  C   UNL d   1     -48.644  28.936  35.079  0.00  0.00     0.110 A 
ATOM     12  C   UNL d   1     -47.402  28.240  35.102  0.00  0.00     0.110 A 
ATOM     13  C   UNL d   1     -48.323  29.553  35.502  0.00  0.00     0.142 A 
ATOM     14  O   UNL d   1     -47.528  29.521  35.733  0.00  0.00    -0.300 OA
ATOM     15  C   UNL d   1     -47.067  28.864  35.533  0.00  0.00     0.142 A 
ATOM     16  O   UNL d   1     -48.055  26.991  34.245  0.00  0.00    -0.266 OA
ENDBRANCH   8   9
ENDBRANCH   7   8
ENDBRANCH   1   7
BRANCH   2  17
ATOM     17  C   UNL d   1     -52.416  27.338  33.547  0.00  0.00     0.435 C 
ATOM     18  F   UNL d   1     -53.120  27.786  33.574  0.00  0.00    -0.165 F 
ATOM     19  F   UNL d   1     -51.981  28.013  33.306  0.00  0.00    -0.165 F 
ATOM     20  F   UNL d   1     -52.845  26.662  33.788  0.00  0.00    -0.165 F 
ENDBRANCH   2  17
BRANCH   5  21
ATOM     21  C   UNL d   1     -51.031  24.846  33.399  0.00  0.00     0.018 A 
ATOM     22  C   UNL d   1     -51.757  24.436  33.387  0.00  0.00     0.002 A 
ATOM     23  C   UNL d   1     -51.767  23.616  33.341  0.00  0.00     0.000 A 
ATOM     24  C   UNL d   1     -51.050  23.191  33.306  0.00  0.00     0.000 A 
ATOM     25  C   UNL d   1     -50.332  23.587  33.317  0.00  0.00     0.000 A 
ATOM     26  C   UNL d   1     -50.322  24.434  33.364  0.00  0.00     0.002 A 
ENDBRANCH   5  21
TORSDOF 5
ENDMDL
