MODEL 1
REMARK VINA RESULT:      -8.9      0.000      0.000
REMARK  3 active torsions:
REMARK  status: ('A' for Active; 'I' for Inactive)
REMARK    1  A    between atoms: S_7  and  C_1 
REMARK    2  A    between atoms: C_16  and  N_2 
REMARK    3  A    between atoms: C_4  and  S_7 
ROOT
ATOM      1  S   UNL d   1      52.606  33.201  53.428  0.00  0.00    -0.028 SA
ENDROOT
BRANCH   1   2
ATOM      2  C   UNL d   1      53.344  32.754  53.415  0.00  0.00     0.117 A 
ATOM      3  C   UNL d   1      53.318  31.936  53.378  0.00  0.00     0.048 A 
ATOM      4  C   UNL d   1      54.032  31.505  53.365  0.00  0.00     0.114 A 
ATOM      5  C   UNL d   1      52.706  31.385  53.347  0.00  0.00     0.010 A 
ATOM      6  S   UNL d   1      53.827  30.707  53.327  0.00  0.00    -0.068 SA
ATOM      7  N   UNL d   1      54.745  31.906  53.390  0.00  0.00    -0.217 NA
ATOM      8  C   UNL d   1      52.989  30.657  53.316  0.00  0.00     0.031 A 
ATOM      9  C   UNL d   1      52.524  29.937  53.279  0.00  0.00     0.007 C 
ATOM     10  C   UNL d   1      54.781  32.742  53.428  0.00  0.00     0.200 A 
ATOM     11  N   UNL d   1      54.068  33.173  53.441  0.00  0.00    -0.217 NA
ATOM     12  C   UNL d   1      51.868  31.562  53.346  0.00  0.00     0.001 C 
ENDBRANCH   1   2
BRANCH   1  13
ATOM     13  C   UNL d   1      52.590  33.940  53.821  0.00  0.00     0.220 A 
ATOM     14  N   UNL d   1      52.065  34.577  53.599  0.00  0.00    -0.186 N 
ATOM     15  N   UNL d   1      52.200  35.217  54.103  0.00  0.00    -0.038 NA
ATOM     16  N   UNL d   1      52.795  34.994  54.632  0.00  0.00    -0.022 NA
ATOM     17  N   UNL d   1      53.035  34.212  54.460  0.00  0.00    -0.101 NA
BRANCH  14  18
ATOM     18  C   UNL d   1      51.545  34.452  52.959  0.00  0.00     0.087 A 
ATOM     19  C   UNL d   1      51.777  34.499  52.323  0.00  0.00     0.019 A 
ATOM     20  C   UNL d   1      51.276  34.379  51.699  0.00  0.00     0.002 A 
ATOM     21  C   UNL d   1      50.456  34.193  51.807  0.00  0.00     0.000 A 
ATOM     22  C   UNL d   1      50.250  34.152  52.422  0.00  0.00     0.002 A 
ATOM     23  C   UNL d   1      50.725  34.266  53.068  0.00  0.00     0.019 A 
ENDBRANCH  14  18
ENDBRANCH   1  13
TORSDOF 3
ENDMDL
MODEL 2
REMARK VINA RESULT:      -8.1      1.771      2.836
REMARK  3 active torsions:
REMARK  status: ('A' for Active; 'I' for Inactive)
REMARK    1  A    between atoms: S_7  and  C_1 
REMARK    2  A    between atoms: C_16  and  N_2 
REMARK    3  A    between atoms: C_4  and  S_7 
ROOT
ATOM      1  S   UNL d   1      53.291  32.072  53.966  0.00  0.00    -0.028 SA
ENDROOT
BRANCH   1   2
ATOM      2  C   UNL d   1      53.142  31.434  53.403  0.00  0.00     0.117 A 
ATOM      3  C   UNL d   1      53.164  30.657  53.661  0.00  0.00     0.048 A 
ATOM      4  C   UNL d   1      53.020  30.041  53.117  0.00  0.00     0.114 A 
ATOM      5  C   UNL d   1      53.305  30.302  54.391  0.00  0.00     0.010 A 
ATOM      6  S   UNL d   1      53.079  29.334  53.536  0.00  0.00    -0.068 SA
ATOM      7  N   UNL d   1      52.860  30.225  52.335  0.00  0.00    -0.217 NA
ATOM      8  C   UNL d   1      53.259  29.523  54.334  0.00  0.00     0.031 A 
ATOM      9  C   UNL d   1      53.372  28.964  54.975  0.00  0.00     0.007 C 
ATOM     10  C   UNL d   1      52.836  31.016  52.062  0.00  0.00     0.200 A 
ATOM     11  N   UNL d   1      52.980  31.632  52.606  0.00  0.00    -0.217 NA
ATOM     12  C   UNL d   1      53.480  30.708  55.125  0.00  0.00     0.001 C 
ENDBRANCH   1   2
BRANCH   1  13
ATOM     13  C   UNL d   1      52.846  32.777  53.901  0.00  0.00     0.220 A 
ATOM     14  N   UNL d   1      53.146  33.543  54.133  0.00  0.00    -0.186 N 
ATOM     15  N   UNL d   1      52.561  34.109  53.993  0.00  0.00    -0.038 NA
ATOM     16  N   UNL d   1      51.905  33.714  53.680  0.00  0.00    -0.022 NA
ATOM     17  N   UNL d   1      52.078  32.899  53.623  0.00  0.00    -0.101 NA
BRANCH  14  18
ATOM     18  C   UNL d   1      53.921  33.585  54.438  0.00  0.00     0.087 A 
ATOM     19  C   UNL d   1      54.449  33.618  54.012  0.00  0.00     0.019 A 
ATOM     20  C   UNL d   1      55.203  33.659  54.304  0.00  0.00     0.002 A 
ATOM     21  C   UNL d   1      55.365  33.662  55.136  0.00  0.00     0.000 A 
ATOM     22  C   UNL d   1      54.850  33.630  55.529  0.00  0.00     0.002 A 
ATOM     23  C   UNL d   1      54.083  33.588  55.270  0.00  0.00     0.019 A 
ENDBRANCH  14  18
ENDBRANCH   1  13
TORSDOF 3
ENDMDL
MODEL 3
REMARK VINA RESULT:      -7.9      0.852      3.627
REMARK  3 active torsions:
REMARK  status: ('A' for Active; 'I' for Inactive)
REMARK    1  A    between atoms: S_7  and  C_1 
REMARK    2  A    between atoms: C_16  and  N_2 
REMARK    3  A    between atoms: C_4  and  S_7 
ROOT
ATOM      1  S   UNL d   1      53.008  32.889  53.500  0.00  0.00    -0.028 SA
ENDROOT
BRANCH   1   2
ATOM      2  C   UNL d   1      52.727  33.654  53.783  0.00  0.00     0.117 A 
ATOM      3  C   UNL d   1      52.045  33.975  53.462  0.00  0.00     0.048 A 
ATOM      4  C   UNL d   1      51.773  34.715  53.736  0.00  0.00     0.114 A 
ATOM      5  C   UNL d   1      51.514  33.726  52.884  0.00  0.00     0.010 A 
ATOM      6  S   UNL d   1      51.087  34.887  53.314  0.00  0.00    -0.068 SA
ATOM      7  N   UNL d   1      52.193  35.106  54.321  0.00  0.00    -0.217 NA
ATOM      8  C   UNL d   1      50.944  34.252  52.785  0.00  0.00     0.031 A 
ATOM      9  C   UNL d   1      50.290  34.188  52.232  0.00  0.00     0.007 C 
ATOM     10  C   UNL d   1      52.890  34.785  54.654  0.00  0.00     0.200 A 
ATOM     11  N   UNL d   1      53.162  34.046  54.381  0.00  0.00    -0.217 NA
ATOM     12  C   UNL d   1      51.559  32.995  52.439  0.00  0.00     0.001 C 
ENDBRANCH   1   2
BRANCH   1  13
ATOM     13  C   UNL d   1      53.832  32.771  53.409  0.00  0.00     0.220 A 
ATOM     14  N   UNL d   1      54.200  32.001  53.432  0.00  0.00    -0.186 N 
ATOM     15  N   UNL d   1      55.013  32.094  53.324  0.00  0.00    -0.038 NA
ATOM     16  N   UNL d   1      55.159  32.903  53.235  0.00  0.00    -0.022 NA
ATOM     17  N   UNL d   1      54.437  33.319  53.287  0.00  0.00    -0.101 NA
BRANCH  14  18
ATOM     18  C   UNL d   1      53.711  31.335  53.550  0.00  0.00     0.087 A 
ATOM     19  C   UNL d   1      53.562  31.135  54.182  0.00  0.00     0.019 A 
ATOM     20  C   UNL d   1      53.088  30.491  54.302  0.00  0.00     0.002 A 
ATOM     21  C   UNL d   1      52.763  30.043  53.659  0.00  0.00     0.000 A 
ATOM     22  C   UNL d   1      52.916  30.247  53.061  0.00  0.00     0.002 A 
ATOM     23  C   UNL d   1      53.387  30.888  52.907  0.00  0.00     0.019 A 
ENDBRANCH  14  18
ENDBRANCH   1  13
TORSDOF 3
ENDMDL
MODEL 4
REMARK VINA RESULT:      -7.7      1.687      4.226
REMARK  3 active torsions:
REMARK  status: ('A' for Active; 'I' for Inactive)
REMARK    1  A    between atoms: S_7  and  C_1 
REMARK    2  A    between atoms: C_16  and  N_2 
REMARK    3  A    between atoms: C_4  and  S_7 
ROOT
ATOM      1  S   UNL d   1      53.160  31.528  53.778  0.00  0.00    -0.028 SA
ENDROOT
BRANCH   1   2
ATOM      2  C   UNL d   1      52.858  32.335  53.817  0.00  0.00     0.117 A 
ATOM      3  C   UNL d   1      53.303  32.914  54.190  0.00  0.00     0.048 A 
ATOM      4  C   UNL d   1      53.011  33.694  54.229  0.00  0.00     0.114 A 
ATOM      5  C   UNL d   1      54.034  32.914  54.571  0.00  0.00     0.010 A 
ATOM      6  S   UNL d   1      53.575  34.140  54.631  0.00  0.00    -0.068 SA
ATOM      7  N   UNL d   1      52.284  33.868  53.892  0.00  0.00    -0.217 NA
ATOM      8  C   UNL d   1      54.208  33.629  54.836  0.00  0.00     0.031 A 
ATOM      9  C   UNL d   1      54.921  33.849  55.261  0.00  0.00     0.007 C 
ATOM     10  C   UNL d   1      51.822  33.284  53.510  0.00  0.00     0.200 A 
ATOM     11  N   UNL d   1      52.115  32.504  53.471  0.00  0.00    -0.217 NA
ATOM     12  C   UNL d   1      54.549  32.238  54.675  0.00  0.00     0.001 C 
ENDBRANCH   1   2
BRANCH   1  13
ATOM     13  C   UNL d   1      53.066  31.098  53.066  0.00  0.00     0.220 A 
ATOM     14  N   UNL d   1      53.010  30.246  53.038  0.00  0.00    -0.186 N 
ATOM     15  N   UNL d   1      52.922  30.013  52.251  0.00  0.00    -0.038 NA
ATOM     16  N   UNL d   1      52.921  30.700  51.789  0.00  0.00    -0.022 NA
ATOM     17  N   UNL d   1      53.009  31.364  52.287  0.00  0.00    -0.101 NA
BRANCH  14  18
ATOM     18  C   UNL d   1      53.052  29.826  53.757  0.00  0.00     0.087 A 
ATOM     19  C   UNL d   1      52.499  29.773  54.149  0.00  0.00     0.019 A 
ATOM     20  C   UNL d   1      52.535  29.366  54.847  0.00  0.00     0.002 A 
ATOM     21  C   UNL d   1      53.248  28.995  55.119  0.00  0.00     0.000 A 
ATOM     22  C   UNL d   1      53.767  29.056  54.733  0.00  0.00     0.002 A 
ATOM     23  C   UNL d   1      53.765  29.455  54.028  0.00  0.00     0.019 A 
ENDBRANCH  14  18
ENDBRANCH   1  13
TORSDOF 3
ENDMDL
MODEL 5
REMARK VINA RESULT:      -7.2      1.714      2.681
REMARK  3 active torsions:
REMARK  status: ('A' for Active; 'I' for Inactive)
REMARK    1  A    between atoms: S_7  and  C_1 
REMARK    2  A    between atoms: C_16  and  N_2 
REMARK    3  A    between atoms: C_4  and  S_7 
ROOT
ATOM      1  S   UNL d   1      53.172  32.934  53.619  0.00  0.00    -0.028 SA
ENDROOT
BRANCH   1   2
ATOM      2  C   UNL d   1      54.030  33.020  53.627  0.00  0.00     0.117 A 
ATOM      3  C   UNL d   1      54.397  33.337  54.288  0.00  0.00     0.048 A 
ATOM      4  C   UNL d   1      55.227  33.420  54.295  0.00  0.00     0.114 A 
ATOM      5  C   UNL d   1      54.123  33.620  55.012  0.00  0.00     0.010 A 
ATOM      6  S   UNL d   1      55.426  33.750  55.023  0.00  0.00    -0.068 SA
ATOM      7  N   UNL d   1      55.660  33.183  53.641  0.00  0.00    -0.217 NA
ATOM      8  C   UNL d   1      54.718  33.866  55.456  0.00  0.00     0.031 A 
ATOM      9  C   UNL d   1      54.652  34.197  56.246  0.00  0.00     0.007 C 
ATOM     10  C   UNL d   1      55.295  32.859  52.962  0.00  0.00     0.200 A 
ATOM     11  N   UNL d   1      54.465  32.776  52.955  0.00  0.00    -0.217 NA
ATOM     12  C   UNL d   1      53.305  33.649  55.265  0.00  0.00     0.001 C 
ENDBRANCH   1   2
BRANCH   1  13
ATOM     13  C   UNL d   1      52.839  32.258  53.255  0.00  0.00     0.220 A 
ATOM     14  N   UNL d   1      52.074  32.261  52.874  0.00  0.00    -0.186 N 
ATOM     15  N   UNL d   1      51.924  31.505  52.578  0.00  0.00    -0.038 NA
ATOM     16  N   UNL d   1      52.577  31.032  52.767  0.00  0.00    -0.022 NA
ATOM     17  N   UNL d   1      53.137  31.492  53.181  0.00  0.00    -0.101 NA
BRANCH  14  18
ATOM     18  C   UNL d   1      51.642  32.974  52.865  0.00  0.00     0.087 A 
ATOM     19  C   UNL d   1      51.178  33.093  53.348  0.00  0.00     0.019 A 
ATOM     20  C   UNL d   1      50.757  33.783  53.344  0.00  0.00     0.002 A 
ATOM     21  C   UNL d   1      50.871  34.379  52.751  0.00  0.00     0.000 A 
ATOM     22  C   UNL d   1      51.318  34.250  52.297  0.00  0.00     0.002 A 
ATOM     23  C   UNL d   1      51.756  33.570  52.273  0.00  0.00     0.019 A 
ENDBRANCH  14  18
ENDBRANCH   1  13
TORSDOF 3
ENDMDL
MODEL 6
REMARK VINA RESULT:      -6.7      1.644      3.449
REMARK  3 active torsions:
REMARK  status: ('A' for Active; 'I' for Inactive)
REMARK    1  A    between atoms: S_7  and  C_1 
REMARK    2  A    between atoms: C_16  and  N_2 
REMARK    3  A    between atoms: C_4  and  S_7 
ROOT
ATOM      1  S   UNL d   1      52.789  32.724  53.683  0.00  0.00    -0.028 SA
ENDROOT
BRANCH   1   2
ATOM      2  C   UNL d   1      53.023  33.554  53.718  0.00  0.00     0.117 A 
ATOM      3  C   UNL d   1      53.588  33.791  54.262  0.00  0.00     0.048 A 
ATOM      4  C   UNL d   1      53.814  34.593  54.296  0.00  0.00     0.114 A 
ATOM      5  C   UNL d   1      54.028  33.395  54.836  0.00  0.00     0.010 A 
ATOM      6  S   UNL d   1      54.383  34.655  54.889  0.00  0.00    -0.068 SA
ATOM      7  N   UNL d   1      53.466  35.130  53.784  0.00  0.00    -0.217 NA
ATOM      8  C   UNL d   1      54.501  33.891  55.213  0.00  0.00     0.031 A 
ATOM      9  C   UNL d   1      55.043  33.686  55.847  0.00  0.00     0.007 C 
ATOM     10  C   UNL d   1      52.888  34.898  53.225  0.00  0.00     0.200 A 
ATOM     11  N   UNL d   1      52.662  34.096  53.191  0.00  0.00    -0.217 NA
ATOM     12  C   UNL d   1      53.991  32.557  55.012  0.00  0.00     0.001 C 
ENDBRANCH   1   2
BRANCH   1  13
ATOM     13  C   UNL d   1      52.000  32.537  53.479  0.00  0.00     0.220 A 
ATOM     14  N   UNL d   1      51.760  31.770  53.189  0.00  0.00    -0.186 N 
ATOM     15  N   UNL d   1      50.947  31.784  53.046  0.00  0.00    -0.038 NA
ATOM     16  N   UNL d   1      50.675  32.541  53.241  0.00  0.00    -0.022 NA
ATOM     17  N   UNL d   1      51.318  33.003  53.506  0.00  0.00    -0.101 NA
BRANCH  14  18
ATOM     18  C   UNL d   1      52.345  31.182  53.106  0.00  0.00     0.087 A 
ATOM     19  C   UNL d   1      52.762  31.195  52.569  0.00  0.00     0.019 A 
ATOM     20  C   UNL d   1      53.331  30.626  52.484  0.00  0.00     0.002 A 
ATOM     21  C   UNL d   1      53.433  30.001  53.048  0.00  0.00     0.000 A 
ATOM     22  C   UNL d   1      53.027  30.003  53.555  0.00  0.00     0.002 A 
ATOM     23  C   UNL d   1      52.447  30.557  53.670  0.00  0.00     0.019 A 
ENDBRANCH  14  18
ENDBRANCH   1  13
TORSDOF 3
ENDMDL
MODEL 7
REMARK VINA RESULT:      -6.5      1.605      3.890
REMARK  3 active torsions:
REMARK  status: ('A' for Active; 'I' for Inactive)
REMARK    1  A    between atoms: S_7  and  C_1 
REMARK    2  A    between atoms: C_16  and  N_2 
REMARK    3  A    between atoms: C_4  and  S_7 
ROOT
ATOM      1  S   UNL d   1      52.871  32.711  53.302  0.00  0.00    -0.028 SA
ENDROOT
BRANCH   1   2
ATOM      2  C   UNL d   1      52.009  32.701  53.273  0.00  0.00     0.117 A 
ATOM      3  C   UNL d   1      51.612  33.306  52.890  0.00  0.00     0.048 A 
ATOM      4  C   UNL d   1      50.778  33.296  52.862  0.00  0.00     0.114 A 
ATOM      5  C   UNL d   1      51.855  33.984  52.489  0.00  0.00     0.010 A 
ATOM      6  S   UNL d   1      50.546  33.968  52.445  0.00  0.00    -0.068 SA
ATOM      7  N   UNL d   1      50.372  32.681  53.218  0.00  0.00    -0.217 NA
ATOM      8  C   UNL d   1      51.239  34.384  52.221  0.00  0.00     0.031 A 
ATOM      9  C   UNL d   1      51.270  35.119  51.777  0.00  0.00     0.007 C 
ATOM     10  C   UNL d   1      50.768  32.058  53.612  0.00  0.00     0.200 A 
ATOM     11  N   UNL d   1      51.602  32.068  53.640  0.00  0.00    -0.217 NA
ATOM     12  C   UNL d   1      52.666  34.236  52.369  0.00  0.00     0.001 C 
ENDBRANCH   1   2
BRANCH   1  13
ATOM     13  C   UNL d   1      53.283  31.983  53.281  0.00  0.00     0.220 A 
ATOM     14  N   UNL d   1      54.011  31.844  53.707  0.00  0.00    -0.186 N 
ATOM     15  N   UNL d   1      54.259  31.071  53.560  0.00  0.00    -0.038 NA
ATOM     16  N   UNL d   1      53.704  30.725  53.053  0.00  0.00    -0.022 NA
ATOM     17  N   UNL d   1      53.106  31.282  52.882  0.00  0.00    -0.101 NA
BRANCH  14  18
ATOM     18  C   UNL d   1      54.322  32.468  54.165  0.00  0.00     0.087 A 
ATOM     19  C   UNL d   1      54.760  32.905  53.884  0.00  0.00     0.019 A 
ATOM     20  C   UNL d   1      55.065  33.512  54.324  0.00  0.00     0.002 A 
ATOM     21  C   UNL d   1      54.858  33.628  55.138  0.00  0.00     0.000 A 
ATOM     22  C   UNL d   1      54.438  33.201  55.391  0.00  0.00     0.002 A 
ATOM     23  C   UNL d   1      54.115  32.584  54.979  0.00  0.00     0.019 A 
ENDBRANCH  14  18
ENDBRANCH   1  13
TORSDOF 3
ENDMDL
