MODEL 1
REMARK VINA RESULT:      -6.7      0.000      0.000
REMARK  6 active torsions:
REMARK  status: ('A' for Active; 'I' for Inactive)
REMARK    1  A    between atoms: N_4  and  C_1 
REMARK       I    between atoms: C_7  and  N_4 
REMARK    2  A    between atoms: C_8  and  C_7 
REMARK    3  A    between atoms: C_11  and  C_8 
REMARK    4  A    between atoms: C_10  and  O_17 
REMARK    5  A    between atoms: O_17  and  C_11 
REMARK    6  A    between atoms: O_18  and  C_12 
ROOT
ATOM      1  C   UNL d   1     -47.221  11.763  23.673  0.00  0.00     0.089 C 
ENDROOT
BRANCH   1   2
ATOM      2  C   UNL d   1     -46.415  11.713  23.494  0.00  0.00     0.283 C 
ATOM      3  N   UNL d   1     -45.999  11.027  23.689  0.00  0.00    -0.186 NA
ATOM      4  O   UNL d   1     -46.033  12.335  23.129  0.00  0.00    -0.265 OA
BRANCH   3   5
ATOM      5  C   UNL d   1     -45.203  10.972  23.515  0.00  0.00     0.194 A 
ATOM      6  N   UNL d   1     -44.742  11.552  23.142  0.00  0.00    -0.107 NA
ATOM      7  O   UNL d   1     -43.978  11.262  23.081  0.00  0.00    -0.210 OA
ATOM      8  C   UNL d   1     -43.957  10.517  23.407  0.00  0.00     0.128 A 
ATOM      9  C   UNL d   1     -44.718  10.330  23.680  0.00  0.00     0.068 A 
ATOM     10  C   UNL d   1     -43.300  10.026  23.462  0.00  0.00     0.029 C 
ENDBRANCH   3   5
ENDBRANCH   1   2
BRANCH   1  11
ATOM     11  C   UNL d   1     -47.683  12.324  23.294  0.00  0.00     0.128 C 
BRANCH  11  12
ATOM     12  O   UNL d   1     -48.447  12.210  23.592  0.00  0.00    -0.305 OA
BRANCH  12  13
ATOM     13  C   UNL d   1     -49.084  12.605  23.257  0.00  0.00     0.100 A 
ATOM     14  C   UNL d   1     -49.839  12.269  23.282  0.00  0.00     0.027 A 
ATOM     15  C   UNL d   1     -50.483  12.661  22.948  0.00  0.00     0.026 A 
ATOM     16  C   UNL d   1     -50.362  13.393  22.588  0.00  0.00     0.094 A 
ATOM     17  C   UNL d   1     -49.607  13.729  22.563  0.00  0.00     0.026 A 
ATOM     18  C   UNL d   1     -48.970  13.334  22.898  0.00  0.00     0.027 A 
BRANCH  16  19
ATOM     19  O   UNL d   1     -51.011  13.794  22.248  0.00  0.00    -0.328 OA
ATOM     20  C   UNL d   1     -50.950  14.081  21.477  0.00  0.00     0.181 C 
ENDBRANCH  16  19
ENDBRANCH  12  13
ENDBRANCH  11  12
ENDBRANCH   1  11
TORSDOF 6
ENDMDL
MODEL 2
REMARK VINA RESULT:      -6.6      2.052      2.285
REMARK  6 active torsions:
REMARK  status: ('A' for Active; 'I' for Inactive)
REMARK    1  A    between atoms: N_4  and  C_1 
REMARK       I    between atoms: C_7  and  N_4 
REMARK    2  A    between atoms: C_8  and  C_7 
REMARK    3  A    between atoms: C_11  and  C_8 
REMARK    4  A    between atoms: C_10  and  O_17 
REMARK    5  A    between atoms: O_17  and  C_11 
REMARK    6  A    between atoms: O_18  and  C_12 
ROOT
ATOM      1  C   UNL d   1     -46.809  13.166  22.438  0.00  0.00     0.089 C 
ENDROOT
BRANCH   1   2
ATOM      2  C   UNL d   1     -45.984  13.108  22.455  0.00  0.00     0.283 C 
ATOM      3  N   UNL d   1     -45.596  12.682  21.864  0.00  0.00    -0.186 NA
ATOM      4  O   UNL d   1     -45.556  13.468  23.050  0.00  0.00    -0.265 OA
BRANCH   3   5
ATOM      5  C   UNL d   1     -44.782  12.621  21.875  0.00  0.00     0.194 A 
ATOM      6  N   UNL d   1     -44.334  12.131  22.372  0.00  0.00    -0.107 NA
ATOM      7  O   UNL d   1     -43.543  12.251  22.192  0.00  0.00    -0.210 OA
ATOM      8  C   UNL d   1     -43.493  12.802  21.597  0.00  0.00     0.128 A 
ATOM      9  C   UNL d   1     -44.263  13.038  21.395  0.00  0.00     0.068 A 
ATOM     10  C   UNL d   1     -42.804  13.085  21.250  0.00  0.00     0.029 C 
ENDBRANCH   3   5
ENDBRANCH   1   2
BRANCH   1  11
ATOM     11  C   UNL d   1     -47.169  13.859  22.687  0.00  0.00     0.128 C 
BRANCH  11  12
ATOM     12  O   UNL d   1     -47.939  13.821  22.387  0.00  0.00    -0.305 OA
BRANCH  12  13
ATOM     13  C   UNL d   1     -48.513  14.344  22.655  0.00  0.00     0.100 A 
ATOM     14  C   UNL d   1     -49.071  14.095  23.213  0.00  0.00     0.027 A 
ATOM     15  C   UNL d   1     -49.650  14.614  23.486  0.00  0.00     0.026 A 
ATOM     16  C   UNL d   1     -49.664  15.386  23.195  0.00  0.00     0.094 A 
ATOM     17  C   UNL d   1     -49.105  15.635  22.638  0.00  0.00     0.026 A 
ATOM     18  C   UNL d   1     -48.532  15.112  22.369  0.00  0.00     0.027 A 
BRANCH  16  19
ATOM     19  O   UNL d   1     -50.247  15.917  23.469  0.00  0.00    -0.328 OA
ATOM     20  C   UNL d   1     -51.040  15.688  23.454  0.00  0.00     0.181 C 
ENDBRANCH  16  19
ENDBRANCH  12  13
ENDBRANCH  11  12
ENDBRANCH   1  11
TORSDOF 6
ENDMDL
MODEL 3
REMARK VINA RESULT:      -5.7      2.038      5.625
REMARK  6 active torsions:
REMARK  status: ('A' for Active; 'I' for Inactive)
REMARK    1  A    between atoms: N_4  and  C_1 
REMARK       I    between atoms: C_7  and  N_4 
REMARK    2  A    between atoms: C_8  and  C_7 
REMARK    3  A    between atoms: C_11  and  C_8 
REMARK    4  A    between atoms: C_10  and  O_17 
REMARK    5  A    between atoms: O_17  and  C_11 
REMARK    6  A    between atoms: O_18  and  C_12 
ROOT
ATOM      1  C   UNL d   1     -47.464  13.808  22.870  0.00  0.00     0.089 C 
ENDROOT
BRANCH   1   2
ATOM      2  C   UNL d   1     -48.266  14.001  22.933  0.00  0.00     0.283 C 
ATOM      3  N   UNL d   1     -48.534  14.722  22.632  0.00  0.00    -0.186 NA
ATOM      4  O   UNL d   1     -48.789  13.486  23.290  0.00  0.00    -0.265 OA
BRANCH   3   5
ATOM      5  C   UNL d   1     -49.325  14.918  22.691  0.00  0.00     0.194 A 
ATOM      6  N   UNL d   1     -49.923  14.706  22.158  0.00  0.00    -0.107 NA
ATOM      7  O   UNL d   1     -50.628  15.020  22.437  0.00  0.00    -0.210 OA
ATOM      8  C   UNL d   1     -50.477  15.421  23.128  0.00  0.00     0.128 A 
ATOM      9  C   UNL d   1     -49.665  15.361  23.293  0.00  0.00     0.068 A 
ATOM     10  C   UNL d   1     -51.026  15.819  23.592  0.00  0.00     0.029 C 
ENDBRANCH   3   5
ENDBRANCH   1   2
BRANCH   1  11
ATOM     11  C   UNL d   1     -47.189  13.116  23.211  0.00  0.00     0.128 C 
BRANCH  11  12
ATOM     12  O   UNL d   1     -46.475  12.955  22.824  0.00  0.00    -0.305 OA
BRANCH  12  13
ATOM     13  C   UNL d   1     -46.033  12.295  23.032  0.00  0.00     0.100 A 
ATOM     14  C   UNL d   1     -46.382  11.682  23.464  0.00  0.00     0.027 A 
ATOM     15  C   UNL d   1     -45.943  11.017  23.676  0.00  0.00     0.026 A 
ATOM     16  C   UNL d   1     -45.151  10.972  23.451  0.00  0.00     0.094 A 
ATOM     17  C   UNL d   1     -44.802  11.585  23.019  0.00  0.00     0.026 A 
ATOM     18  C   UNL d   1     -45.244  12.245  22.811  0.00  0.00     0.027 A 
BRANCH  16  19
ATOM     19  O   UNL d   1     -44.702  10.301  23.663  0.00  0.00    -0.328 OA
ATOM     20  C   UNL d   1     -44.012  10.127  23.245  0.00  0.00     0.181 C 
ENDBRANCH  16  19
ENDBRANCH  12  13
ENDBRANCH  11  12
ENDBRANCH   1  11
TORSDOF 6
ENDMDL
MODEL 4
REMARK VINA RESULT:      -5.3      4.355      7.107
REMARK  6 active torsions:
REMARK  status: ('A' for Active; 'I' for Inactive)
REMARK    1  A    between atoms: N_4  and  C_1 
REMARK       I    between atoms: C_7  and  N_4 
REMARK    2  A    between atoms: C_8  and  C_7 
REMARK    3  A    between atoms: C_11  and  C_8 
REMARK    4  A    between atoms: C_10  and  O_17 
REMARK    5  A    between atoms: O_17  and  C_11 
REMARK    6  A    between atoms: O_18  and  C_12 
ROOT
ATOM      1  C   UNL d   1     -43.094  13.021  21.155  0.00  0.00     0.089 C 
ENDROOT
BRANCH   1   2
ATOM      2  C   UNL d   1     -43.671  12.751  21.681  0.00  0.00     0.283 C 
ATOM      3  N   UNL d   1     -44.388  13.158  21.741  0.00  0.00    -0.186 NA
ATOM      4  O   UNL d   1     -43.536  12.088  22.140  0.00  0.00    -0.265 OA
BRANCH   3   5
ATOM      5  C   UNL d   1     -44.961  12.895  22.259  0.00  0.00     0.194 A 
ATOM      6  N   UNL d   1     -44.899  12.246  22.771  0.00  0.00    -0.107 NA
ATOM      7  O   UNL d   1     -45.604  12.187  23.186  0.00  0.00    -0.210 OA
ATOM      8  C   UNL d   1     -46.098  12.785  22.943  0.00  0.00     0.128 A 
ATOM      9  C   UNL d   1     -45.703  13.231  22.364  0.00  0.00     0.068 A 
ATOM     10  C   UNL d   1     -46.859  12.931  23.216  0.00  0.00     0.029 C 
ENDBRANCH   3   5
ENDBRANCH   1   2
BRANCH   1  11
ATOM     11  C   UNL d   1     -42.412  13.368  21.449  0.00  0.00     0.128 C 
BRANCH  11  12
ATOM     12  O   UNL d   1     -42.037  13.698  20.789  0.00  0.00    -0.305 OA
BRANCH  12  13
ATOM     13  C   UNL d   1     -41.395  14.200  20.887  0.00  0.00     0.100 A 
ATOM     14  C   UNL d   1     -41.493  15.018  20.807  0.00  0.00     0.027 A 
ATOM     15  C   UNL d   1     -40.853  15.528  20.904  0.00  0.00     0.026 A 
ATOM     16  C   UNL d   1     -40.112  15.210  21.083  0.00  0.00     0.094 A 
ATOM     17  C   UNL d   1     -40.014  14.393  21.163  0.00  0.00     0.026 A 
ATOM     18  C   UNL d   1     -40.656  13.891  21.065  0.00  0.00     0.027 A 
BRANCH  16  19
ATOM     19  O   UNL d   1     -39.461  15.722  21.182  0.00  0.00    -0.328 OA
ATOM     20  C   UNL d   1     -38.943  15.845  20.552  0.00  0.00     0.181 C 
ENDBRANCH  16  19
ENDBRANCH  12  13
ENDBRANCH  11  12
ENDBRANCH   1  11
TORSDOF 6
ENDMDL
MODEL 5
REMARK VINA RESULT:      -5.1      1.542      5.525
REMARK  6 active torsions:
REMARK  status: ('A' for Active; 'I' for Inactive)
REMARK    1  A    between atoms: N_4  and  C_1 
REMARK       I    between atoms: C_7  and  N_4 
REMARK    2  A    between atoms: C_8  and  C_7 
REMARK    3  A    between atoms: C_11  and  C_8 
REMARK    4  A    between atoms: C_10  and  O_17 
REMARK    5  A    between atoms: O_17  and  C_11 
REMARK    6  A    between atoms: O_18  and  C_12 
ROOT
ATOM      1  C   UNL d   1     -48.044  11.465  23.413  0.00  0.00     0.089 C 
ENDROOT
BRANCH   1   2
ATOM      2  C   UNL d   1     -48.652  11.977  23.187  0.00  0.00     0.283 C 
ATOM      3  N   UNL d   1     -49.307  11.675  22.784  0.00  0.00    -0.186 NA
ATOM      4  O   UNL d   1     -48.608  12.774  23.361  0.00  0.00    -0.265 OA
BRANCH   3   5
ATOM      5  C   UNL d   1     -49.911  12.177  22.559  0.00  0.00     0.194 A 
ATOM      6  N   UNL d   1     -50.627  12.291  22.959  0.00  0.00    -0.107 NA
ATOM      7  O   UNL d   1     -51.064  12.842  22.536  0.00  0.00    -0.210 OA
ATOM      8  C   UNL d   1     -50.633  13.069  21.885  0.00  0.00     0.128 A 
ATOM      9  C   UNL d   1     -49.912  12.658  21.893  0.00  0.00     0.068 A 
ATOM     10  C   UNL d   1     -50.863  13.611  21.312  0.00  0.00     0.029 C 
ENDBRANCH   3   5
ENDBRANCH   1   2
BRANCH   1  11
ATOM     11  C   UNL d   1     -47.267  11.723  23.378  0.00  0.00     0.128 C 
BRANCH  11  12
ATOM     12  O   UNL d   1     -46.820  11.104  23.698  0.00  0.00    -0.305 OA
BRANCH  12  13
ATOM     13  C   UNL d   1     -46.017  11.047  23.534  0.00  0.00     0.100 A 
ATOM     14  C   UNL d   1     -45.615  11.690  23.204  0.00  0.00     0.027 A 
ATOM     15  C   UNL d   1     -44.809  11.639  23.037  0.00  0.00     0.026 A 
ATOM     16  C   UNL d   1     -44.410  10.936  23.204  0.00  0.00     0.094 A 
ATOM     17  C   UNL d   1     -44.812  10.293  23.534  0.00  0.00     0.026 A 
ATOM     18  C   UNL d   1     -45.615  10.351  23.698  0.00  0.00     0.027 A 
BRANCH  16  19
ATOM     19  O   UNL d   1     -43.594  10.879  23.037  0.00  0.00    -0.328 OA
ATOM     20  C   UNL d   1     -43.097  10.499  23.574  0.00  0.00     0.181 C 
ENDBRANCH  16  19
ENDBRANCH  12  13
ENDBRANCH  11  12
ENDBRANCH   1  11
TORSDOF 6
ENDMDL
MODEL 6
REMARK VINA RESULT:      -4.8      8.895     10.165
REMARK  6 active torsions:
REMARK  status: ('A' for Active; 'I' for Inactive)
REMARK    1  A    between atoms: N_4  and  C_1 
REMARK       I    between atoms: C_7  and  N_4 
REMARK    2  A    between atoms: C_8  and  C_7 
REMARK    3  A    between atoms: C_11  and  C_8 
REMARK    4  A    between atoms: C_10  and  O_17 
REMARK    5  A    between atoms: O_17  and  C_11 
REMARK    6  A    between atoms: O_18  and  C_12 
ROOT
ATOM      1  C   UNL d   1     -39.698  14.603  19.712  0.00  0.00     0.089 C 
ENDROOT
BRANCH   1   2
ATOM      2  C   UNL d   1     -39.376  14.619  20.473  0.00  0.00     0.283 C 
ATOM      3  N   UNL d   1     -39.662  14.098  21.046  0.00  0.00    -0.186 NA
ATOM      4  O   UNL d   1     -38.778  15.145  20.659  0.00  0.00    -0.265 OA
BRANCH   3   5
ATOM      5  C   UNL d   1     -39.347  14.110  21.800  0.00  0.00     0.194 A 
ATOM      6  N   UNL d   1     -39.346  14.756  22.320  0.00  0.00    -0.107 NA
ATOM      7  O   UNL d   1     -38.972  14.519  23.011  0.00  0.00    -0.210 OA
ATOM      8  C   UNL d   1     -38.743  13.743  22.927  0.00  0.00     0.128 A 
ATOM      9  C   UNL d   1     -38.973  13.482  22.174  0.00  0.00     0.068 A 
ATOM     10  C   UNL d   1     -38.350  13.287  23.487  0.00  0.00     0.029 C 
ENDBRANCH   3   5
ENDBRANCH   1   2
BRANCH   1  11
ATOM     11  C   UNL d   1     -39.207  14.704  19.064  0.00  0.00     0.128 C 
BRANCH  11  12
ATOM     12  O   UNL d   1     -39.645  14.430  18.418  0.00  0.00    -0.305 OA
BRANCH  12  13
ATOM     13  C   UNL d   1     -39.307  14.410  17.669  0.00  0.00     0.100 A 
ATOM     14  C   UNL d   1     -39.350  15.074  17.178  0.00  0.00     0.027 A 
ATOM     15  C   UNL d   1     -39.013  15.060  16.426  0.00  0.00     0.026 A 
ATOM     16  C   UNL d   1     -38.633  14.374  16.170  0.00  0.00     0.094 A 
ATOM     17  C   UNL d   1     -38.590  13.710  16.662  0.00  0.00     0.026 A 
ATOM     18  C   UNL d   1     -38.928  13.730  17.410  0.00  0.00     0.027 A 
BRANCH  16  19
ATOM     19  O   UNL d   1     -38.290  14.355  15.410  0.00  0.00    -0.328 OA
ATOM     20  C   UNL d   1     -37.945  13.656  15.139  0.00  0.00     0.181 C 
ENDBRANCH  16  19
ENDBRANCH  12  13
ENDBRANCH  11  12
ENDBRANCH   1  11
TORSDOF 6
ENDMDL
MODEL 7
REMARK VINA RESULT:      -4.6      9.226     10.392
REMARK  6 active torsions:
REMARK  status: ('A' for Active; 'I' for Inactive)
REMARK    1  A    between atoms: N_4  and  C_1 
REMARK       I    between atoms: C_7  and  N_4 
REMARK    2  A    between atoms: C_8  and  C_7 
REMARK    3  A    between atoms: C_11  and  C_8 
REMARK    4  A    between atoms: C_10  and  O_17 
REMARK    5  A    between atoms: O_17  and  C_11 
REMARK    6  A    between atoms: O_18  and  C_12 
ROOT
ATOM      1  C   UNL d   1     -39.501  14.614  19.002  0.00  0.00     0.089 C 
ENDROOT
BRANCH   1   2
ATOM      2  C   UNL d   1     -39.104  14.698  18.281  0.00  0.00     0.283 C 
ATOM      3  N   UNL d   1     -39.381  14.292  17.617  0.00  0.00    -0.186 NA
ATOM      4  O   UNL d   1     -38.445  15.177  18.224  0.00  0.00    -0.265 OA
BRANCH   3   5
ATOM      5  C   UNL d   1     -38.993  14.372  16.903  0.00  0.00     0.194 A 
ATOM      6  N   UNL d   1     -38.863  15.080  16.492  0.00  0.00    -0.107 NA
ATOM      7  O   UNL d   1     -38.453  14.898  15.805  0.00  0.00    -0.210 OA
ATOM      8  C   UNL d   1     -38.329  14.095  15.784  0.00  0.00     0.128 A 
ATOM      9  C   UNL d   1     -38.663  13.760  16.466  0.00  0.00     0.068 A 
ATOM     10  C   UNL d   1     -37.940  13.676  15.193  0.00  0.00     0.029 C 
ENDBRANCH   3   5
ENDBRANCH   1   2
BRANCH   1  11
ATOM     11  C   UNL d   1     -39.229  15.020  19.660  0.00  0.00     0.128 C 
BRANCH  11  12
ATOM     12  O   UNL d   1     -39.530  14.603  20.309  0.00  0.00    -0.305 OA
BRANCH  12  13
ATOM     13  C   UNL d   1     -39.401  14.877  21.072  0.00  0.00     0.100 A 
ATOM     14  C   UNL d   1     -39.069  14.377  21.641  0.00  0.00     0.027 A 
ATOM     15  C   UNL d   1     -38.936  14.646  22.409  0.00  0.00     0.026 A 
ATOM     16  C   UNL d   1     -39.140  15.422  22.601  0.00  0.00     0.094 A 
ATOM     17  C   UNL d   1     -39.472  15.922  22.032  0.00  0.00     0.026 A 
ATOM     18  C   UNL d   1     -39.601  15.648  21.269  0.00  0.00     0.027 A 
BRANCH  16  19
ATOM     19  O   UNL d   1     -39.008  15.699  23.377  0.00  0.00    -0.328 OA
ATOM     20  C   UNL d   1     -38.235  15.838  23.632  0.00  0.00     0.181 C 
ENDBRANCH  16  19
ENDBRANCH  12  13
ENDBRANCH  11  12
ENDBRANCH   1  11
TORSDOF 6
ENDMDL
MODEL 8
REMARK VINA RESULT:      -4.3      8.891      9.165
REMARK  6 active torsions:
REMARK  status: ('A' for Active; 'I' for Inactive)
REMARK    1  A    between atoms: N_4  and  C_1 
REMARK       I    between atoms: C_7  and  N_4 
REMARK    2  A    between atoms: C_8  and  C_7 
REMARK    3  A    between atoms: C_11  and  C_8 
REMARK    4  A    between atoms: C_10  and  O_17 
REMARK    5  A    between atoms: O_17  and  C_11 
REMARK    6  A    between atoms: O_18  and  C_12 
ROOT
ATOM      1  C   UNL d   1     -39.203  14.583  19.624  0.00  0.00     0.089 C 
ENDROOT
BRANCH   1   2
ATOM      2  C   UNL d   1     -39.084  14.696  20.434  0.00  0.00     0.283 C 
ATOM      3  N   UNL d   1     -39.070  14.040  20.937  0.00  0.00    -0.186 NA
ATOM      4  O   UNL d   1     -38.980  15.447  20.737  0.00  0.00    -0.265 OA
BRANCH   3   5
ATOM      5  C   UNL d   1     -38.953  14.146  21.738  0.00  0.00     0.194 A 
ATOM      6  N   UNL d   1     -39.104  14.839  22.168  0.00  0.00    -0.107 NA
ATOM      7  O   UNL d   1     -38.905  14.695  22.951  0.00  0.00    -0.210 OA
ATOM      8  C   UNL d   1     -38.637  13.930  23.013  0.00  0.00     0.128 A 
ATOM      9  C   UNL d   1     -38.663  13.582  22.259  0.00  0.00     0.068 A 
ATOM     10  C   UNL d   1     -38.380  13.557  23.698  0.00  0.00     0.029 C 
ENDBRANCH   3   5
ENDBRANCH   1   2
BRANCH   1  11
ATOM     11  C   UNL d   1     -39.779  15.019  19.237  0.00  0.00     0.128 C 
BRANCH  11  12
ATOM     12  O   UNL d   1     -40.005  14.553  18.592  0.00  0.00    -0.305 OA
BRANCH  12  13
ATOM     13  C   UNL d   1     -40.393  14.893  17.953  0.00  0.00     0.100 A 
ATOM     14  C   UNL d   1     -40.955  15.486  18.078  0.00  0.00     0.027 A 
ATOM     15  C   UNL d   1     -41.348  15.831  17.441  0.00  0.00     0.026 A 
ATOM     16  C   UNL d   1     -41.171  15.576  16.676  0.00  0.00     0.094 A 
ATOM     17  C   UNL d   1     -40.609  14.983  16.551  0.00  0.00     0.026 A 
ATOM     18  C   UNL d   1     -40.221  14.643  17.191  0.00  0.00     0.027 A 
BRANCH  16  19
ATOM     19  O   UNL d   1     -41.566  15.922  16.027  0.00  0.00    -0.328 OA
ATOM     20  C   UNL d   1     -42.387  15.862  15.974  0.00  0.00     0.181 C 
ENDBRANCH  16  19
ENDBRANCH  12  13
ENDBRANCH  11  12
ENDBRANCH   1  11
TORSDOF 6
ENDMDL
MODEL 9
REMARK VINA RESULT:      -4.2      8.907     10.327
REMARK  6 active torsions:
REMARK  status: ('A' for Active; 'I' for Inactive)
REMARK    1  A    between atoms: N_4  and  C_1 
REMARK       I    between atoms: C_7  and  N_4 
REMARK    2  A    between atoms: C_8  and  C_7 
REMARK    3  A    between atoms: C_11  and  C_8 
REMARK    4  A    between atoms: C_10  and  O_17 
REMARK    5  A    between atoms: O_17  and  C_11 
REMARK    6  A    between atoms: O_18  and  C_12 
ROOT
ATOM      1  C   UNL d   1     -39.232  15.766  19.489  0.00  0.00     0.089 C 
ENDROOT
BRANCH   1   2
ATOM      2  C   UNL d   1     -39.480  15.764  18.700  0.00  0.00     0.283 C 
ATOM      3  N   UNL d   1     -40.276  15.901  18.526  0.00  0.00    -0.186 NA
ATOM      4  O   UNL d   1     -38.945  15.628  18.098  0.00  0.00    -0.265 OA
BRANCH   3   5
ATOM      5  C   UNL d   1     -40.526  15.901  17.748  0.00  0.00     0.194 A 
ATOM      6  N   UNL d   1     -40.040  15.884  17.077  0.00  0.00    -0.107 NA
ATOM      7  O   UNL d   1     -40.526  15.890  16.417  0.00  0.00    -0.210 OA
ATOM      8  C   UNL d   1     -41.300  15.910  16.666  0.00  0.00     0.128 A 
ATOM      9  C   UNL d   1     -41.307  15.917  17.496  0.00  0.00     0.068 A 
ATOM     10  C   UNL d   1     -41.967  15.921  16.186  0.00  0.00     0.029 C 
ENDBRANCH   3   5
ENDBRANCH   1   2
BRANCH   1  11
ATOM     11  C   UNL d   1     -38.918  15.082  19.814  0.00  0.00     0.128 C 
BRANCH  11  12
ATOM     12  O   UNL d   1     -39.283  15.006  20.552  0.00  0.00    -0.305 OA
BRANCH  12  13
ATOM     13  C   UNL d   1     -39.004  14.459  21.097  0.00  0.00     0.100 A 
ATOM     14  C   UNL d   1     -38.227  14.180  21.042  0.00  0.00     0.027 A 
ATOM     15  C   UNL d   1     -37.940  13.631  21.585  0.00  0.00     0.026 A 
ATOM     16  C   UNL d   1     -38.440  13.364  22.186  0.00  0.00     0.094 A 
ATOM     17  C   UNL d   1     -39.216  13.643  22.241  0.00  0.00     0.026 A 
ATOM     18  C   UNL d   1     -39.496  14.190  21.696  0.00  0.00     0.027 A 
BRANCH  16  19
ATOM     19  O   UNL d   1     -38.154  12.808  22.739  0.00  0.00    -0.328 OA
ATOM     20  C   UNL d   1     -38.044  13.038  23.524  0.00  0.00     0.181 C 
ENDBRANCH  16  19
ENDBRANCH  12  13
ENDBRANCH  11  12
ENDBRANCH   1  11
TORSDOF 6
ENDMDL
