MODEL 1
REMARK VINA RESULT:      -8.6      0.000      0.000
REMARK  2 active torsions:
REMARK  status: ('A' for Active; 'I' for Inactive)
REMARK    1  A    between atoms: C_9  and  C_1 
REMARK    2  A    between atoms: C_18  and  N_6 
ROOT
ATOM      1  C   UNL d   1     -47.086  13.350  23.015  0.00  0.00     0.121 A 
ATOM      2  C   UNL d   1     -48.261  12.569  23.269  0.00  0.00     0.057 A 
ATOM      3  C   UNL d   1     -47.433  12.616  23.206  0.00  0.00     0.204 A 
ATOM      4  C   UNL d   1     -48.742  13.236  23.146  0.00  0.00     0.069 A 
ATOM      5  C   UNL d   1     -47.559  14.022  22.890  0.00  0.00     0.089 A 
ATOM      6  N   UNL d   1     -48.386  13.961  22.956  0.00  0.00    -0.303 N 
ATOM      7  C   UNL d   1     -49.553  13.174  23.211  0.00  0.00     0.044 A 
ATOM      8  C   UNL d   1     -48.615  11.844  23.458  0.00  0.00     0.031 A 
ATOM      9  C   UNL d   1     -49.902  12.455  23.399  0.00  0.00     0.121 A 
ATOM     10  C   UNL d   1     -49.433  11.790  23.522  0.00  0.00     0.119 A 
ATOM     11  O   UNL d   1     -50.686  12.240  23.498  0.00  0.00    -0.299 OA
ATOM     12  O   UNL d   1     -49.928  11.164  23.698  0.00  0.00    -0.300 OA
ATOM     13  O   UNL d   1     -46.964  11.951  23.330  0.00  0.00    -0.286 OA
ATOM     14  C   UNL d   1     -50.700  11.436  23.684  0.00  0.00     0.304 A 
ENDROOT
BRANCH   1  15
ATOM     15  C   UNL d   1     -46.265  13.407  22.950  0.00  0.00     0.215 C 
ATOM     16  O   UNL d   1     -45.812  13.585  23.613  0.00  0.00    -0.644 OA
ATOM     17  O   UNL d   1     -45.901  13.286  22.223  0.00  0.00    -0.644 OA
ENDBRANCH   1  15
BRANCH   6  18
ATOM     18  C   UNL d   1     -48.855  14.626  22.832  0.00  0.00     0.080 C 
ATOM     19  C   UNL d   1     -48.574  15.244  22.357  0.00  0.00     0.021 C 
ENDBRANCH   6  18
TORSDOF 2
ENDMDL
MODEL 2
REMARK VINA RESULT:      -8.6      1.293      2.437
REMARK  2 active torsions:
REMARK  status: ('A' for Active; 'I' for Inactive)
REMARK    1  A    between atoms: C_9  and  C_1 
REMARK    2  A    between atoms: C_18  and  N_6 
ROOT
ATOM      1  C   UNL d   1     -47.125  13.506  22.944  0.00  0.00     0.121 A 
ATOM      2  C   UNL d   1     -48.331  14.277  22.867  0.00  0.00     0.057 A 
ATOM      3  C   UNL d   1     -47.503  14.237  22.809  0.00  0.00     0.204 A 
ATOM      4  C   UNL d   1     -48.783  13.605  23.055  0.00  0.00     0.069 A 
ATOM      5  C   UNL d   1     -47.569  12.829  23.132  0.00  0.00     0.089 A 
ATOM      6  N   UNL d   1     -48.398  12.882  23.187  0.00  0.00    -0.303 N 
ATOM      7  C   UNL d   1     -49.596  13.659  23.109  0.00  0.00     0.044 A 
ATOM      8  C   UNL d   1     -48.716  14.999  22.736  0.00  0.00     0.031 A 
ATOM      9  C   UNL d   1     -49.975  14.376  22.978  0.00  0.00     0.121 A 
ATOM     10  C   UNL d   1     -49.535  15.046  22.792  0.00  0.00     0.119 A 
ATOM     11  O   UNL d   1     -50.767  14.584  22.995  0.00  0.00    -0.299 OA
ATOM     12  O   UNL d   1     -50.056  15.668  22.694  0.00  0.00    -0.300 OA
ATOM     13  O   UNL d   1     -47.063  14.907  22.623  0.00  0.00    -0.286 OA
ATOM     14  C   UNL d   1     -50.815  15.389  22.818  0.00  0.00     0.304 A 
ENDROOT
BRANCH   1  15
ATOM     15  C   UNL d   1     -46.303  13.456  22.888  0.00  0.00     0.215 C 
ATOM     16  O   UNL d   1     -45.949  13.293  22.164  0.00  0.00    -0.644 OA
ATOM     17  O   UNL d   1     -45.839  13.571  23.557  0.00  0.00    -0.644 OA
ENDBRANCH   1  15
BRANCH   6  18
ATOM     18  C   UNL d   1     -48.838  12.212  23.373  0.00  0.00     0.080 C 
ATOM     19  C   UNL d   1     -48.451  11.525  23.630  0.00  0.00     0.021 C 
ENDBRANCH   6  18
TORSDOF 2
ENDMDL
MODEL 3
REMARK VINA RESULT:      -8.5      1.501      2.916
REMARK  2 active torsions:
REMARK  status: ('A' for Active; 'I' for Inactive)
REMARK    1  A    between atoms: C_9  and  C_1 
REMARK    2  A    between atoms: C_18  and  N_6 
ROOT
ATOM      1  C   UNL d   1     -48.721  14.135  22.865  0.00  0.00     0.121 A 
ATOM      2  C   UNL d   1     -47.641  13.231  23.137  0.00  0.00     0.057 A 
ATOM      3  C   UNL d   1     -47.902  13.998  22.949  0.00  0.00     0.204 A 
ATOM      4  C   UNL d   1     -48.179  12.606  23.242  0.00  0.00     0.069 A 
ATOM      5  C   UNL d   1     -49.265  13.515  22.968  0.00  0.00     0.089 A 
ATOM      6  N   UNL d   1     -48.991  12.753  23.156  0.00  0.00    -0.303 N 
ATOM      7  C   UNL d   1     -47.908  11.858  23.426  0.00  0.00     0.044 A 
ATOM      8  C   UNL d   1     -46.830  13.085  23.222  0.00  0.00     0.031 A 
ATOM      9  C   UNL d   1     -47.104  11.717  23.510  0.00  0.00     0.121 A 
ATOM     10  C   UNL d   1     -46.565  12.330  23.408  0.00  0.00     0.119 A 
ATOM     11  O   UNL d   1     -46.687  11.034  23.690  0.00  0.00    -0.299 OA
ATOM     12  O   UNL d   1     -45.815  12.026  23.525  0.00  0.00    -0.300 OA
ATOM     13  O   UNL d   1     -47.363  14.611  22.847  0.00  0.00    -0.286 OA
ATOM     14  C   UNL d   1     -45.885  11.230  23.698  0.00  0.00     0.304 A 
ENDROOT
BRANCH   1  15
ATOM     15  C   UNL d   1     -48.990  14.892  22.678  0.00  0.00     0.215 C 
ATOM     16  O   UNL d   1     -49.202  15.413  23.280  0.00  0.00    -0.644 OA
ATOM     17  O   UNL d   1     -49.045  15.126  21.892  0.00  0.00    -0.644 OA
ENDBRANCH   1  15
BRANCH   6  18
ATOM     18  C   UNL d   1     -49.530  12.139  23.258  0.00  0.00     0.080 C 
ATOM     19  C   UNL d   1     -50.323  12.249  23.042  0.00  0.00     0.021 C 
ENDBRANCH   6  18
TORSDOF 2
ENDMDL
MODEL 4
REMARK VINA RESULT:      -8.5      0.916      3.032
REMARK  2 active torsions:
REMARK  status: ('A' for Active; 'I' for Inactive)
REMARK    1  A    between atoms: C_9  and  C_1 
REMARK    2  A    between atoms: C_18  and  N_6 
ROOT
ATOM      1  C   UNL d   1     -49.543  12.665  23.029  0.00  0.00     0.121 A 
ATOM      2  C   UNL d   1     -48.259  12.078  23.279  0.00  0.00     0.057 A 
ATOM      3  C   UNL d   1     -49.083  11.993  23.213  0.00  0.00     0.204 A 
ATOM      4  C   UNL d   1     -47.891  12.814  23.165  0.00  0.00     0.069 A 
ATOM      5  C   UNL d   1     -49.183  13.405  22.914  0.00  0.00     0.089 A 
ATOM      6  N   UNL d   1     -48.357  13.475  22.982  0.00  0.00    -0.303 N 
ATOM      7  C   UNL d   1     -47.080  12.882  23.233  0.00  0.00     0.044 A 
ATOM      8  C   UNL d   1     -47.794  11.417  23.461  0.00  0.00     0.031 A 
ATOM      9  C   UNL d   1     -46.621  12.226  23.413  0.00  0.00     0.121 A 
ATOM     10  C   UNL d   1     -46.978  11.493  23.528  0.00  0.00     0.119 A 
ATOM     11  O   UNL d   1     -45.813  12.137  23.513  0.00  0.00    -0.299 OA
ATOM     12  O   UNL d   1     -46.390  10.952  23.698  0.00  0.00    -0.300 OA
ATOM     13  O   UNL d   1     -49.440  11.260  23.327  0.00  0.00    -0.286 OA
ATOM     14  C   UNL d   1     -45.671  11.343  23.690  0.00  0.00     0.304 A 
ENDROOT
BRANCH   1  15
ATOM     15  C   UNL d   1     -50.363  12.590  22.962  0.00  0.00     0.215 C 
ATOM     16  O   UNL d   1     -50.840  12.685  23.626  0.00  0.00    -0.644 OA
ATOM     17  O   UNL d   1     -50.701  12.422  22.232  0.00  0.00    -0.644 OA
ENDBRANCH   1  15
BRANCH   6  18
ATOM     18  C   UNL d   1     -48.000  14.208  22.868  0.00  0.00     0.080 C 
ATOM     19  C   UNL d   1     -48.456  14.853  22.616  0.00  0.00     0.021 C 
ENDBRANCH   6  18
TORSDOF 2
ENDMDL
MODEL 5
REMARK VINA RESULT:      -8.1      1.447      2.693
REMARK  2 active torsions:
REMARK  status: ('A' for Active; 'I' for Inactive)
REMARK    1  A    between atoms: C_9  and  C_1 
REMARK    2  A    between atoms: C_18  and  N_6 
ROOT
ATOM      1  C   UNL d   1     -48.426  12.273  23.028  0.00  0.00     0.121 A 
ATOM      2  C   UNL d   1     -49.251  13.433  23.204  0.00  0.00     0.057 A 
ATOM      3  C   UNL d   1     -49.176  12.605  23.185  0.00  0.00     0.204 A 
ATOM      4  C   UNL d   1     -48.598  13.929  23.070  0.00  0.00     0.069 A 
ATOM      5  C   UNL d   1     -47.768  12.762  22.893  0.00  0.00     0.089 A 
ATOM      6  N   UNL d   1     -47.858  13.589  22.915  0.00  0.00    -0.303 N 
ATOM      7  C   UNL d   1     -48.687  14.740  23.091  0.00  0.00     0.044 A 
ATOM      8  C   UNL d   1     -49.991  13.772  23.359  0.00  0.00     0.031 A 
ATOM      9  C   UNL d   1     -49.422  15.074  23.245  0.00  0.00     0.121 A 
ATOM     10  C   UNL d   1     -50.074  14.589  23.379  0.00  0.00     0.119 A 
ATOM     11  O   UNL d   1     -49.665  15.854  23.298  0.00  0.00    -0.299 OA
ATOM     12  O   UNL d   1     -50.720  15.071  23.515  0.00  0.00    -0.300 OA
ATOM     13  O   UNL d   1     -49.828  12.121  23.319  0.00  0.00    -0.286 OA
ATOM     14  C   UNL d   1     -50.474  15.850  23.466  0.00  0.00     0.304 A 
ENDROOT
BRANCH   1  15
ATOM     15  C   UNL d   1     -48.341  11.453  23.007  0.00  0.00     0.215 C 
ATOM     16  O   UNL d   1     -48.441  11.047  22.298  0.00  0.00    -0.644 OA
ATOM     17  O   UNL d   1     -48.157  11.042  23.695  0.00  0.00    -0.644 OA
ENDBRANCH   1  15
BRANCH   6  18
ATOM     18  C   UNL d   1     -47.206  14.073  22.781  0.00  0.00     0.080 C 
ATOM     19  C   UNL d   1     -46.449  13.739  22.729  0.00  0.00     0.021 C 
ENDBRANCH   6  18
TORSDOF 2
ENDMDL
MODEL 6
REMARK VINA RESULT:      -6.0      9.140     10.024
REMARK  2 active torsions:
REMARK  status: ('A' for Active; 'I' for Inactive)
REMARK    1  A    between atoms: C_9  and  C_1 
REMARK    2  A    between atoms: C_18  and  N_6 
ROOT
ATOM      1  C   UNL d   1     -40.282  14.992  17.634  0.00  0.00     0.121 A 
ATOM      2  C   UNL d   1     -40.159  14.979  19.063  0.00  0.00     0.057 A 
ATOM      3  C   UNL d   1     -40.499  15.304  18.377  0.00  0.00     0.204 A 
ATOM      4  C   UNL d   1     -39.612  14.355  19.019  0.00  0.00     0.069 A 
ATOM      5  C   UNL d   1     -39.736  14.368  17.582  0.00  0.00     0.089 A 
ATOM      6  N   UNL d   1     -39.403  14.052  18.276  0.00  0.00    -0.303 N 
ATOM      7  C   UNL d   1     -39.285  14.047  19.701  0.00  0.00     0.044 A 
ATOM      8  C   UNL d   1     -40.367  15.283  19.805  0.00  0.00     0.031 A 
ATOM      9  C   UNL d   1     -39.494  14.349  20.435  0.00  0.00     0.121 A 
ATOM     10  C   UNL d   1     -40.035  14.967  20.487  0.00  0.00     0.119 A 
ATOM     11  O   UNL d   1     -39.258  14.149  21.194  0.00  0.00    -0.299 OA
ATOM     12  O   UNL d   1     -40.133  15.148  21.278  0.00  0.00    -0.300 OA
ATOM     13  O   UNL d   1     -41.040  15.922  18.429  0.00  0.00    -0.286 OA
ATOM     14  C   UNL d   1     -39.657  14.648  21.717  0.00  0.00     0.304 A 
ENDROOT
BRANCH   1  15
ATOM     15  C   UNL d   1     -40.614  15.307  16.948  0.00  0.00     0.215 C 
ATOM     16  O   UNL d   1     -40.236  15.922  16.553  0.00  0.00    -0.644 OA
ATOM     17  O   UNL d   1     -41.323  15.007  16.660  0.00  0.00    -0.644 OA
ENDBRANCH   1  15
BRANCH   6  18
ATOM     18  C   UNL d   1     -38.862  13.434  18.224  0.00  0.00     0.080 C 
ATOM     19  C   UNL d   1     -38.699  13.092  17.487  0.00  0.00     0.021 C 
ENDBRANCH   6  18
TORSDOF 2
ENDMDL
MODEL 7
REMARK VINA RESULT:      -5.8      8.708      9.865
REMARK  2 active torsions:
REMARK  status: ('A' for Active; 'I' for Inactive)
REMARK    1  A    between atoms: C_9  and  C_1 
REMARK    2  A    between atoms: C_18  and  N_6 
ROOT
ATOM      1  C   UNL d   1     -39.307  13.941  17.902  0.00  0.00     0.121 A 
ATOM      2  C   UNL d   1     -39.645  14.474  19.189  0.00  0.00     0.057 A 
ATOM      3  C   UNL d   1     -39.182  13.962  18.727  0.00  0.00     0.204 A 
ATOM      4  C   UNL d   1     -40.226  14.959  18.846  0.00  0.00     0.069 A 
ATOM      5  C   UNL d   1     -39.885  14.423  17.550  0.00  0.00     0.089 A 
ATOM      6  N   UNL d   1     -40.343  14.931  18.025  0.00  0.00    -0.303 N 
ATOM      7  C   UNL d   1     -40.674  15.457  19.313  0.00  0.00     0.044 A 
ATOM      8  C   UNL d   1     -39.528  14.502  20.009  0.00  0.00     0.031 A 
ATOM      9  C   UNL d   1     -40.555  15.483  20.125  0.00  0.00     0.121 A 
ATOM     10  C   UNL d   1     -39.983  15.006  20.473  0.00  0.00     0.119 A 
ATOM     11  O   UNL d   1     -40.918  15.922  20.714  0.00  0.00    -0.299 OA
ATOM     12  O   UNL d   1     -39.992  15.150  21.278  0.00  0.00    -0.300 OA
ATOM     13  O   UNL d   1     -38.609  13.485  19.075  0.00  0.00    -0.286 OA
ATOM     14  C   UNL d   1     -40.566  15.712  21.431  0.00  0.00     0.304 A 
ENDROOT
BRANCH   1  15
ATOM     15  C   UNL d   1     -38.852  13.436  17.434  0.00  0.00     0.215 C 
ATOM     16  O   UNL d   1     -38.173  13.719  17.065  0.00  0.00    -0.644 OA
ATOM     17  O   UNL d   1     -39.077  12.652  17.338  0.00  0.00    -0.644 OA
ENDBRANCH   1  15
BRANCH   6  18
ATOM     18  C   UNL d   1     -40.916  15.408  17.677  0.00  0.00     0.080 C 
ATOM     19  C   UNL d   1     -40.991  15.424  16.851  0.00  0.00     0.021 C 
ENDBRANCH   6  18
TORSDOF 2
ENDMDL
MODEL 8
REMARK VINA RESULT:      -5.7      9.647     10.297
REMARK  2 active torsions:
REMARK  status: ('A' for Active; 'I' for Inactive)
REMARK    1  A    between atoms: C_9  and  C_1 
REMARK    2  A    between atoms: C_18  and  N_6 
ROOT
ATOM      1  C   UNL d   1     -38.969  14.246  19.590  0.00  0.00     0.121 A 
ATOM      2  C   UNL d   1     -39.901  14.846  18.680  0.00  0.00     0.057 A 
ATOM      3  C   UNL d   1     -39.578  14.799  19.445  0.00  0.00     0.204 A 
ATOM      4  C   UNL d   1     -39.631  14.357  18.066  0.00  0.00     0.069 A 
ATOM      5  C   UNL d   1     -38.693  13.753  18.981  0.00  0.00     0.089 A 
ATOM      6  N   UNL d   1     -39.026  13.811  18.221  0.00  0.00    -0.303 N 
ATOM      7  C   UNL d   1     -39.958  14.415  17.320  0.00  0.00     0.044 A 
ATOM      8  C   UNL d   1     -40.505  15.392  18.526  0.00  0.00     0.031 A 
ATOM      9  C   UNL d   1     -40.557  14.957  17.170  0.00  0.00     0.121 A 
ATOM     10  C   UNL d   1     -40.830  15.445  17.773  0.00  0.00     0.119 A 
ATOM     11  O   UNL d   1     -40.976  15.129  16.488  0.00  0.00    -0.299 OA
ATOM     12  O   UNL d   1     -41.419  15.920  17.463  0.00  0.00    -0.300 OA
ATOM     13  O   UNL d   1     -39.852  15.287  20.048  0.00  0.00    -0.286 OA
ATOM     14  C   UNL d   1     -41.512  15.729  16.673  0.00  0.00     0.304 A 
ENDROOT
BRANCH   1  15
ATOM     15  C   UNL d   1     -38.642  14.191  20.345  0.00  0.00     0.215 C 
ATOM     16  O   UNL d   1     -37.974  14.632  20.537  0.00  0.00    -0.644 OA
ATOM     17  O   UNL d   1     -38.983  13.696  20.906  0.00  0.00    -0.644 OA
ENDBRANCH   1  15
BRANCH   6  18
ATOM     18  C   UNL d   1     -38.752  13.322  17.618  0.00  0.00     0.080 C 
ATOM     19  C   UNL d   1     -38.299  12.653  17.804  0.00  0.00     0.021 C 
ENDBRANCH   6  18
TORSDOF 2
ENDMDL
MODEL 9
REMARK VINA RESULT:      -5.6      1.249      2.039
REMARK  2 active torsions:
REMARK  status: ('A' for Active; 'I' for Inactive)
REMARK    1  A    between atoms: C_9  and  C_1 
REMARK    2  A    between atoms: C_18  and  N_6 
ROOT
ATOM      1  C   UNL d   1     -47.992  14.337  22.830  0.00  0.00     0.121 A 
ATOM      2  C   UNL d   1     -49.111  13.483  23.102  0.00  0.00     0.057 A 
ATOM      3  C   UNL d   1     -48.815  14.239  22.923  0.00  0.00     0.204 A 
ATOM      4  C   UNL d   1     -48.604  12.831  23.190  0.00  0.00     0.069 A 
ATOM      5  C   UNL d   1     -47.477  13.690  22.916  0.00  0.00     0.089 A 
ATOM      6  N   UNL d   1     -47.787  12.938  23.096  0.00  0.00    -0.303 N 
ATOM      7  C   UNL d   1     -48.909  12.094  23.366  0.00  0.00     0.044 A 
ATOM      8  C   UNL d   1     -49.927  13.376  23.196  0.00  0.00     0.031 A 
ATOM      9  C   UNL d   1     -49.718  11.991  23.459  0.00  0.00     0.121 A 
ATOM     10  C   UNL d   1     -50.228  12.632  23.374  0.00  0.00     0.119 A 
ATOM     11  O   UNL d   1     -50.166  11.327  23.633  0.00  0.00    -0.299 OA
ATOM     12  O   UNL d   1     -50.990  12.363  23.496  0.00  0.00    -0.300 OA
ATOM     13  O   UNL d   1     -49.325  14.880  22.838  0.00  0.00    -0.286 OA
ATOM     14  C   UNL d   1     -50.957  11.562  23.656  0.00  0.00     0.304 A 
ENDROOT
BRANCH   1  15
ATOM     15  C   UNL d   1     -47.688  15.083  22.652  0.00  0.00     0.215 C 
ATOM     16  O   UNL d   1     -46.974  15.151  22.249  0.00  0.00    -0.644 OA
ATOM     17  O   UNL d   1     -48.100  15.758  22.878  0.00  0.00    -0.644 OA
ENDBRANCH   1  15
BRANCH   6  18
ATOM     18  C   UNL d   1     -47.277  12.297  23.181  0.00  0.00     0.080 C 
ATOM     19  C   UNL d   1     -46.561  12.393  23.587  0.00  0.00     0.021 C 
ENDBRANCH   6  18
TORSDOF 2
ENDMDL
