MODEL 1
REMARK VINA RESULT:      -3.7      0.000      0.000
REMARK  5 active torsions:
REMARK  status: ('A' for Active; 'I' for Inactive)
REMARK       I    between atoms: C_8  and  N_1 
REMARK    1  A    between atoms: C_10  and  C_3 
REMARK    2  A    between atoms: C_4  and  S_14 
REMARK    3  A    between atoms: C_15  and  C_6 
REMARK    4  A    between atoms: C_16  and  C_8 
REMARK    5  A    between atoms: S_14  and  C_16 
ROOT
ATOM      1  N   UNL d   1     -40.177  14.608  20.407  0.00  0.00    -0.195 N 
ATOM      2  N   UNL d   1     -39.495  14.931  20.686  0.00  0.00    -0.162 NA
ATOM      3  C   UNL d   1     -39.514  14.911  21.516  0.00  0.00     0.109 A 
ATOM      4  C   UNL d   1     -40.639  14.379  21.060  0.00  0.00     0.088 A 
ATOM      5  C   UNL d   1     -40.217  14.572  21.724  0.00  0.00     0.041 A 
ATOM      6  C   UNL d   1     -40.464  14.480  19.662  0.00  0.00     0.275 C 
ATOM      7  O   UNL d   1     -41.209  14.126  19.542  0.00  0.00    -0.266 OA
ENDROOT
BRANCH   4   8
ATOM      8  C   UNL d   1     -41.371  14.029  21.068  0.00  0.00     0.018 A 
ATOM      9  C   UNL d   1     -41.438  13.209  21.082  0.00  0.00     0.004 A 
ATOM     10  C   UNL d   1     -42.193  12.856  21.090  0.00  0.00     0.030 A 
ATOM     11  C   UNL d   1     -42.867  13.323  21.084  0.00  0.00     0.140 A 
ATOM     12  C   UNL d   1     -42.798  14.144  21.070  0.00  0.00     0.030 A 
ATOM     13  F   UNL d   1     -43.629  12.988  21.091  0.00  0.00    -0.204 F 
ATOM     14  C   UNL d   1     -42.049  14.504  21.062  0.00  0.00     0.004 A 
ENDBRANCH   4   8
BRANCH   6  15
ATOM     15  C   UNL d   1     -40.012  14.705  18.997  0.00  0.00     0.128 C 
BRANCH  15  16
ATOM     16  S   UNL d   1     -40.223  14.441  18.237  0.00  0.00    -0.069 SA
BRANCH  16  17
ATOM     17  C   UNL d   1     -39.732  14.600  17.584  0.00  0.00     0.140 A 
ATOM     18  N   UNL d   1     -39.190  14.070  17.269  0.00  0.00    -0.232 NA
ATOM     19  C   UNL d   1     -38.821  14.443  16.633  0.00  0.00     0.088 A 
ATOM     20  C   UNL d   1     -38.233  14.180  16.110  0.00  0.00     0.020 A 
ATOM     21  C   UNL d   1     -39.133  15.195  16.556  0.00  0.00     0.049 A 
ATOM     22  C   UNL d   1     -37.960  14.679  15.511  0.00  0.00     0.002 A 
ATOM     23  C   UNL d   1     -38.283  15.445  15.440  0.00  0.00     0.001 A 
ATOM     24  C   UNL d   1     -38.867  15.694  15.964  0.00  0.00     0.008 A 
ATOM     25  S   UNL d   1     -39.703  15.299  17.149  0.00  0.00    -0.060 SA
ENDBRANCH  16  17
ENDBRANCH  15  16
ENDBRANCH   6  15
BRANCH   3  26
ATOM     26  C   UNL d   1     -38.913  15.192  22.008  0.00  0.00     0.049 A 
ATOM     27  S   UNL d   1     -38.595  15.922  22.175  0.00  0.00    -0.085 SA
ATOM     28  C   UNL d   1     -37.995  15.810  22.729  0.00  0.00     0.035 A 
ATOM     29  C   UNL d   1     -37.940  15.023  22.905  0.00  0.00     0.007 A 
ATOM     30  C   UNL d   1     -38.513  14.622  22.457  0.00  0.00     0.009 A 
ENDBRANCH   3  26
TORSDOF 5
ENDMDL
MODEL 2
REMARK VINA RESULT:      -2.9      2.291      5.537
REMARK  5 active torsions:
REMARK  status: ('A' for Active; 'I' for Inactive)
REMARK       I    between atoms: C_8  and  N_1 
REMARK    1  A    between atoms: C_10  and  C_3 
REMARK    2  A    between atoms: C_4  and  S_14 
REMARK    3  A    between atoms: C_15  and  C_6 
REMARK    4  A    between atoms: C_16  and  C_8 
REMARK    5  A    between atoms: S_14  and  C_16 
ROOT
ATOM      1  N   UNL d   1     -40.943  14.208  20.403  0.00  0.00    -0.195 N 
ATOM      2  N   UNL d   1     -41.178  14.417  19.663  0.00  0.00    -0.162 NA
ATOM      3  C   UNL d   1     -40.533  14.761  19.268  0.00  0.00     0.109 A 
ATOM      4  C   UNL d   1     -40.141  14.417  20.486  0.00  0.00     0.088 A 
ATOM      5  C   UNL d   1     -39.913  14.752  19.785  0.00  0.00     0.041 A 
ATOM      6  C   UNL d   1     -41.321  13.858  21.026  0.00  0.00     0.275 C 
ATOM      7  O   UNL d   1     -40.923  13.706  21.743  0.00  0.00    -0.266 OA
ENDROOT
BRANCH   4   8
ATOM      8  C   UNL d   1     -39.654  14.321  21.129  0.00  0.00     0.018 A 
ATOM      9  C   UNL d   1     -39.208  13.634  21.210  0.00  0.00     0.004 A 
ATOM     10  C   UNL d   1     -38.710  13.542  21.873  0.00  0.00     0.030 A 
ATOM     11  C   UNL d   1     -38.664  14.132  22.440  0.00  0.00     0.140 A 
ATOM     12  C   UNL d   1     -39.112  14.818  22.356  0.00  0.00     0.030 A 
ATOM     13  F   UNL d   1     -38.172  14.056  23.107  0.00  0.00    -0.204 F 
ATOM     14  C   UNL d   1     -39.610  14.919  21.699  0.00  0.00     0.004 A 
ENDBRANCH   4   8
BRANCH   6  15
ATOM     15  C   UNL d   1     -42.125  13.642  20.957  0.00  0.00     0.128 C 
BRANCH  15  16
ATOM     16  S   UNL d   1     -42.396  12.924  21.276  0.00  0.00    -0.069 SA
BRANCH  16  17
ATOM     17  C   UNL d   1     -43.174  12.856  21.563  0.00  0.00     0.140 A 
ATOM     18  N   UNL d   1     -43.445  12.243  22.035  0.00  0.00    -0.232 NA
ATOM     19  C   UNL d   1     -44.241  12.386  22.195  0.00  0.00     0.088 A 
ATOM     20  C   UNL d   1     -44.797  11.959  22.639  0.00  0.00     0.020 A 
ATOM     21  C   UNL d   1     -44.459  13.082  21.825  0.00  0.00     0.049 A 
ATOM     22  C   UNL d   1     -45.572  12.236  22.708  0.00  0.00     0.002 A 
ATOM     23  C   UNL d   1     -45.785  12.947  22.327  0.00  0.00     0.001 A 
ATOM     24  C   UNL d   1     -45.225  13.362  21.889  0.00  0.00     0.008 A 
ATOM     25  S   UNL d   1     -43.795  13.381  21.427  0.00  0.00    -0.060 SA
ENDBRANCH  16  17
ENDBRANCH  15  16
ENDBRANCH   6  15
BRANCH   3  26
ATOM     26  C   UNL d   1     -40.553  15.048  18.494  0.00  0.00     0.049 A 
ATOM     27  S   UNL d   1     -40.631  15.781  18.150  0.00  0.00    -0.085 SA
ATOM     28  C   UNL d   1     -40.606  15.676  17.333  0.00  0.00     0.035 A 
ATOM     29  C   UNL d   1     -40.515  14.890  17.169  0.00  0.00     0.007 A 
ATOM     30  C   UNL d   1     -40.480  14.483  17.893  0.00  0.00     0.009 A 
ENDBRANCH   3  26
TORSDOF 5
ENDMDL
MODEL 3
REMARK VINA RESULT:      -2.3      1.653      3.100
REMARK  5 active torsions:
REMARK  status: ('A' for Active; 'I' for Inactive)
REMARK       I    between atoms: C_8  and  N_1 
REMARK    1  A    between atoms: C_10  and  C_3 
REMARK    2  A    between atoms: C_4  and  S_14 
REMARK    3  A    between atoms: C_15  and  C_6 
REMARK    4  A    between atoms: C_16  and  C_8 
REMARK    5  A    between atoms: S_14  and  C_16 
ROOT
ATOM      1  N   UNL d   1     -40.133  14.398  20.639  0.00  0.00    -0.195 N 
ATOM      2  N   UNL d   1     -40.810  14.038  20.396  0.00  0.00    -0.162 NA
ATOM      3  C   UNL d   1     -41.273  13.869  21.064  0.00  0.00     0.109 A 
ATOM      4  C   UNL d   1     -40.159  14.462  21.469  0.00  0.00     0.088 A 
ATOM      5  C   UNL d   1     -40.861  14.134  21.706  0.00  0.00     0.041 A 
ATOM      6  C   UNL d   1     -39.486  14.684  20.246  0.00  0.00     0.275 C 
ATOM      7  O   UNL d   1     -38.853  15.037  20.658  0.00  0.00    -0.266 OA
ENDROOT
BRANCH   4   8
ATOM      8  C   UNL d   1     -39.609  14.783  21.973  0.00  0.00     0.018 A 
ATOM      9  C   UNL d   1     -39.038  14.303  22.321  0.00  0.00     0.004 A 
ATOM     10  C   UNL d   1     -38.477  14.640  22.837  0.00  0.00     0.030 A 
ATOM     11  C   UNL d   1     -38.492  15.444  22.998  0.00  0.00     0.140 A 
ATOM     12  C   UNL d   1     -39.066  15.921  22.647  0.00  0.00     0.030 A 
ATOM     13  F   UNL d   1     -37.940  15.796  23.510  0.00  0.00    -0.204 F 
ATOM     14  C   UNL d   1     -39.629  15.595  22.132  0.00  0.00     0.004 A 
ENDBRANCH   4   8
BRANCH   6  15
ATOM     15  C   UNL d   1     -39.445  14.627  19.414  0.00  0.00     0.128 C 
BRANCH  15  16
ATOM     16  S   UNL d   1     -38.807  14.964  19.001  0.00  0.00    -0.069 SA
BRANCH  16  17
ATOM     17  C   UNL d   1     -38.689  14.792  18.195  0.00  0.00     0.140 A 
ATOM     18  N   UNL d   1     -38.381  14.088  17.909  0.00  0.00    -0.232 NA
ATOM     19  C   UNL d   1     -38.355  14.145  17.087  0.00  0.00     0.088 A 
ATOM     20  C   UNL d   1     -38.099  13.608  16.508  0.00  0.00     0.020 A 
ATOM     21  C   UNL d   1     -38.646  14.877  16.869  0.00  0.00     0.049 A 
ATOM     22  C   UNL d   1     -38.137  13.814  15.709  0.00  0.00     0.002 A 
ATOM     23  C   UNL d   1     -38.435  14.564  15.495  0.00  0.00     0.001 A 
ATOM     24  C   UNL d   1     -38.686  15.087  16.078  0.00  0.00     0.008 A 
ATOM     25  S   UNL d   1     -38.856  15.288  17.558  0.00  0.00    -0.060 SA
ENDBRANCH  16  17
ENDBRANCH  15  16
ENDBRANCH   6  15
BRANCH   3  26
ATOM     26  C   UNL d   1     -42.011  13.499  21.044  0.00  0.00     0.049 A 
ATOM     27  S   UNL d   1     -42.549  13.310  20.463  0.00  0.00    -0.085 SA
ATOM     28  C   UNL d   1     -43.187  12.936  20.828  0.00  0.00     0.035 A 
ATOM     29  C   UNL d   1     -43.050  12.893  21.623  0.00  0.00     0.007 A 
ATOM     30  C   UNL d   1     -42.312  13.245  21.773  0.00  0.00     0.009 A 
ENDBRANCH   3  26
TORSDOF 5
ENDMDL
