MODEL 1
REMARK VINA RESULT:      31.8      0.000      0.000
REMARK  2 active torsions:
REMARK  status: ('A' for Active; 'I' for Inactive)
REMARK    1  A    between atoms: C_7  and  C_2 
REMARK    2  A    between atoms: C_6  and  N_3 
ROOT
ATOM      1  C   UNL d   1     -54.867-101.754 -38.314  0.00  0.00     0.085 A 
ATOM      2  C   UNL d   1     -55.046-102.257 -37.701  0.00  0.00     0.019 A 
ATOM      3  C   UNL d   1     -55.076-101.977 -36.926  0.00  0.00     0.002 A 
ATOM      4  C   UNL d   1     -54.713-100.938 -38.146  0.00  0.00     0.019 A 
ATOM      5  C   UNL d   1     -54.925-101.181 -36.763  0.00  0.00     0.000 A 
ATOM      6  C   UNL d   1     -54.741-100.650 -37.371  0.00  0.00     0.002 A 
ATOM      7  C   UNL d   1     -55.256-102.498 -36.333  0.00  0.00     0.000 A 
ATOM      8  C   UNL d   1     -54.952-100.891 -36.003  0.00  0.00     0.000 A 
ATOM      9  C   UNL d   1     -55.290-102.239 -35.563  0.00  0.00     0.000 A 
ATOM     10  C   UNL d   1     -55.135-101.422 -35.396  0.00  0.00     0.000 A 
ENDROOT
BRANCH   1  11
ATOM     11  N   UNL d   1     -54.832-102.012 -39.095  0.00  0.00    -0.210 N 
ATOM     12  C   UNL d   1     -54.883-101.597 -39.797  0.00  0.00     0.191 A 
ATOM     13  C   UNL d   1     -54.813-102.121 -40.397  0.00  0.00     0.118 A 
ATOM     14  N   UNL d   1     -54.988-100.786 -39.860  0.00  0.00    -0.127 N 
ATOM     15  C   UNL d   1     -54.717-102.877 -40.083  0.00  0.00     0.129 A 
ATOM     16  N   UNL d   1     -54.728-102.804 -39.291  0.00  0.00    -0.162 NA
BRANCH  13  17
ATOM     17  C   UNL d   1     -54.836-101.925 -41.201  0.00  0.00     0.301 C 
ATOM     18  O   UNL d   1     -54.711-101.162 -41.400  0.00  0.00    -0.263 OA
ATOM     19  N   UNL d   1     -54.979-102.484 -41.752  0.00  0.00    -0.102 N 
ENDBRANCH  13  17
ENDBRANCH   1  11
TORSDOF 2
ENDMDL
