MODEL 1
REMARK VINA RESULT:      92.6      0.000      0.000
REMARK  6 active torsions:
REMARK  status: ('A' for Active; 'I' for Inactive)
REMARK    1  A    between atoms: C_12  and  C_3 
REMARK    2  A    between atoms: N_16  and  C_4 
REMARK    3  A    between atoms: N_11  and  C_23 
REMARK    4  A    between atoms: C_26  and  N_16 
REMARK    5  A    between atoms: C_23  and  C_24 
REMARK    6  A    between atoms: C_24  and  C_26 
ROOT
ATOM      1  C   UNL d   1      61.631  45.886  50.040  0.00  0.00     0.168 A 
ATOM      2  N   UNL d   1      61.631  46.732  50.133  0.00  0.00    -0.184 N 
ATOM      3  C   UNL d   1      62.125  45.536  49.500  0.00  0.00     0.057 A 
ATOM      4  C   UNL d   1      61.133  47.063  50.675  0.00  0.00     0.218 A 
ATOM      5  N   UNL d   1      62.633  46.829  49.127  0.00  0.00    -0.160 NA
ATOM      6  N   UNL d   1      61.132  45.427  50.495  0.00  0.00    -0.227 NA
ATOM      7  C   UNL d   1      60.626  46.609  51.140  0.00  0.00     0.071 A 
ATOM      8  C   UNL d   1      62.633  46.009  49.037  0.00  0.00     0.124 A 
ATOM      9  C   UNL d   1      60.625  45.776  51.048  0.00  0.00     0.087 A 
ATOM     10  C   UNL d   1      60.099  45.293  51.527  0.00  0.00     0.021 C 
ENDROOT
BRANCH   4  11
ATOM     11  N   UNL d   1      61.131  47.918  50.773  0.00  0.00    -0.380 NA
BRANCH  11  12
ATOM     12  C   UNL d   1      61.079  48.774  50.815  0.00  0.00     0.164 C 
BRANCH  12  13
ATOM     13  C   UNL d   1      60.366  49.132  51.108  0.00  0.00     0.054 C 
BRANCH  13  14
ATOM     14  C   UNL d   1      59.957  49.708  50.628  0.00  0.00     0.084 C 
BRANCH  14  15
ATOM     15  N   UNL d   1      59.095  49.707  50.595  0.00  0.00    -0.285 N 
ATOM     16  C   UNL d   1      58.561  49.706  51.263  0.00  0.00     0.183 A 
ATOM     17  N   UNL d   1      57.762  49.706  50.966  0.00  0.00    -0.222 NA
ATOM     18  C   UNL d   1      57.803  49.707  50.109  0.00  0.00     0.120 A 
ATOM     19  C   UNL d   1      58.622  49.708  49.881  0.00  0.00     0.102 A 
ENDBRANCH  14  15
ENDBRANCH  13  14
ENDBRANCH  12  13
ENDBRANCH  11  12
ENDBRANCH   4  11
BRANCH   3  20
ATOM     20  C   UNL d   1      62.124  44.716  49.409  0.00  0.00     0.005 A 
ATOM     21  C   UNL d   1      62.672  44.264  49.808  0.00  0.00     0.001 A 
ATOM     22  C   UNL d   1      62.671  43.444  49.718  0.00  0.00     0.011 A 
ATOM     23  C   UNL d   1      62.122  43.090  49.230  0.00  0.00     0.058 A 
ATOM     24  C   UNL d   1      61.575  43.556  48.832  0.00  0.00     0.011 A 
ATOM     25 CL   UNL d   1      62.122  42.230  49.135  0.00  0.00    -0.082 Cl
ATOM     26  C   UNL d   1      61.575  44.363  48.921  0.00  0.00     0.001 A 
ENDBRANCH   3  20
TORSDOF 6
ENDMDL
