MODEL 1
REMARK VINA RESULT:      85.3      0.000      0.000
REMARK  7 active torsions:
REMARK  status: ('A' for Active; 'I' for Inactive)
REMARK    1  A    between atoms: C_3  and  C_1 
REMARK    2  A    between atoms: C_4  and  C_1 
REMARK    3  A    between atoms: N_2  and  C_6 
REMARK    4  A    between atoms: C_6  and  C_13 
REMARK    5  A    between atoms: O_12  and  C_14 
REMARK    6  A    between atoms: C_16  and  O_12 
REMARK    7  A    between atoms: C_13  and  C_16 
ROOT
ATOM      1  C   UNL d   1     -55.879-101.825 -43.899  0.00  0.00     0.039 A 
ATOM      2  C   UNL d   1     -56.047-101.308 -43.272  0.00  0.00     0.005 A 
ATOM      3  C   UNL d   1     -55.486-102.529 -43.753  0.00  0.00     0.005 A 
ATOM      4  C   UNL d   1     -55.427-102.210 -42.370  0.00  0.00     0.100 A 
ATOM      5  C   UNL d   1     -55.820-101.505 -42.516  0.00  0.00     0.025 A 
ATOM      6  C   UNL d   1     -55.259-102.721 -42.978  0.00  0.00     0.025 A 
ENDROOT
BRANCH   4   7
ATOM      7  O   UNL d   1     -55.200-102.400 -41.587  0.00  0.00    -0.302 OA
BRANCH   7   8
ATOM      8  C   UNL d   1     -55.774-102.535 -40.987  0.00  0.00     0.166 C 
BRANCH   8   9
ATOM      9  C   UNL d   1     -55.563-102.468 -40.184  0.00  0.00     0.238 C 
ATOM     10  O   UNL d   1     -56.001-102.863 -39.607  0.00  0.00    -0.283 OA
BRANCH   9  11
ATOM     11  C   UNL d   1     -54.913-102.003 -39.967  0.00  0.00     0.125 C 
BRANCH  11  12
ATOM     12  N   UNL d   1     -54.849-101.712 -39.192  0.00  0.00    -0.296 N 
ATOM     13  C   UNL d   1     -54.777-100.901 -39.062  0.00  0.00     0.107 A 
ATOM     14  C   UNL d   1     -54.714-100.621 -38.285  0.00  0.00     0.142 A 
ATOM     15  O   UNL d   1     -54.724-101.151 -37.641  0.00  0.00    -0.300 OA
ATOM     16  C   UNL d   1     -54.798-101.960 -37.786  0.00  0.00     0.142 A 
ATOM     17  C   UNL d   1     -54.860-102.248 -38.554  0.00  0.00     0.107 A 
ENDBRANCH  11  12
ENDBRANCH   9  11
ENDBRANCH   8   9
ENDBRANCH   7   8
ENDBRANCH   4   7
BRANCH   1  18
ATOM     18  C   UNL d   1     -56.106-101.630 -44.666  0.00  0.00     0.196 C 
ATOM     19  O   UNL d   1     -56.645-102.104 -45.070  0.00  0.00    -0.287 OA
BRANCH  18  20
ATOM     20  C   UNL d   1     -55.793-100.959 -45.027  0.00  0.00     0.039 A 
ATOM     21  C   UNL d   1     -56.174-100.230 -44.944  0.00  0.00     0.004 A 
ATOM     22  C   UNL d   1     -55.865 -99.559 -45.303  0.00  0.00     0.011 A 
ATOM     23  C   UNL d   1     -55.169 -99.614 -45.749  0.00  0.00     0.058 A 
ATOM     24  C   UNL d   1     -54.789-100.343 -45.831  0.00  0.00     0.011 A 
ATOM     25 CL   UNL d   1     -54.857 -98.944 -46.109  0.00  0.00    -0.082 Cl
ATOM     26  C   UNL d   1     -55.104-101.014 -45.468  0.00  0.00     0.004 A 
ENDBRANCH  18  20
ENDBRANCH   1  18
TORSDOF 7
ENDMDL
MODEL 2
REMARK VINA RESULT:      86.0      1.600      2.187
REMARK  7 active torsions:
REMARK  status: ('A' for Active; 'I' for Inactive)
REMARK    1  A    between atoms: C_3  and  C_1 
REMARK    2  A    between atoms: C_4  and  C_1 
REMARK    3  A    between atoms: N_2  and  C_6 
REMARK    4  A    between atoms: C_6  and  C_13 
REMARK    5  A    between atoms: O_12  and  C_14 
REMARK    6  A    between atoms: C_16  and  O_12 
REMARK    7  A    between atoms: C_13  and  C_16 
ROOT
ATOM      1  C   UNL d   1     -55.207-100.449 -41.957  0.00  0.00     0.039 A 
ATOM      2  C   UNL d   1     -55.074-101.207 -42.270  0.00  0.00     0.005 A 
ATOM      3  C   UNL d   1     -55.313-100.354 -41.150  0.00  0.00     0.005 A 
ATOM      4  C   UNL d   1     -55.156-101.753 -40.964  0.00  0.00     0.100 A 
ATOM      5  C   UNL d   1     -55.050-101.848 -41.771  0.00  0.00     0.025 A 
ATOM      6  C   UNL d   1     -55.286-101.015 -40.650  0.00  0.00     0.025 A 
ENDROOT
BRANCH   4   7
ATOM      7  O   UNL d   1     -55.129-102.423 -40.462  0.00  0.00    -0.302 OA
BRANCH   7   8
ATOM      8  C   UNL d   1     -54.787-102.379 -39.695  0.00  0.00     0.166 C 
BRANCH   8   9
ATOM      9  C   UNL d   1     -55.239-102.580 -39.024  0.00  0.00     0.238 C 
ATOM     10  O   UNL d   1     -56.038-102.770 -39.106  0.00  0.00    -0.283 OA
BRANCH   9  11
ATOM     11  C   UNL d   1     -54.884-102.589 -38.276  0.00  0.00     0.125 C 
BRANCH  11  12
ATOM     12  N   UNL d   1     -55.054-101.989 -37.727  0.00  0.00    -0.296 N 
ATOM     13  C   UNL d   1     -54.725-101.239 -37.823  0.00  0.00     0.107 A 
ATOM     14  C   UNL d   1     -54.901-100.649 -37.270  0.00  0.00     0.142 A 
ATOM     15  O   UNL d   1     -55.403-100.808 -36.624  0.00  0.00    -0.300 OA
ATOM     16  C   UNL d   1     -55.725-101.564 -36.540  0.00  0.00     0.142 A 
ATOM     17  C   UNL d   1     -55.557-102.157 -37.084  0.00  0.00     0.107 A 
ENDBRANCH  11  12
ENDBRANCH   9  11
ENDBRANCH   8   9
ENDBRANCH   7   8
ENDBRANCH   4   7
BRANCH   1  18
ATOM     18  C   UNL d   1     -55.232 -99.796 -42.457  0.00  0.00     0.196 C 
ATOM     19  O   UNL d   1     -54.713 -99.167 -42.343  0.00  0.00    -0.287 OA
BRANCH  18  20
ATOM     20  C   UNL d   1     -55.779 -99.773 -43.073  0.00  0.00     0.039 A 
ATOM     21  C   UNL d   1     -55.702-100.292 -43.713  0.00  0.00     0.004 A 
ATOM     22  C   UNL d   1     -56.244-100.272 -44.328  0.00  0.00     0.011 A 
ATOM     23  C   UNL d   1     -56.872 -99.731 -44.308  0.00  0.00     0.058 A 
ATOM     24  C   UNL d   1     -56.948 -99.213 -43.668  0.00  0.00     0.011 A 
ATOM     25 CL   UNL d   1     -57.417 -99.709 -44.923  0.00  0.00    -0.082 Cl
ATOM     26  C   UNL d   1     -56.399 -99.238 -43.052  0.00  0.00     0.004 A 
ENDBRANCH  18  20
ENDBRANCH   1  18
TORSDOF 7
ENDMDL
MODEL 3
REMARK VINA RESULT:      86.3      1.842      3.140
REMARK  7 active torsions:
REMARK  status: ('A' for Active; 'I' for Inactive)
REMARK    1  A    between atoms: C_3  and  C_1 
REMARK    2  A    between atoms: C_4  and  C_1 
REMARK    3  A    between atoms: N_2  and  C_6 
REMARK    4  A    between atoms: C_6  and  C_13 
REMARK    5  A    between atoms: O_12  and  C_14 
REMARK    6  A    between atoms: C_16  and  O_12 
REMARK    7  A    between atoms: C_13  and  C_16 
ROOT
ATOM      1  C   UNL d   1     -56.129-102.204 -40.664  0.00  0.00     0.039 A 
ATOM      2  C   UNL d   1     -55.484-102.710 -40.533  0.00  0.00     0.005 A 
ATOM      3  C   UNL d   1     -56.412-101.737 -40.052  0.00  0.00     0.005 A 
ATOM      4  C   UNL d   1     -55.421-102.271 -39.186  0.00  0.00     0.100 A 
ATOM      5  C   UNL d   1     -55.138-102.738 -39.798  0.00  0.00     0.025 A 
ATOM      6  C   UNL d   1     -56.051-101.773 -39.306  0.00  0.00     0.025 A 
ENDROOT
BRANCH   4   7
ATOM      7  O   UNL d   1     -55.054-102.310 -38.435  0.00  0.00    -0.302 OA
BRANCH   7   8
ATOM      8  C   UNL d   1     -55.472-102.590 -37.760  0.00  0.00     0.166 C 
BRANCH   8   9
ATOM      9  C   UNL d   1     -55.344-102.241 -37.015  0.00  0.00     0.238 C 
ATOM     10  O   UNL d   1     -55.770-102.500 -36.357  0.00  0.00    -0.283 OA
BRANCH   9  11
ATOM     11  C   UNL d   1     -54.786-101.633 -36.935  0.00  0.00     0.125 C 
BRANCH  11  12
ATOM     12  N   UNL d   1     -54.986-100.936 -36.530  0.00  0.00    -0.296 N 
ATOM     13  C   UNL d   1     -54.919-100.207 -36.909  0.00  0.00     0.107 A 
ATOM     14  C   UNL d   1     -55.120 -99.518 -36.496  0.00  0.00     0.142 A 
ATOM     15  O   UNL d   1     -55.387 -99.559 -35.707  0.00  0.00    -0.300 OA
ATOM     16  C   UNL d   1     -55.448-100.296 -35.340  0.00  0.00     0.142 A 
ATOM     17  C   UNL d   1     -55.251-100.986 -35.742  0.00  0.00     0.107 A 
ENDBRANCH  11  12
ENDBRANCH   9  11
ENDBRANCH   8   9
ENDBRANCH   7   8
ENDBRANCH   4   7
BRANCH   1  18
ATOM     18  C   UNL d   1     -56.484-102.172 -41.406  0.00  0.00     0.196 C 
ATOM     19  O   UNL d   1     -57.281-102.364 -41.492  0.00  0.00    -0.287 OA
BRANCH  18  20
ATOM     20  C   UNL d   1     -56.040-101.946 -42.061  0.00  0.00     0.039 A 
ATOM     21  C   UNL d   1     -56.412-101.829 -42.791  0.00  0.00     0.004 A 
ATOM     22  C   UNL d   1     -55.973-101.604 -43.447  0.00  0.00     0.011 A 
ATOM     23  C   UNL d   1     -55.154-101.495 -43.377  0.00  0.00     0.058 A 
ATOM     24  C   UNL d   1     -54.783-101.613 -42.649  0.00  0.00     0.011 A 
ATOM     25 CL   UNL d   1     -54.711-101.270 -44.033  0.00  0.00    -0.082 Cl
ATOM     26  C   UNL d   1     -55.230-101.839 -41.992  0.00  0.00     0.004 A 
ENDBRANCH  18  20
ENDBRANCH   1  18
TORSDOF 7
ENDMDL
