MODEL 1
REMARK VINA RESULT:      -3.1      0.000      0.000
REMARK  3 active torsions:
REMARK  status: ('A' for Active; 'I' for Inactive)
REMARK    1  A    between atoms: N_2  and  C_1 
REMARK    2  A    between atoms: C_3  and  C_1 
REMARK    3  A    between atoms: N_6  and  C_5 
ROOT
ATOM      1  C   UNL d   1      31.317  16.731 -24.094  0.00  0.00     0.027 A 
ATOM      2  C   UNL d   1      32.344  17.986 -23.768  0.00  0.00     0.064 A 
ATOM      3  C   UNL d   1      31.217  17.463 -24.474  0.00  0.00     0.004 A 
ATOM      4  C   UNL d   1      31.936  16.629 -23.547  0.00  0.00     0.004 A 
ATOM      5  C   UNL d   1      31.730  18.087 -24.309  0.00  0.00     0.018 A 
ATOM      6  C   UNL d   1      32.451  17.260 -23.384  0.00  0.00     0.018 A 
ENDROOT
BRANCH   1   7
ATOM      7  C   UNL d   1      30.803  16.104 -24.258  0.00  0.00     0.120 C 
ATOM      8  S   UNL d   1      30.986  15.577 -24.870  0.00  0.00    -0.059 SA
BRANCH   7   9
ATOM      9  N   UNL d   1      30.116  16.008 -23.814  0.00  0.00    -0.292 N 
ATOM     10  C   UNL d   1      29.418  16.365 -24.065  0.00  0.00     0.108 A 
ATOM     11  C   UNL d   1      28.730  16.270 -23.620  0.00  0.00     0.142 A 
ATOM     12  O   UNL d   1      28.744  15.820 -22.932  0.00  0.00    -0.300 OA
ATOM     13  C   UNL d   1      29.447  15.463 -22.684  0.00  0.00     0.142 A 
ATOM     14  C   UNL d   1      30.136  15.559 -23.128  0.00  0.00     0.108 A 
ENDBRANCH   7   9
ENDBRANCH   1   7
BRANCH   2  15
ATOM     15  N   UNL d   1      32.855  18.609 -23.604  0.00  0.00    -0.301 N 
ATOM     16  C   UNL d   1      32.983  18.845 -22.823  0.00  0.00     0.100 C 
ATOM     17  C   UNL d   1      33.241  18.996 -24.220  0.00  0.00     0.100 C 
ENDBRANCH   2  15
TORSDOF 3
ENDMDL
MODEL 2
REMARK VINA RESULT:      -3.0      0.059      1.100
REMARK  3 active torsions:
REMARK  status: ('A' for Active; 'I' for Inactive)
REMARK    1  A    between atoms: N_2  and  C_1 
REMARK    2  A    between atoms: C_3  and  C_1 
REMARK    3  A    between atoms: N_6  and  C_5 
ROOT
ATOM      1  C   UNL d   1      31.297  16.740 -24.094  0.00  0.00     0.027 A 
ATOM      2  C   UNL d   1      32.322  17.987 -23.731  0.00  0.00     0.064 A 
ATOM      3  C   UNL d   1      31.892  16.641 -23.522  0.00  0.00     0.004 A 
ATOM      4  C   UNL d   1      31.218  17.470 -24.487  0.00  0.00     0.004 A 
ATOM      5  C   UNL d   1      32.401  17.264 -23.343  0.00  0.00     0.018 A 
ATOM      6  C   UNL d   1      31.733  18.096 -24.303  0.00  0.00     0.018 A 
ENDROOT
BRANCH   1   7
ATOM      7  C   UNL d   1      30.786  16.116 -24.275  0.00  0.00     0.120 C 
ATOM      8  S   UNL d   1      30.985  15.588 -24.881  0.00  0.00    -0.059 SA
BRANCH   7   9
ATOM      9  N   UNL d   1      30.085  16.023 -23.852  0.00  0.00    -0.292 N 
ATOM     10  C   UNL d   1      30.080  15.561 -23.172  0.00  0.00     0.108 A 
ATOM     11  C   UNL d   1      29.378  15.467 -22.749  0.00  0.00     0.142 A 
ATOM     12  O   UNL d   1      28.689  15.835 -23.008  0.00  0.00    -0.300 OA
ATOM     13  C   UNL d   1      28.699  16.298 -23.693  0.00  0.00     0.142 A 
ATOM     14  C   UNL d   1      29.401  16.391 -24.116  0.00  0.00     0.108 A 
ENDBRANCH   7   9
ENDBRANCH   1   7
BRANCH   2  15
ATOM     15  N   UNL d   1      32.830  18.609 -23.552  0.00  0.00    -0.301 N 
ATOM     16  C   UNL d   1      33.216  19.015 -24.159  0.00  0.00     0.100 C 
ATOM     17  C   UNL d   1      32.954  18.825 -22.768  0.00  0.00     0.100 C 
ENDBRANCH   2  15
TORSDOF 3
ENDMDL
MODEL 3
REMARK VINA RESULT:      -2.7      1.524      3.601
REMARK  3 active torsions:
REMARK  status: ('A' for Active; 'I' for Inactive)
REMARK    1  A    between atoms: N_2  and  C_1 
REMARK    2  A    between atoms: C_3  and  C_1 
REMARK    3  A    between atoms: N_6  and  C_5 
ROOT
ATOM      1  C   UNL d   1      31.232  16.641 -24.203  0.00  0.00     0.027 A 
ATOM      2  C   UNL d   1      29.622  16.313 -24.009  0.00  0.00     0.064 A 
ATOM      3  C   UNL d   1      30.674  16.949 -24.737  0.00  0.00     0.004 A 
ATOM      4  C   UNL d   1      30.978  16.166 -23.568  0.00  0.00     0.004 A 
ATOM      5  C   UNL d   1      29.873  16.785 -24.638  0.00  0.00     0.018 A 
ATOM      6  C   UNL d   1      30.170  16.002 -23.472  0.00  0.00     0.018 A 
ENDROOT
BRANCH   1   7
ATOM      7  C   UNL d   1      32.036  16.806 -24.301  0.00  0.00     0.120 C 
ATOM      8  S   UNL d   1      32.515  16.268 -24.710  0.00  0.00    -0.059 SA
BRANCH   7   9
ATOM      9  N   UNL d   1      32.355  17.500 -23.992  0.00  0.00    -0.292 N 
ATOM     10  C   UNL d   1      32.628  17.510 -23.217  0.00  0.00     0.108 A 
ATOM     11  C   UNL d   1      32.947  18.205 -22.907  0.00  0.00     0.142 A 
ATOM     12  O   UNL d   1      32.991  18.882 -23.374  0.00  0.00    -0.300 OA
ATOM     13  C   UNL d   1      32.714  18.866 -24.153  0.00  0.00     0.142 A 
ATOM     14  C   UNL d   1      32.395  18.171 -24.462  0.00  0.00     0.108 A 
ENDBRANCH   7   9
ENDBRANCH   1   7
BRANCH   2  15
ATOM     15  N   UNL d   1      28.822  16.149 -23.911  0.00  0.00    -0.301 N 
ATOM     16  C   UNL d   1      28.337  16.682 -23.508  0.00  0.00     0.100 C 
ATOM     17  C   UNL d   1      28.505  15.453 -24.216  0.00  0.00     0.100 C 
ENDBRANCH   2  15
TORSDOF 3
ENDMDL
MODEL 4
REMARK VINA RESULT:      -2.3      1.324      2.127
REMARK  3 active torsions:
REMARK  status: ('A' for Active; 'I' for Inactive)
REMARK    1  A    between atoms: N_2  and  C_1 
REMARK    2  A    between atoms: C_3  and  C_1 
REMARK    3  A    between atoms: N_6  and  C_5 
ROOT
ATOM      1  C   UNL d   1      32.612  17.927 -23.706  0.00  0.00     0.027 A 
ATOM      2  C   UNL d   1      32.973  19.206 -22.721  0.00  0.00     0.064 A 
ATOM      3  C   UNL d   1      33.025  17.805 -22.995  0.00  0.00     0.004 A 
ATOM      4  C   UNL d   1      32.379  18.697 -23.923  0.00  0.00     0.004 A 
ATOM      5  C   UNL d   1      33.204  18.444 -22.506  0.00  0.00     0.018 A 
ATOM      6  C   UNL d   1      32.561  19.339 -23.427  0.00  0.00     0.018 A 
ENDROOT
BRANCH   1   7
ATOM      7  C   UNL d   1      32.432  17.288 -24.198  0.00  0.00     0.120 C 
ATOM      8  S   UNL d   1      33.007  17.002 -24.721  0.00  0.00    -0.059 SA
BRANCH   7   9
ATOM      9  N   UNL d   1      31.686  16.939 -24.164  0.00  0.00    -0.292 N 
ATOM     10  C   UNL d   1      31.548  16.329 -23.631  0.00  0.00     0.108 A 
ATOM     11  C   UNL d   1      30.801  15.980 -23.597  0.00  0.00     0.142 A 
ATOM     12  O   UNL d   1      30.201  16.243 -24.094  0.00  0.00    -0.300 OA
ATOM     13  C   UNL d   1      30.345  16.857 -24.628  0.00  0.00     0.142 A 
ATOM     14  C   UNL d   1      31.092  17.206 -24.662  0.00  0.00     0.108 A 
ENDBRANCH   7   9
ENDBRANCH   1   7
BRANCH   2  15
ATOM     15  N   UNL d   1      33.151  19.844 -22.233  0.00  0.00    -0.301 N 
ATOM     16  C   UNL d   1      33.241  19.729 -21.419  0.00  0.00     0.100 C 
ATOM     17  C   UNL d   1      33.241  20.596 -22.555  0.00  0.00     0.100 C 
ENDBRANCH   2  15
TORSDOF 3
ENDMDL
MODEL 5
REMARK VINA RESULT:      -0.6      3.405      5.036
REMARK  3 active torsions:
REMARK  status: ('A' for Active; 'I' for Inactive)
REMARK    1  A    between atoms: N_2  and  C_1 
REMARK    2  A    between atoms: C_3  and  C_1 
REMARK    3  A    between atoms: N_6  and  C_5 
ROOT
ATOM      1  C   UNL d   1      32.815  20.623 -21.674  0.00  0.00     0.027 A 
ATOM      2  C   UNL d   1      32.463  22.196 -21.304  0.00  0.00     0.064 A 
ATOM      3  C   UNL d   1      32.214  20.801 -21.128  0.00  0.00     0.004 A 
ATOM      4  C   UNL d   1      33.241  21.240 -22.037  0.00  0.00     0.004 A 
ATOM      5  C   UNL d   1      32.041  21.585 -20.945  0.00  0.00     0.018 A 
ATOM      6  C   UNL d   1      33.063  22.030 -21.850  0.00  0.00     0.018 A 
ENDROOT
BRANCH   1   7
ATOM      7  C   UNL d   1      32.990  19.836 -21.859  0.00  0.00     0.120 C 
ATOM      8  S   UNL d   1      33.241  19.324 -21.259  0.00  0.00    -0.059 SA
BRANCH   7   9
ATOM      9  N   UNL d   1      32.914  19.569 -22.634  0.00  0.00    -0.292 N 
ATOM     10  C   UNL d   1      33.237  20.011 -23.249  0.00  0.00     0.108 A 
ATOM     11  C   UNL d   1      33.161  19.742 -24.025  0.00  0.00     0.142 A 
ATOM     12  O   UNL d   1      32.765  19.038 -24.181  0.00  0.00    -0.300 OA
ATOM     13  C   UNL d   1      32.443  18.598 -23.560  0.00  0.00     0.142 A 
ATOM     14  C   UNL d   1      32.519  18.866 -22.783  0.00  0.00     0.108 A 
ENDBRANCH   7   9
ENDBRANCH   1   7
BRANCH   2  15
ATOM     15  N   UNL d   1      32.289  22.979 -21.121  0.00  0.00    -0.301 N 
ATOM     16  C   UNL d   1      31.923  23.464 -21.682  0.00  0.00     0.100 C 
ATOM     17  C   UNL d   1      32.481  23.280 -20.379  0.00  0.00     0.100 C 
ENDBRANCH   2  15
TORSDOF 3
ENDMDL
MODEL 6
REMARK VINA RESULT:      -0.6      2.063      3.903
REMARK  3 active torsions:
REMARK  status: ('A' for Active; 'I' for Inactive)
REMARK    1  A    between atoms: N_2  and  C_1 
REMARK    2  A    between atoms: C_3  and  C_1 
REMARK    3  A    between atoms: N_6  and  C_5 
ROOT
ATOM      1  C   UNL d   1      32.472  18.305 -23.866  0.00  0.00     0.027 A 
ATOM      2  C   UNL d   1      31.634  16.878 -23.868  0.00  0.00     0.064 A 
ATOM      3  C   UNL d   1      31.791  18.220 -24.335  0.00  0.00     0.004 A 
ATOM      4  C   UNL d   1      32.733  17.669 -23.396  0.00  0.00     0.004 A 
ATOM      5  C   UNL d   1      31.375  17.508 -24.334  0.00  0.00     0.018 A 
ATOM      6  C   UNL d   1      32.311  16.953 -23.398  0.00  0.00     0.018 A 
ENDROOT
BRANCH   1   7
ATOM      7  C   UNL d   1      32.890  19.018 -23.866  0.00  0.00     0.120 C 
ATOM      8  S   UNL d   1      33.225  19.294 -24.571  0.00  0.00    -0.059 SA
BRANCH   7   9
ATOM      9  N   UNL d   1      32.970  19.448 -23.167  0.00  0.00    -0.292 N 
ATOM     10  C   UNL d   1      32.879  20.265 -23.182  0.00  0.00     0.108 A 
ATOM     11  C   UNL d   1      32.959  20.695 -22.483  0.00  0.00     0.142 A 
ATOM     12  O   UNL d   1      33.130  20.307 -21.778  0.00  0.00    -0.300 OA
ATOM     13  C   UNL d   1      33.221  19.485 -21.768  0.00  0.00     0.142 A 
ATOM     14  C   UNL d   1      33.140  19.055 -22.468  0.00  0.00     0.108 A 
ENDBRANCH   7   9
ENDBRANCH   1   7
BRANCH   2  15
ATOM     15  N   UNL d   1      31.218  16.168 -23.868  0.00  0.00    -0.301 N 
ATOM     16  C   UNL d   1      30.658  16.017 -23.280  0.00  0.00     0.100 C 
ATOM     17  C   UNL d   1      31.362  15.608 -24.455  0.00  0.00     0.100 C 
ENDBRANCH   2  15
TORSDOF 3
ENDMDL
MODEL 7
REMARK VINA RESULT:      -0.2      3.970      5.809
REMARK  3 active torsions:
REMARK  status: ('A' for Active; 'I' for Inactive)
REMARK    1  A    between atoms: N_2  and  C_1 
REMARK    2  A    between atoms: C_3  and  C_1 
REMARK    3  A    between atoms: N_6  and  C_5 
ROOT
ATOM      1  C   UNL d   1      32.992  20.807 -21.383  0.00  0.00     0.027 A 
ATOM      2  C   UNL d   1      33.070  19.498 -22.391  0.00  0.00     0.064 A 
ATOM      3  C   UNL d   1      32.823  20.891 -22.192  0.00  0.00     0.004 A 
ATOM      4  C   UNL d   1      33.201  20.061 -21.079  0.00  0.00     0.004 A 
ATOM      5  C   UNL d   1      32.862  20.237 -22.692  0.00  0.00     0.018 A 
ATOM      6  C   UNL d   1      33.240  19.404 -21.586  0.00  0.00     0.018 A 
ENDROOT
BRANCH   1   7
ATOM      7  C   UNL d   1      32.953  21.462 -20.880  0.00  0.00     0.120 C 
ATOM      8  S   UNL d   1      33.167  21.378 -20.085  0.00  0.00    -0.059 SA
BRANCH   7   9
ATOM      9  N   UNL d   1      32.702  22.191 -21.172  0.00  0.00    -0.292 N 
ATOM     10  C   UNL d   1      31.926  22.434 -21.044  0.00  0.00     0.108 A 
ATOM     11  C   UNL d   1      31.675  23.163 -21.336  0.00  0.00     0.142 A 
ATOM     12  O   UNL d   1      32.199  23.642 -21.752  0.00  0.00    -0.300 OA
ATOM     13  C   UNL d   1      32.977  23.394 -21.878  0.00  0.00     0.142 A 
ATOM     14  C   UNL d   1      33.228  22.664 -21.586  0.00  0.00     0.108 A 
ENDBRANCH   7   9
ENDBRANCH   1   7
BRANCH   2  15
ATOM     15  N   UNL d   1      33.109  18.845 -22.890  0.00  0.00    -0.301 N 
ATOM     16  C   UNL d   1      33.040  18.083 -22.581  0.00  0.00     0.100 C 
ATOM     17  C   UNL d   1      33.217  18.954 -23.700  0.00  0.00     0.100 C 
ENDBRANCH   2  15
TORSDOF 3
ENDMDL
