MODEL 1
REMARK VINA RESULT:      -8.3      0.000      0.000
REMARK  1 active torsions:
REMARK  status: ('A' for Active; 'I' for Inactive)
REMARK    1  A    between atoms: C_11  and  C_3 
ROOT
ATOM      1  C   UNL d   1     -47.609  12.982  23.170  0.00  0.00     0.052 A 
ATOM      2  C   UNL d   1     -46.969  12.536  23.471  0.00  0.00     0.115 A 
ATOM      3  C   UNL d   1     -48.285  12.521  23.193  0.00  0.00     0.011 A 
ATOM      4  C   UNL d   1     -47.475  13.790  22.903  0.00  0.00     0.139 A 
ATOM      5  N   UNL d   1     -46.185  12.890  23.510  0.00  0.00    -0.217 NA
ATOM      6  S   UNL d   1     -47.243  11.794  23.683  0.00  0.00    -0.067 SA
ATOM      7  C   UNL d   1     -48.066  11.785  23.510  0.00  0.00     0.037 A 
ATOM      8  N   UNL d   1     -46.717  14.111  22.948  0.00  0.00    -0.213 NA
ATOM      9  C   UNL d   1     -46.052  13.647  23.261  0.00  0.00     0.200 A 
ATOM     10  S   UNL d   1     -48.100  14.265  22.594  0.00  0.00    -0.057 SA
ENDROOT
BRANCH   3  11
ATOM     11  C   UNL d   1     -49.063  12.407  23.067  0.00  0.00     0.001 A 
ATOM     12  C   UNL d   1     -49.364  12.235  22.319  0.00  0.00     0.000 A 
ATOM     13  C   UNL d   1     -50.178  12.118  22.200  0.00  0.00     0.000 A 
ATOM     14  C   UNL d   1     -50.689  12.177  22.845  0.00  0.00     0.000 A 
ATOM     15  C   UNL d   1     -50.388  12.349  23.594  0.00  0.00     0.000 A 
ATOM     16  C   UNL d   1     -49.575  12.463  23.698  0.00  0.00     0.000 A 
ENDBRANCH   3  11
TORSDOF 1
ENDMDL
MODEL 2
REMARK VINA RESULT:      -8.1      1.549      2.023
REMARK  1 active torsions:
REMARK  status: ('A' for Active; 'I' for Inactive)
REMARK    1  A    between atoms: C_11  and  C_3 
ROOT
ATOM      1  C   UNL d   1     -47.420  12.772  23.199  0.00  0.00     0.052 A 
ATOM      2  C   UNL d   1     -46.596  12.909  23.206  0.00  0.00     0.115 A 
ATOM      3  C   UNL d   1     -47.797  13.449  22.934  0.00  0.00     0.011 A 
ATOM      4  C   UNL d   1     -47.727  12.007  23.448  0.00  0.00     0.139 A 
ATOM      5  N   UNL d   1     -46.063  12.282  23.462  0.00  0.00    -0.217 NA
ATOM      6  S   UNL d   1     -46.453  13.671  22.946  0.00  0.00    -0.067 SA
ATOM      7  C   UNL d   1     -47.205  14.010  22.776  0.00  0.00     0.037 A 
ATOM      8  N   UNL d   1     -47.201  11.419  23.691  0.00  0.00    -0.213 NA
ATOM      9  C   UNL d   1     -46.344  11.561  23.698  0.00  0.00     0.200 A 
ATOM     10  S   UNL d   1     -48.553  11.839  23.452  0.00  0.00    -0.057 SA
ENDROOT
BRANCH   3  11
ATOM     11  C   UNL d   1     -48.451  13.862  22.745  0.00  0.00     0.001 A 
ATOM     12  C   UNL d   1     -48.810  13.796  22.005  0.00  0.00     0.000 A 
ATOM     13  C   UNL d   1     -49.493  14.231  21.819  0.00  0.00     0.000 A 
ATOM     14  C   UNL d   1     -49.812  14.737  22.388  0.00  0.00     0.000 A 
ATOM     15  C   UNL d   1     -49.453  14.803  23.127  0.00  0.00     0.000 A 
ATOM     16  C   UNL d   1     -48.774  14.363  23.300  0.00  0.00     0.000 A 
ENDBRANCH   3  11
TORSDOF 1
ENDMDL
MODEL 3
REMARK VINA RESULT:      -7.7      1.614      3.329
REMARK  1 active torsions:
REMARK  status: ('A' for Active; 'I' for Inactive)
REMARK    1  A    between atoms: C_11  and  C_3 
ROOT
ATOM      1  C   UNL d   1     -48.867  12.624  22.724  0.00  0.00     0.052 A 
ATOM      2  C   UNL d   1     -49.558  12.856  22.315  0.00  0.00     0.115 A 
ATOM      3  C   UNL d   1     -48.252  13.116  22.503  0.00  0.00     0.011 A 
ATOM      4  C   UNL d   1     -48.900  11.958  23.270  0.00  0.00     0.139 A 
ATOM      5  N   UNL d   1     -50.293  12.427  22.445  0.00  0.00    -0.217 NA
ATOM      6  S   UNL d   1     -49.378  13.495  21.837  0.00  0.00    -0.067 SA
ATOM      7  C   UNL d   1     -48.561  13.658  21.954  0.00  0.00     0.037 A 
ATOM      8  N   UNL d   1     -49.614  11.560  23.381  0.00  0.00    -0.213 NA
ATOM      9  C   UNL d   1     -50.332  11.802  22.956  0.00  0.00     0.200 A 
ATOM     10  S   UNL d   1     -48.220  11.700  23.698  0.00  0.00    -0.057 SA
ENDROOT
BRANCH   3  11
ATOM     11  C   UNL d   1     -47.493  13.354  22.541  0.00  0.00     0.001 A 
ATOM     12  C   UNL d   1     -46.883  12.925  22.186  0.00  0.00     0.000 A 
ATOM     13  C   UNL d   1     -46.095  13.183  22.232  0.00  0.00     0.000 A 
ATOM     14  C   UNL d   1     -45.924  13.880  22.640  0.00  0.00     0.000 A 
ATOM     15  C   UNL d   1     -46.534  14.308  22.994  0.00  0.00     0.000 A 
ATOM     16  C   UNL d   1     -47.315  14.040  22.941  0.00  0.00     0.000 A 
ENDBRANCH   3  11
TORSDOF 1
ENDMDL
MODEL 4
REMARK VINA RESULT:      -7.6      2.147      3.487
REMARK  1 active torsions:
REMARK  status: ('A' for Active; 'I' for Inactive)
REMARK    1  A    between atoms: C_11  and  C_3 
ROOT
ATOM      1  C   UNL d   1     -49.195  13.919  22.208  0.00  0.00     0.052 A 
ATOM      2  C   UNL d   1     -49.766  14.474  22.462  0.00  0.00     0.115 A 
ATOM      3  C   UNL d   1     -48.502  14.045  22.625  0.00  0.00     0.011 A 
ATOM      4  C   UNL d   1     -49.400  13.347  21.598  0.00  0.00     0.139 A 
ATOM      5  N   UNL d   1     -50.552  14.465  22.111  0.00  0.00    -0.217 NA
ATOM      6  S   UNL d   1     -49.433  14.949  23.039  0.00  0.00    -0.067 SA
ATOM      7  C   UNL d   1     -48.642  14.681  23.141  0.00  0.00     0.037 A 
ATOM      8  N   UNL d   1     -50.158  13.354  21.274  0.00  0.00    -0.213 NA
ATOM      9  C   UNL d   1     -50.752  13.931  21.538  0.00  0.00     0.200 A 
ATOM     10  S   UNL d   1     -48.845  12.775  21.320  0.00  0.00    -0.057 SA
ENDROOT
BRANCH   3  11
ATOM     11  C   UNL d   1     -47.744  13.872  22.799  0.00  0.00     0.001 A 
ATOM     12  C   UNL d   1     -47.539  13.208  23.242  0.00  0.00     0.000 A 
ATOM     13  C   UNL d   1     -46.744  13.038  23.417  0.00  0.00     0.000 A 
ATOM     14  C   UNL d   1     -46.156  13.546  23.141  0.00  0.00     0.000 A 
ATOM     15  C   UNL d   1     -46.362  14.210  22.697  0.00  0.00     0.000 A 
ATOM     16  C   UNL d   1     -47.156  14.368  22.530  0.00  0.00     0.000 A 
ENDBRANCH   3  11
TORSDOF 1
ENDMDL
MODEL 5
REMARK VINA RESULT:      -7.1      2.074      2.923
REMARK  1 active torsions:
REMARK  status: ('A' for Active; 'I' for Inactive)
REMARK    1  A    between atoms: C_11  and  C_3 
ROOT
ATOM      1  C   UNL d   1     -49.551  14.393  23.119  0.00  0.00     0.052 A 
ATOM      2  C   UNL d   1     -49.235  15.143  22.931  0.00  0.00     0.115 A 
ATOM      3  C   UNL d   1     -49.016  13.817  22.888  0.00  0.00     0.011 A 
ATOM      4  C   UNL d   1     -50.324  14.338  23.495  0.00  0.00     0.139 A 
ATOM      5  N   UNL d   1     -49.687  15.853  23.115  0.00  0.00    -0.217 NA
ATOM      6  S   UNL d   1     -48.502  15.041  22.581  0.00  0.00    -0.067 SA
ATOM      7  C   UNL d   1     -48.365  14.210  22.555  0.00  0.00     0.037 A 
ATOM      8  N   UNL d   1     -50.741  15.029  23.664  0.00  0.00    -0.213 NA
ATOM      9  C   UNL d   1     -50.413  15.810  23.468  0.00  0.00     0.200 A 
ATOM     10  S   UNL d   1     -50.669  13.596  23.697  0.00  0.00    -0.057 SA
ENDROOT
BRANCH   3  11
ATOM     11  C   UNL d   1     -48.789  13.057  22.815  0.00  0.00     0.001 A 
ATOM     12  C   UNL d   1     -49.036  12.587  22.184  0.00  0.00     0.000 A 
ATOM     13  C   UNL d   1     -48.792  11.795  22.118  0.00  0.00     0.000 A 
ATOM     14  C   UNL d   1     -48.294  11.480  22.696  0.00  0.00     0.000 A 
ATOM     15  C   UNL d   1     -48.047  11.952  23.326  0.00  0.00     0.000 A 
ATOM     16  C   UNL d   1     -48.298  12.738  23.380  0.00  0.00     0.000 A 
ENDBRANCH   3  11
TORSDOF 1
ENDMDL
