MODEL 1
REMARK VINA RESULT:      -6.9      0.000      0.000
REMARK  3 active torsions:
REMARK  status: ('A' for Active; 'I' for Inactive)
REMARK    1  A    between atoms: N_3  and  C_1 
REMARK       I    between atoms: C_5  and  N_3 
REMARK    2  A    between atoms: C_14  and  C_4 
REMARK       I    between atoms: N_8  and  C_5 
REMARK    3  A    between atoms: C_11  and  N_8 
ROOT
ATOM      1  N   UNL d   1     -48.500  12.438  23.052  0.00  0.00    -0.166 NA
ATOM      2  C   UNL d   1     -48.973  11.815  22.934  0.00  0.00     0.370 C 
ATOM      3  N   UNL d   1     -49.769  11.913  22.862  0.00  0.00    -0.191 NA
ATOM      4  O   UNL d   1     -48.661  11.052  22.882  0.00  0.00    -0.242 OA
ENDROOT
BRANCH   1   5
ATOM      5  C   UNL d   1     -47.702  12.335  23.124  0.00  0.00     0.199 A 
ATOM      6  N   UNL d   1     -47.147  12.643  22.629  0.00  0.00    -0.221 NA
ATOM      7  C   UNL d   1     -46.412  12.405  22.902  0.00  0.00     0.090 A 
ATOM      8  C   UNL d   1     -46.536  11.945  23.575  0.00  0.00     0.058 A 
ATOM      9  S   UNL d   1     -47.347  11.913  23.698  0.00  0.00    -0.046 SA
BRANCH   7  10
ATOM     10  C   UNL d   1     -45.696  12.589  22.571  0.00  0.00     0.018 A 
ATOM     11  C   UNL d   1     -45.563  13.333  22.226  0.00  0.00     0.002 A 
ATOM     12  C   UNL d   1     -44.833  13.518  21.889  0.00  0.00     0.000 A 
ATOM     13  C   UNL d   1     -44.232  12.971  21.891  0.00  0.00     0.000 A 
ATOM     14  C   UNL d   1     -44.351  12.222  22.233  0.00  0.00     0.000 A 
ATOM     15  C   UNL d   1     -45.087  12.026  22.576  0.00  0.00     0.002 A 
ENDBRANCH   7  10
ENDBRANCH   1   5
BRANCH   3  16
ATOM     16  C   UNL d   1     -50.099  12.675  22.911  0.00  0.00     0.087 A 
ATOM     17  C   UNL d   1     -50.244  13.086  22.248  0.00  0.00     0.032 A 
ATOM     18  C   UNL d   1     -50.562  13.823  22.279  0.00  0.00     0.070 A 
ATOM     19 CL   UNL d   1     -50.713  14.254  21.573  0.00  0.00    -0.081 Cl
ATOM     20  C   UNL d   1     -50.742  14.163  22.974  0.00  0.00     0.068 A 
ATOM     21  C   UNL d   1     -50.599  13.749  23.686  0.00  0.00     0.014 A 
ATOM     22 CL   UNL d   1     -51.064  14.908  23.005  0.00  0.00    -0.082 Cl
ATOM     23  C   UNL d   1     -50.280  13.011  23.655  0.00  0.00     0.020 A 
ENDBRANCH   3  16
TORSDOF 3
ENDMDL
MODEL 2
REMARK VINA RESULT:      -6.9      8.926      9.852
REMARK  3 active torsions:
REMARK  status: ('A' for Active; 'I' for Inactive)
REMARK    1  A    between atoms: N_3  and  C_1 
REMARK       I    between atoms: C_5  and  N_3 
REMARK    2  A    between atoms: C_14  and  C_4 
REMARK       I    between atoms: N_8  and  C_5 
REMARK    3  A    between atoms: C_11  and  N_8 
ROOT
ATOM      1  N   UNL d   1     -40.191  14.692  19.062  0.00  0.00    -0.166 NA
ATOM      2  C   UNL d   1     -40.706  14.199  18.719  0.00  0.00     0.370 C 
ATOM      3  N   UNL d   1     -40.726  14.122  17.917  0.00  0.00    -0.191 NA
ATOM      4  O   UNL d   1     -41.233  13.754  19.174  0.00  0.00    -0.242 OA
ENDROOT
BRANCH   1   5
ATOM      5  C   UNL d   1     -40.174  14.767  19.867  0.00  0.00     0.199 A 
ATOM      6  N   UNL d   1     -39.598  14.475  20.348  0.00  0.00    -0.221 NA
ATOM      7  C   UNL d   1     -39.796  14.675  21.119  0.00  0.00     0.090 A 
ATOM      8  C   UNL d   1     -40.505  15.095  21.091  0.00  0.00     0.058 A 
ATOM      9  S   UNL d   1     -40.725  15.142  20.302  0.00  0.00    -0.046 SA
BRANCH   7  10
ATOM     10  C   UNL d   1     -39.371  14.492  21.784  0.00  0.00     0.018 A 
ATOM     11  C   UNL d   1     -39.302  13.706  22.044  0.00  0.00     0.002 A 
ATOM     12  C   UNL d   1     -38.869  13.523  22.722  0.00  0.00     0.000 A 
ATOM     13  C   UNL d   1     -38.504  14.112  23.145  0.00  0.00     0.000 A 
ATOM     14  C   UNL d   1     -38.565  14.904  22.897  0.00  0.00     0.000 A 
ATOM     15  C   UNL d   1     -39.001  15.099  22.212  0.00  0.00     0.002 A 
ENDBRANCH   7  10
ENDBRANCH   1   5
BRANCH   3  16
ATOM     16  C   UNL d   1     -40.203  14.563  17.445  0.00  0.00     0.087 A 
ATOM     17  C   UNL d   1     -39.519  14.239  17.207  0.00  0.00     0.032 A 
ATOM     18  C   UNL d   1     -39.002  14.651  16.749  0.00  0.00     0.070 A 
ATOM     19 CL   UNL d   1     -38.279  14.302  16.500  0.00  0.00    -0.081 Cl
ATOM     20  C   UNL d   1     -39.160  15.395  16.523  0.00  0.00     0.068 A 
ATOM     21  C   UNL d   1     -39.874  15.758  16.762  0.00  0.00     0.014 A 
ATOM     22 CL   UNL d   1     -38.637  15.813  16.061  0.00  0.00    -0.082 Cl
ATOM     23  C   UNL d   1     -40.391  15.345  17.219  0.00  0.00     0.020 A 
ENDBRANCH   3  16
TORSDOF 3
ENDMDL
MODEL 3
REMARK VINA RESULT:      -6.5      1.751      2.391
REMARK  3 active torsions:
REMARK  status: ('A' for Active; 'I' for Inactive)
REMARK    1  A    between atoms: N_3  and  C_1 
REMARK       I    between atoms: C_5  and  N_3 
REMARK    2  A    between atoms: C_14  and  C_4 
REMARK       I    between atoms: N_8  and  C_5 
REMARK    3  A    between atoms: C_11  and  N_8 
ROOT
ATOM      1  N   UNL d   1     -47.004  13.237  22.607  0.00  0.00    -0.166 NA
ATOM      2  C   UNL d   1     -47.092  13.981  22.862  0.00  0.00     0.370 C 
ATOM      3  N   UNL d   1     -47.821  14.324  22.876  0.00  0.00    -0.191 NA
ATOM      4  O   UNL d   1     -46.442  14.420  23.118  0.00  0.00    -0.242 OA
ENDROOT
BRANCH   1   5
ATOM      5  C   UNL d   1     -46.272  12.896  22.594  0.00  0.00     0.199 A 
ATOM      6  N   UNL d   1     -46.073  12.208  22.961  0.00  0.00    -0.221 NA
ATOM      7  C   UNL d   1     -45.281  12.064  22.807  0.00  0.00     0.090 A 
ATOM      8  C   UNL d   1     -45.004  12.684  22.337  0.00  0.00     0.058 A 
ATOM      9  S   UNL d   1     -45.637  13.193  22.215  0.00  0.00    -0.046 SA
BRANCH   7  10
ATOM     10  C   UNL d   1     -44.849  11.431  23.068  0.00  0.00     0.018 A 
ATOM     11  C   UNL d   1     -44.024  11.410  22.977  0.00  0.00     0.002 A 
ATOM     12  C   UNL d   1     -43.586  10.763  23.244  0.00  0.00     0.000 A 
ATOM     13  C   UNL d   1     -43.960  10.137  23.600  0.00  0.00     0.000 A 
ATOM     14  C   UNL d   1     -44.786  10.143  23.698  0.00  0.00     0.000 A 
ATOM     15  C   UNL d   1     -45.237  10.794  23.431  0.00  0.00     0.002 A 
ENDBRANCH   7  10
ENDBRANCH   1   5
BRANCH   3  16
ATOM     16  C   UNL d   1     -48.487  13.896  22.621  0.00  0.00     0.087 A 
ATOM     17  C   UNL d   1     -48.940  13.519  23.152  0.00  0.00     0.032 A 
ATOM     18  C   UNL d   1     -49.587  13.101  22.922  0.00  0.00     0.070 A 
ATOM     19 CL   UNL d   1     -50.063  12.705  23.491  0.00  0.00    -0.081 Cl
ATOM     20  C   UNL d   1     -49.792  13.051  22.157  0.00  0.00     0.068 A 
ATOM     21  C   UNL d   1     -49.329  13.439  21.579  0.00  0.00     0.014 A 
ATOM     22 CL   UNL d   1     -50.446  12.628  21.925  0.00  0.00    -0.082 Cl
ATOM     23  C   UNL d   1     -48.682  13.858  21.809  0.00  0.00     0.020 A 
ENDBRANCH   3  16
TORSDOF 3
ENDMDL
MODEL 4
REMARK VINA RESULT:      -5.0      8.251     10.110
REMARK  3 active torsions:
REMARK  status: ('A' for Active; 'I' for Inactive)
REMARK    1  A    between atoms: N_3  and  C_1 
REMARK       I    between atoms: C_5  and  N_3 
REMARK    2  A    between atoms: C_14  and  C_4 
REMARK       I    between atoms: N_8  and  C_5 
REMARK    3  A    between atoms: C_11  and  N_8 
ROOT
ATOM      1  N   UNL d   1     -39.111  15.268  19.545  0.00  0.00    -0.166 NA
ATOM      2  C   UNL d   1     -38.749  15.587  20.171  0.00  0.00     0.370 C 
ATOM      3  N   UNL d   1     -39.108  15.592  20.893  0.00  0.00    -0.191 NA
ATOM      4  O   UNL d   1     -37.997  15.922  20.101  0.00  0.00    -0.242 OA
ENDROOT
BRANCH   1   5
ATOM      5  C   UNL d   1     -38.748  15.265  18.823  0.00  0.00     0.199 A 
ATOM      6  N   UNL d   1     -38.819  14.686  18.269  0.00  0.00    -0.221 NA
ATOM      7  C   UNL d   1     -38.362  14.902  17.624  0.00  0.00     0.090 A 
ATOM      8  C   UNL d   1     -38.011  15.628  17.801  0.00  0.00     0.058 A 
ATOM      9  S   UNL d   1     -38.264  15.838  18.554  0.00  0.00    -0.046 SA
BRANCH   7  10
ATOM     10  C   UNL d   1     -38.271  14.480  16.938  0.00  0.00     0.018 A 
ATOM     11  C   UNL d   1     -38.139  13.660  16.956  0.00  0.00     0.002 A 
ATOM     12  C   UNL d   1     -38.046  13.233  16.256  0.00  0.00     0.000 A 
ATOM     13  C   UNL d   1     -38.085  13.611  15.539  0.00  0.00     0.000 A 
ATOM     14  C   UNL d   1     -38.217  14.431  15.506  0.00  0.00     0.000 A 
ATOM     15  C   UNL d   1     -38.311  14.872  16.208  0.00  0.00     0.002 A 
ENDBRANCH   7  10
ENDBRANCH   1   5
BRANCH   3  16
ATOM     16  C   UNL d   1     -39.865  15.259  20.981  0.00  0.00     0.087 A 
ATOM     17  C   UNL d   1     -40.507  15.725  20.948  0.00  0.00     0.032 A 
ATOM     18  C   UNL d   1     -41.246  15.419  21.031  0.00  0.00     0.070 A 
ATOM     19 CL   UNL d   1     -41.921  15.918  20.995  0.00  0.00    -0.081 Cl
ATOM     20  C   UNL d   1     -41.356  14.642  21.150  0.00  0.00     0.068 A 
ATOM     21  C   UNL d   1     -40.695  14.132  21.189  0.00  0.00     0.014 A 
ATOM     22 CL   UNL d   1     -42.103  14.333  21.235  0.00  0.00    -0.082 Cl
ATOM     23  C   UNL d   1     -39.956  14.438  21.105  0.00  0.00     0.020 A 
ENDBRANCH   3  16
TORSDOF 3
ENDMDL
