MODEL 1
REMARK VINA RESULT:      42.5      0.000      0.000
REMARK  3 active torsions:
REMARK  status: ('A' for Active; 'I' for Inactive)
REMARK    1  A    between atoms: C_8  and  C_1 
REMARK    2  A    between atoms: N_5  and  C_2 
REMARK       I    between atoms: C_7  and  N_5 
REMARK    3  A    between atoms: C_10  and  C_7 
ROOT
ATOM      1  C   UNL d   1     -51.882  24.441  33.423  0.00  0.00     0.212 A 
ATOM      2  C   UNL d   1     -50.910  25.357  33.373  0.00  0.00     0.297 A 
ATOM      3  O   UNL d   1     -51.727  25.250  33.330  0.00  0.00    -0.253 OA
ATOM      4  N   UNL d   1     -51.164  24.060  33.523  0.00  0.00    -0.119 NA
ATOM      5  N   UNL d   1     -50.564  24.625  33.492  0.00  0.00    -0.101 NA
ENDROOT
BRANCH   2   6
ATOM      6  N   UNL d   1     -50.520  26.080  33.307  0.00  0.00    -0.165 NA
ATOM      7  C   UNL d   1     -50.665  26.676  33.846  0.00  0.00     0.282 C 
ATOM      8  O   UNL d   1     -51.202  26.563  34.464  0.00  0.00    -0.265 OA
BRANCH   7   9
ATOM      9  C   UNL d   1     -50.272  27.402  33.779  0.00  0.00     0.060 A 
ATOM     10  C   UNL d   1     -49.473  27.469  33.976  0.00  0.00     0.034 A 
ATOM     11  C   UNL d   1     -49.089  28.193  33.907  0.00  0.00     0.140 A 
ATOM     12  F   UNL d   1     -48.278  28.262  34.107  0.00  0.00    -0.204 F 
ATOM     13  C   UNL d   1     -49.499  28.858  33.641  0.00  0.00     0.030 A 
ATOM     14  C   UNL d   1     -50.294  28.790  33.445  0.00  0.00     0.003 A 
ATOM     15  C   UNL d   1     -50.681  28.071  33.512  0.00  0.00     0.005 A 
ENDBRANCH   7   9
ENDBRANCH   2   6
BRANCH   1  16
ATOM     16  C   UNL d   1     -52.633  24.091  33.416  0.00  0.00     0.072 A 
ATOM     17  S   UNL d   1     -52.795  23.292  33.515  0.00  0.00    -0.083 SA
ATOM     18  C   UNL d   1     -53.611  23.191  33.468  0.00  0.00     0.035 A 
ATOM     19  C   UNL d   1     -53.956  23.933  33.338  0.00  0.00     0.008 A 
ATOM     20  C   UNL d   1     -53.346  24.491  33.306  0.00  0.00     0.011 A 
ENDBRANCH   1  16
TORSDOF 3
ENDMDL
