MODEL 1
REMARK VINA RESULT:      32.1      0.000      0.000
REMARK  4 active torsions:
REMARK  status: ('A' for Active; 'I' for Inactive)
REMARK    1  A    between atoms: C_6  and  N_1 
REMARK    2  A    between atoms: C_10  and  C_4 
REMARK    3  A    between atoms: C_8  and  C_6 
REMARK    4  A    between atoms: C_9  and  C_8 
ROOT
ATOM      1  N   UNL d   1      14.235  13.620  -2.559  0.00  0.00    -0.305 N 
ATOM      2  C   UNL d   1      13.522  12.780  -3.324  0.00  0.00     0.057 A 
ATOM      3  C   UNL d   1      13.856  13.544  -3.288  0.00  0.00     0.067 A 
ATOM      4  C   UNL d   1      14.141  12.925  -2.148  0.00  0.00     0.064 A 
ATOM      5  C   UNL d   1      13.700  12.397  -2.615  0.00  0.00     0.022 A 
ATOM      6  C   UNL d   1      13.105  12.543  -3.993  0.00  0.00     0.197 A 
ATOM      7  O   UNL d   1      12.770  11.779  -4.028  0.00  0.00    -0.286 OA
ATOM      8  C   UNL d   1      13.769  14.062  -3.923  0.00  0.00     0.018 A 
ATOM      9  C   UNL d   1      13.018  13.061  -4.627  0.00  0.00     0.042 A 
ATOM     10  C   UNL d   1      13.347  13.811  -4.592  0.00  0.00     0.005 A 
ENDROOT
BRANCH   4  11
ATOM     11  C   UNL d   1      14.324  12.536  -1.426  0.00  0.00     0.016 A 
ATOM     12  C   UNL d   1      15.105  12.460  -1.187  0.00  0.00     0.001 A 
ATOM     13  C   UNL d   1      15.286  12.081  -0.481  0.00  0.00     0.000 A 
ATOM     14  C   UNL d   1      14.668  11.779  -0.019  0.00  0.00     0.000 A 
ATOM     15  C   UNL d   1      13.885  11.851  -0.252  0.00  0.00     0.000 A 
ATOM     16  C   UNL d   1      13.708  12.232  -0.960  0.00  0.00     0.001 A 
ENDBRANCH   4  11
BRANCH   1  17
ATOM     17  C   UNL d   1      14.648  14.281  -2.268  0.00  0.00     0.086 C 
BRANCH  17  18
ATOM     18  C   UNL d   1      14.229  14.984  -2.123  0.00  0.00     0.089 C 
BRANCH  18  19
ATOM     19  C   UNL d   1      14.624  15.685  -1.941  0.00  0.00     0.213 C 
ATOM     20  O   UNL d   1      14.777  15.881  -1.159  0.00  0.00    -0.644 OA
ATOM     21  O   UNL d   1      14.874  16.206  -2.526  0.00  0.00    -0.644 OA
ENDBRANCH  18  19
ENDBRANCH  17  18
ENDBRANCH   1  17
TORSDOF 4
ENDMDL
MODEL 2
REMARK VINA RESULT:      32.9      1.165      2.980
REMARK  4 active torsions:
REMARK  status: ('A' for Active; 'I' for Inactive)
REMARK    1  A    between atoms: C_6  and  N_1 
REMARK    2  A    between atoms: C_10  and  C_4 
REMARK    3  A    between atoms: C_8  and  C_6 
REMARK    4  A    between atoms: C_9  and  C_8 
ROOT
ATOM      1  N   UNL d   1      14.384  13.848  -2.242  0.00  0.00    -0.305 N 
ATOM      2  C   UNL d   1      14.424  12.892  -1.302  0.00  0.00     0.057 A 
ATOM      3  C   UNL d   1      14.649  13.676  -1.479  0.00  0.00     0.067 A 
ATOM      4  C   UNL d   1      14.005  13.191  -2.535  0.00  0.00     0.064 A 
ATOM      5  C   UNL d   1      14.024  12.593  -1.958  0.00  0.00     0.022 A 
ATOM      6  C   UNL d   1      14.615  12.564  -0.571  0.00  0.00     0.197 A 
ATOM      7  O   UNL d   1      14.390  11.779  -0.394  0.00  0.00    -0.286 OA
ATOM      8  C   UNL d   1      15.062  14.122  -0.924  0.00  0.00     0.018 A 
ATOM      9  C   UNL d   1      15.028  13.009  -0.016  0.00  0.00     0.042 A 
ATOM     10  C   UNL d   1      15.249  13.780  -0.191  0.00  0.00     0.005 A 
ENDROOT
BRANCH   4  11
ATOM     11  C   UNL d   1      13.597  12.888  -3.205  0.00  0.00     0.016 A 
ATOM     12  C   UNL d   1      13.508  12.078  -3.298  0.00  0.00     0.001 A 
ATOM     13  C   UNL d   1      13.110  11.779  -3.952  0.00  0.00     0.000 A 
ATOM     14  C   UNL d   1      12.804  12.310  -4.510  0.00  0.00     0.000 A 
ATOM     15  C   UNL d   1      12.889  13.121  -4.423  0.00  0.00     0.000 A 
ATOM     16  C   UNL d   1      13.289  13.416  -3.766  0.00  0.00     0.001 A 
ENDBRANCH   4  11
BRANCH   1  17
ATOM     17  C   UNL d   1      14.476  14.560  -2.663  0.00  0.00     0.086 C 
BRANCH  17  18
ATOM     18  C   UNL d   1      14.603  15.263  -2.238  0.00  0.00     0.089 C 
BRANCH  18  19
ATOM     19  C   UNL d   1      14.768  15.971  -2.627  0.00  0.00     0.213 C 
ATOM     20  O   UNL d   1      14.868  15.980  -3.441  0.00  0.00    -0.644 OA
ATOM     21  O   UNL d   1      14.837  16.682  -2.222  0.00  0.00    -0.644 OA
ENDBRANCH  18  19
ENDBRANCH  17  18
ENDBRANCH   1  17
TORSDOF 4
ENDMDL
