MODEL 1
REMARK VINA RESULT:      56.5      0.000      0.000
REMARK  4 active torsions:
REMARK  status: ('A' for Active; 'I' for Inactive)
REMARK    1  A    between atoms: C_16  and  N_3 
REMARK    2  A    between atoms: S_12  and  C_6 
REMARK    3  A    between atoms: C_10  and  C_14 
REMARK       I    between atoms: N_11  and  C_10 
REMARK    4  A    between atoms: C_14  and  S_12 
ROOT
ATOM      1  C   UNL d   1      14.111  12.535  -2.063  0.00  0.00     0.155 A 
ATOM      2  C   UNL d   1      14.032  13.199  -2.556  0.00  0.00     0.107 A 
ATOM      3  N   UNL d   1      14.808  13.320  -1.107  0.00  0.00    -0.252 N 
ATOM      4  C   UNL d   1      14.495  12.599  -1.350  0.00  0.00     0.285 A 
ATOM      5  N   UNL d   1      14.345  13.921  -2.313  0.00  0.00    -0.220 NA
ATOM      6  C   UNL d   1      14.733  13.982  -1.589  0.00  0.00     0.182 A 
ATOM      7  N   UNL d   1      13.749  11.903  -2.447  0.00  0.00    -0.239 NA
ATOM      8  C   UNL d   1      13.627  12.970  -3.227  0.00  0.00     0.037 A 
ATOM      9  C   UNL d   1      13.450  12.170  -3.165  0.00  0.00     0.083 A 
ATOM     10  O   UNL d   1      14.570  11.931  -0.864  0.00  0.00    -0.265 OA
ATOM     11  C   UNL d   1      13.395  13.392  -3.892  0.00  0.00     0.003 A 
ATOM     12  C   UNL d   1      13.041  11.793  -3.767  0.00  0.00     0.019 A 
ATOM     13  C   UNL d   1      12.987  13.015  -4.494  0.00  0.00     0.000 A 
ATOM     14  C   UNL d   1      12.812  12.210  -4.425  0.00  0.00     0.002 A 
ENDROOT
BRANCH   6  15
ATOM     15  S   UNL d   1      14.659  16.353  -2.938  0.00  0.00    -0.044 SA
BRANCH  15  16
ATOM     16  C   UNL d   1      15.177  16.475  -3.700  0.00  0.00     0.099 C 
BRANCH  16  17
ATOM     17  C   UNL d   1      14.764  16.540  -4.531  0.00  0.00     0.272 C 
ATOM     18  N   UNL d   1      14.667  17.362  -4.939  0.00  0.00    -0.267 N 
ATOM     19  C   UNL d   1      14.264  17.427  -5.749  0.00  0.00     0.110 A 
ATOM     20  C   UNL d   1      14.985  18.110  -4.512  0.00  0.00     0.110 A 
ATOM     21  C   UNL d   1      14.165  18.254  -6.164  0.00  0.00     0.142 A 
ATOM     22  O   UNL d   1      14.478  19.009  -5.746  0.00  0.00    -0.300 OA
ATOM     23  C   UNL d   1      14.892  18.942  -4.915  0.00  0.00     0.142 A 
ATOM     24  O   UNL d   1      14.446  15.786  -4.957  0.00  0.00    -0.266 OA
ENDBRANCH  16  17
ENDBRANCH  15  16
ENDBRANCH   6  15
BRANCH   3  25
ATOM     25  C   UNL d   1      15.246  13.388  -0.289  0.00  0.00     0.085 C 
ATOM     26  C   UNL d   1      15.840  14.079  -0.142  0.00  0.00     0.021 C 
ENDBRANCH   3  25
TORSDOF 4
ENDMDL
MODEL 2
REMARK VINA RESULT:      56.6      1.001      2.715
REMARK  4 active torsions:
REMARK  status: ('A' for Active; 'I' for Inactive)
REMARK    1  A    between atoms: C_16  and  N_3 
REMARK    2  A    between atoms: S_12  and  C_6 
REMARK    3  A    between atoms: C_10  and  C_14 
REMARK       I    between atoms: N_11  and  C_10 
REMARK    4  A    between atoms: C_14  and  S_12 
ROOT
ATOM      1  C   UNL d   1      13.856  12.737  -2.372  0.00  0.00     0.155 A 
ATOM      2  C   UNL d   1      14.250  13.469  -2.358  0.00  0.00     0.107 A 
ATOM      3  N   UNL d   1      13.401  13.002  -3.691  0.00  0.00    -0.252 N 
ATOM      4  C   UNL d   1      13.439  12.511  -3.032  0.00  0.00     0.285 A 
ATOM      5  N   UNL d   1      14.211  13.960  -3.018  0.00  0.00    -0.220 NA
ATOM      6  C   UNL d   1      13.787  13.727  -3.684  0.00  0.00     0.182 A 
ATOM      7  N   UNL d   1      13.992  12.374  -1.646  0.00  0.00    -0.239 NA
ATOM      8  C   UNL d   1      14.617  13.544  -1.632  0.00  0.00     0.037 A 
ATOM      9  C   UNL d   1      14.461  12.871  -1.189  0.00  0.00     0.083 A 
ATOM     10  O   UNL d   1      13.049  11.779  -3.038  0.00  0.00    -0.265 OA
ATOM     11  C   UNL d   1      15.078  14.147  -1.317  0.00  0.00     0.003 A 
ATOM     12  C   UNL d   1      14.765  12.800  -0.431  0.00  0.00     0.019 A 
ATOM     13  C   UNL d   1      15.382  14.076  -0.560  0.00  0.00     0.000 A 
ATOM     14  C   UNL d   1      15.221  13.396  -0.120  0.00  0.00     0.002 A 
ENDROOT
BRANCH   6  15
ATOM     15  S   UNL d   1      14.946  16.179  -3.988  0.00  0.00    -0.044 SA
BRANCH  15  16
ATOM     16  C   UNL d   1      14.587  16.797  -4.583  0.00  0.00     0.099 C 
BRANCH  16  17
ATOM     17  C   UNL d   1      14.953  17.650  -4.637  0.00  0.00     0.272 C 
ATOM     18  N   UNL d   1      14.597  18.274  -5.216  0.00  0.00    -0.267 N 
ATOM     19  C   UNL d   1      14.954  19.106  -5.270  0.00  0.00     0.110 A 
ATOM     20  C   UNL d   1      13.878  18.038  -5.736  0.00  0.00     0.110 A 
ATOM     21  C   UNL d   1      14.598  19.737  -5.853  0.00  0.00     0.142 A 
ATOM     22  O   UNL d   1      13.879  19.513  -6.377  0.00  0.00    -0.300 OA
ATOM     23  C   UNL d   1      13.512  18.658  -6.322  0.00  0.00     0.142 A 
ATOM     24  O   UNL d   1      15.676  17.883  -4.113  0.00  0.00    -0.266 OA
ENDBRANCH  16  17
ENDBRANCH  15  16
ENDBRANCH   6  15
BRANCH   3  25
ATOM     25  C   UNL d   1      12.922  12.738  -4.443  0.00  0.00     0.085 C 
ATOM     26  C   UNL d   1      13.287  12.126  -5.030  0.00  0.00     0.021 C 
ENDBRANCH   3  25
TORSDOF 4
ENDMDL
MODEL 3
REMARK VINA RESULT:      58.2      2.275      3.774
REMARK  4 active torsions:
REMARK  status: ('A' for Active; 'I' for Inactive)
REMARK    1  A    between atoms: C_16  and  N_3 
REMARK    2  A    between atoms: S_12  and  C_6 
REMARK    3  A    between atoms: C_10  and  C_14 
REMARK       I    between atoms: N_11  and  C_10 
REMARK    4  A    between atoms: C_14  and  S_12 
ROOT
ATOM      1  C   UNL d   1      15.181  14.425  -0.662  0.00  0.00     0.155 A 
ATOM      2  C   UNL d   1      14.686  14.157  -1.272  0.00  0.00     0.107 A 
ATOM      3  N   UNL d   1      15.143  15.739  -1.199  0.00  0.00    -0.252 N 
ATOM      4  C   UNL d   1      15.404  15.206  -0.630  0.00  0.00     0.285 A 
ATOM      5  N   UNL d   1      14.424  14.691  -1.842  0.00  0.00    -0.220 NA
ATOM      6  C   UNL d   1      14.652  15.481  -1.806  0.00  0.00     0.182 A 
ATOM      7  N   UNL d   1      15.350  13.777  -0.183  0.00  0.00    -0.239 NA
ATOM      8  C   UNL d   1      14.558  13.358  -1.162  0.00  0.00     0.037 A 
ATOM      9  C   UNL d   1      14.966  13.118  -0.491  0.00  0.00     0.083 A 
ATOM     10  O   UNL d   1      15.899  15.465  -0.016  0.00  0.00    -0.265 OA
ATOM     11  C   UNL d   1      14.118  12.815  -1.592  0.00  0.00     0.003 A 
ATOM     12  C   UNL d   1      14.933  12.336  -0.250  0.00  0.00     0.019 A 
ATOM     13  C   UNL d   1      14.086  12.032  -1.352  0.00  0.00     0.000 A 
ATOM     14  C   UNL d   1      14.498  11.798  -0.675  0.00  0.00     0.002 A 
ENDROOT
BRANCH   6  15
ATOM     15  S   UNL d   1      13.030  14.959  -3.937  0.00  0.00    -0.044 SA
BRANCH  15  16
ATOM     16  C   UNL d   1      13.328  15.117  -4.804  0.00  0.00     0.099 C 
BRANCH  16  17
ATOM     17  C   UNL d   1      13.659  14.412  -5.312  0.00  0.00     0.272 C 
ATOM     18  N   UNL d   1      13.480  13.540  -5.070  0.00  0.00    -0.267 N 
ATOM     19  C   UNL d   1      13.802  12.852  -5.565  0.00  0.00     0.110 A 
ATOM     20  C   UNL d   1      12.972  13.382  -4.322  0.00  0.00     0.110 A 
ATOM     21  C   UNL d   1      13.624  11.971  -5.325  0.00  0.00     0.142 A 
ATOM     22  O   UNL d   1      13.118  11.801  -4.578  0.00  0.00    -0.300 OA
ATOM     23  C   UNL d   1      12.787  12.507  -4.070  0.00  0.00     0.142 A 
ATOM     24  O   UNL d   1      14.169  14.576  -6.064  0.00  0.00    -0.266 OA
ENDBRANCH  16  17
ENDBRANCH  15  16
ENDBRANCH   6  15
BRANCH   3  25
ATOM     25  C   UNL d   1      15.401  16.632  -1.158  0.00  0.00     0.085 C 
ATOM     26  C   UNL d   1      14.803  17.270  -0.863  0.00  0.00     0.021 C 
ENDBRANCH   3  25
TORSDOF 4
ENDMDL
