MODEL 1
REMARK VINA RESULT:      -7.3      0.000      0.000
REMARK  4 active torsions:
REMARK  status: ('A' for Active; 'I' for Inactive)
REMARK    1  A    between atoms: C_6  and  S_1 
REMARK    2  A    between atoms: N_12  and  S_1 
REMARK    3  A    between atoms: N_4  and  C_2 
REMARK       I    between atoms: C_7  and  N_4 
REMARK    4  A    between atoms: C_10  and  C_7 
ROOT
ATOM      1  C   UNL d   1     -46.364  12.198  23.399  0.00  0.00     0.197 A 
ATOM      2  N   UNL d   1     -46.184  12.998  23.314  0.00  0.00    -0.221 NA
ATOM      3  S   UNL d   1     -47.174  12.100  23.276  0.00  0.00    -0.047 SA
ATOM      4  C   UNL d   1     -48.432  13.883  22.809  0.00  0.00     0.105 A 
ATOM      5  C   UNL d   1     -47.497  12.846  23.115  0.00  0.00     0.051 A 
ATOM      6  C   UNL d   1     -46.890  13.404  23.137  0.00  0.00     0.090 A 
ATOM      7  C   UNL d   1     -48.271  13.087  22.950  0.00  0.00     0.021 A 
ATOM      8  C   UNL d   1     -47.816  14.443  22.832  0.00  0.00     0.015 A 
ATOM      9  C   UNL d   1     -47.051  14.201  22.995  0.00  0.00     0.020 A 
ENDROOT
BRANCH   1  10
ATOM     10  N   UNL d   1     -45.826  11.598  23.575  0.00  0.00    -0.182 NA
ATOM     11  C   UNL d   1     -45.147  11.480  23.145  0.00  0.00     0.287 C 
ATOM     12  O   UNL d   1     -44.977  11.968  22.508  0.00  0.00    -0.265 OA
BRANCH  11  13
ATOM     13  C   UNL d   1     -44.629  10.884  23.334  0.00  0.00     0.087 A 
ATOM     14  S   UNL d   1     -43.856  11.034  23.147  0.00  0.00    -0.082 SA
ATOM     15  C   UNL d   1     -43.396  10.399  23.363  0.00  0.00     0.036 A 
ATOM     16  C   UNL d   1     -43.900   9.835  23.696  0.00  0.00     0.008 A 
ATOM     17  C   UNL d   1     -44.659  10.129  23.680  0.00  0.00     0.012 A 
ENDBRANCH  11  13
ENDBRANCH   1  10
BRANCH   4  18
ATOM     18  S   UNL d   1     -49.198  14.134  22.644  0.00  0.00     0.272 S 
ATOM     19  O   UNL d   1     -48.936  13.947  21.685  0.00  0.00    -0.200 OA
ATOM     20  O   UNL d   1     -49.525  14.340  23.558  0.00  0.00    -0.200 OA
BRANCH  18  21
ATOM     21  N   UNL d   1     -49.909  14.347  22.280  0.00  0.00    -0.226 N 
ATOM     22  C   UNL d   1     -50.396  14.914  22.635  0.00  0.00     0.111 C 
ATOM     23  C   UNL d   1     -50.132  13.995  21.568  0.00  0.00     0.111 C 
ENDBRANCH  18  21
ENDBRANCH   4  18
TORSDOF 4
ENDMDL
MODEL 2
REMARK VINA RESULT:      -6.3      1.021      5.201
REMARK  4 active torsions:
REMARK  status: ('A' for Active; 'I' for Inactive)
REMARK    1  A    between atoms: C_6  and  S_1 
REMARK    2  A    between atoms: N_12  and  S_1 
REMARK    3  A    between atoms: N_4  and  C_2 
REMARK       I    between atoms: C_7  and  N_4 
REMARK    4  A    between atoms: C_10  and  C_7 
ROOT
ATOM      1  C   UNL d   1     -47.646  13.555  22.959  0.00  0.00     0.197 A 
ATOM      2  N   UNL d   1     -46.987  13.796  22.527  0.00  0.00    -0.221 NA
ATOM      3  S   UNL d   1     -47.468  12.838  23.325  0.00  0.00    -0.047 SA
ATOM      4  C   UNL d   1     -45.453  11.927  23.021  0.00  0.00     0.105 A 
ATOM      5  C   UNL d   1     -46.691  12.634  23.117  0.00  0.00     0.051 A 
ATOM      6  C   UNL d   1     -46.390  13.223  22.624  0.00  0.00     0.090 A 
ATOM      7  C   UNL d   1     -46.221  11.984  23.316  0.00  0.00     0.021 A 
ATOM      8  C   UNL d   1     -45.153  12.524  22.523  0.00  0.00     0.015 A 
ATOM      9  C   UNL d   1     -45.622  13.166  22.328  0.00  0.00     0.020 A 
ENDROOT
BRANCH   1  10
ATOM     10  N   UNL d   1     -48.362  13.962  23.016  0.00  0.00    -0.182 NA
ATOM     11  C   UNL d   1     -48.912  13.962  22.419  0.00  0.00     0.287 C 
ATOM     12  O   UNL d   1     -48.766  13.546  21.727  0.00  0.00    -0.265 OA
BRANCH  11  13
ATOM     13  C   UNL d   1     -49.611  14.369  22.493  0.00  0.00     0.087 A 
ATOM     14  S   UNL d   1     -50.259  13.990  22.187  0.00  0.00    -0.082 SA
ATOM     15  C   UNL d   1     -50.919  14.452  22.295  0.00  0.00     0.036 A 
ATOM     16  C   UNL d   1     -50.675  15.141  22.681  0.00  0.00     0.008 A 
ATOM     17  C   UNL d   1     -49.871  15.094  22.804  0.00  0.00     0.012 A 
ENDBRANCH  11  13
ENDBRANCH   1  10
BRANCH   4  18
ATOM     18  S   UNL d   1     -44.975  11.284  23.212  0.00  0.00     0.272 S 
ATOM     19  O   UNL d   1     -44.255  11.822  22.748  0.00  0.00    -0.200 OA
ATOM     20  O   UNL d   1     -45.629  10.702  23.680  0.00  0.00    -0.200 OA
BRANCH  18  21
ATOM     21  N   UNL d   1     -44.349  10.754  23.307  0.00  0.00    -0.226 N 
ATOM     22  C   UNL d   1     -44.478  10.036  23.697  0.00  0.00     0.111 C 
ATOM     23  C   UNL d   1     -43.600  10.940  23.013  0.00  0.00     0.111 C 
ENDBRANCH  18  21
ENDBRANCH   4  18
TORSDOF 4
ENDMDL
MODEL 3
REMARK VINA RESULT:      -5.6      1.477      1.739
REMARK  4 active torsions:
REMARK  status: ('A' for Active; 'I' for Inactive)
REMARK    1  A    between atoms: C_6  and  S_1 
REMARK    2  A    between atoms: N_12  and  S_1 
REMARK    3  A    between atoms: N_4  and  C_2 
REMARK       I    between atoms: C_7  and  N_4 
REMARK    4  A    between atoms: C_10  and  C_7 
ROOT
ATOM      1  C   UNL d   1     -46.372  13.652  22.708  0.00  0.00     0.197 A 
ATOM      2  N   UNL d   1     -46.562  14.447  22.596  0.00  0.00    -0.221 NA
ATOM      3  S   UNL d   1     -47.070  13.237  22.853  0.00  0.00    -0.047 SA
ATOM      4  C   UNL d   1     -49.011  14.338  22.879  0.00  0.00     0.105 A 
ATOM      5  C   UNL d   1     -47.697  13.780  22.830  0.00  0.00     0.051 A 
ATOM      6  C   UNL d   1     -47.388  14.528  22.672  0.00  0.00     0.090 A 
ATOM      7  C   UNL d   1     -48.512  13.685  22.934  0.00  0.00     0.021 A 
ATOM      8  C   UNL d   1     -48.695  15.092  22.719  0.00  0.00     0.015 A 
ATOM      9  C   UNL d   1     -47.888  15.182  22.617  0.00  0.00     0.020 A 
ENDROOT
BRANCH   1  10
ATOM     10  N   UNL d   1     -45.614  13.328  22.680  0.00  0.00    -0.182 NA
ATOM     11  C   UNL d   1     -45.302  13.005  22.003  0.00  0.00     0.287 C 
ATOM     12  O   UNL d   1     -45.746  12.993  21.314  0.00  0.00    -0.265 OA
BRANCH  11  13
ATOM     13  C   UNL d   1     -44.553  12.691  21.995  0.00  0.00     0.087 A 
ATOM     14  S   UNL d   1     -44.072  12.975  21.409  0.00  0.00    -0.082 SA
ATOM     15  C   UNL d   1     -43.343  12.619  21.461  0.00  0.00     0.036 A 
ATOM     16  C   UNL d   1     -43.371  12.096  22.099  0.00  0.00     0.008 A 
ATOM     17  C   UNL d   1     -44.114  12.136  22.431  0.00  0.00     0.012 A 
ENDBRANCH  11  13
ENDBRANCH   1  10
BRANCH   4  18
ATOM     18  S   UNL d   1     -49.824  14.256  22.981  0.00  0.00     0.272 S 
ATOM     19  O   UNL d   1     -49.875  14.975  22.271  0.00  0.00    -0.200 OA
ATOM     20  O   UNL d   1     -49.851  13.551  23.679  0.00  0.00    -0.200 OA
BRANCH  18  21
ATOM     21  N   UNL d   1     -50.646  14.323  22.935  0.00  0.00    -0.226 N 
ATOM     22  C   UNL d   1     -51.055  13.933  22.330  0.00  0.00     0.111 C 
ATOM     23  C   UNL d   1     -51.057  14.775  23.489  0.00  0.00     0.111 C 
ENDBRANCH  18  21
ENDBRANCH   4  18
TORSDOF 4
ENDMDL
MODEL 4
REMARK VINA RESULT:      -5.6      1.411      5.266
REMARK  4 active torsions:
REMARK  status: ('A' for Active; 'I' for Inactive)
REMARK    1  A    between atoms: C_6  and  S_1 
REMARK    2  A    between atoms: N_12  and  S_1 
REMARK    3  A    between atoms: N_4  and  C_2 
REMARK       I    between atoms: C_7  and  N_4 
REMARK    4  A    between atoms: C_10  and  C_7 
ROOT
ATOM      1  C   UNL d   1     -47.799  13.917  23.194  0.00  0.00     0.197 A 
ATOM      2  N   UNL d   1     -47.704  13.144  23.464  0.00  0.00    -0.221 NA
ATOM      3  S   UNL d   1     -47.116  14.134  22.784  0.00  0.00    -0.047 SA
ATOM      4  C   UNL d   1     -45.444  12.667  22.593  0.00  0.00     0.105 A 
ATOM      5  C   UNL d   1     -46.595  13.488  22.801  0.00  0.00     0.051 A 
ATOM      6  C   UNL d   1     -46.954  12.875  23.220  0.00  0.00     0.090 A 
ATOM      7  C   UNL d   1     -45.838  13.384  22.486  0.00  0.00     0.021 A 
ATOM      8  C   UNL d   1     -45.810  12.050  23.017  0.00  0.00     0.015 A 
ATOM      9  C   UNL d   1     -46.560  12.158  23.327  0.00  0.00     0.020 A 
ENDROOT
BRANCH   1  10
ATOM     10  N   UNL d   1     -48.462  14.392  23.313  0.00  0.00    -0.182 NA
ATOM     11  C   UNL d   1     -49.180  14.234  22.968  0.00  0.00     0.287 C 
ATOM     12  O   UNL d   1     -49.264  13.581  22.480  0.00  0.00    -0.265 OA
BRANCH  11  13
ATOM     13  C   UNL d   1     -49.823  14.714  23.097  0.00  0.00     0.087 A 
ATOM     14  S   UNL d   1     -50.446  14.589  22.596  0.00  0.00    -0.082 SA
ATOM     15  C   UNL d   1     -51.050  15.100  22.782  0.00  0.00     0.036 A 
ATOM     16  C   UNL d   1     -50.794  15.559  23.420  0.00  0.00     0.008 A 
ATOM     17  C   UNL d   1     -50.040  15.324  23.618  0.00  0.00     0.012 A 
ENDBRANCH  11  13
ENDBRANCH   1  10
BRANCH   4  18
ATOM     18  S   UNL d   1     -44.690  12.552  22.284  0.00  0.00     0.272 S 
ATOM     19  O   UNL d   1     -44.689  11.737  22.882  0.00  0.00    -0.200 OA
ATOM     20  O   UNL d   1     -44.619  13.332  21.675  0.00  0.00    -0.200 OA
BRANCH  18  21
ATOM     21  N   UNL d   1     -43.937  12.267  22.100  0.00  0.00    -0.226 N 
ATOM     22  C   UNL d   1     -43.594  11.681  22.574  0.00  0.00     0.111 C 
ATOM     23  C   UNL d   1     -43.529  12.566  21.448  0.00  0.00     0.111 C 
ENDBRANCH  18  21
ENDBRANCH   4  18
TORSDOF 4
ENDMDL
MODEL 5
REMARK VINA RESULT:      -5.1      2.028      2.400
REMARK  4 active torsions:
REMARK  status: ('A' for Active; 'I' for Inactive)
REMARK    1  A    between atoms: C_6  and  S_1 
REMARK    2  A    between atoms: N_12  and  S_1 
REMARK    3  A    between atoms: N_4  and  C_2 
REMARK       I    between atoms: C_7  and  N_4 
REMARK    4  A    between atoms: C_10  and  C_7 
ROOT
ATOM      1  C   UNL d   1     -45.619  13.098  22.377  0.00  0.00     0.197 A 
ATOM      2  N   UNL d   1     -45.736  12.615  23.035  0.00  0.00    -0.221 NA
ATOM      3  S   UNL d   1     -46.357  13.294  22.065  0.00  0.00    -0.047 SA
ATOM      4  C   UNL d   1     -48.202  12.507  23.043  0.00  0.00     0.105 A 
ATOM      5  C   UNL d   1     -46.935  12.929  22.534  0.00  0.00     0.051 A 
ATOM      6  C   UNL d   1     -46.557  12.509  23.135  0.00  0.00     0.090 A 
ATOM      7  C   UNL d   1     -47.761  12.928  22.488  0.00  0.00     0.021 A 
ATOM      8  C   UNL d   1     -47.816  12.083  23.648  0.00  0.00     0.015 A 
ATOM      9  C   UNL d   1     -46.998  12.087  23.690  0.00  0.00     0.020 A 
ENDROOT
BRANCH   1  10
ATOM     10  N   UNL d   1     -44.888  13.343  22.082  0.00  0.00    -0.182 NA
ATOM     11  C   UNL d   1     -44.295  12.820  21.898  0.00  0.00     0.287 C 
ATOM     12  O   UNL d   1     -44.411  12.015  22.003  0.00  0.00    -0.265 OA
BRANCH  11  13
ATOM     13  C   UNL d   1     -43.582  13.079  21.608  0.00  0.00     0.087 A 
ATOM     14  S   UNL d   1     -43.049  12.493  21.442  0.00  0.00    -0.082 SA
ATOM     15  C   UNL d   1     -42.362  12.823  21.158  0.00  0.00     0.036 A 
ATOM     16  C   UNL d   1     -42.472  13.642  21.147  0.00  0.00     0.008 A 
ATOM     17  C   UNL d   1     -43.221  13.805  21.423  0.00  0.00     0.012 A 
ENDBRANCH  11  13
ENDBRANCH   1  10
BRANCH   4  18
ATOM     18  S   UNL d   1     -49.024  12.498  23.008  0.00  0.00     0.272 S 
ATOM     19  O   UNL d   1     -48.887  11.601  22.562  0.00  0.00    -0.200 OA
ATOM     20  O   UNL d   1     -49.236  13.368  23.437  0.00  0.00    -0.200 OA
BRANCH  18  21
ATOM     21  N   UNL d   1     -49.817  12.304  22.880  0.00  0.00    -0.226 N 
ATOM     22  C   UNL d   1     -50.035  11.916  22.182  0.00  0.00     0.111 C 
ATOM     23  C   UNL d   1     -50.387  12.495  23.445  0.00  0.00     0.111 C 
ENDBRANCH  18  21
ENDBRANCH   4  18
TORSDOF 4
ENDMDL
MODEL 6
REMARK VINA RESULT:      -5.1      8.155      9.742
REMARK  4 active torsions:
REMARK  status: ('A' for Active; 'I' for Inactive)
REMARK    1  A    between atoms: C_6  and  S_1 
REMARK    2  A    between atoms: N_12  and  S_1 
REMARK    3  A    between atoms: N_4  and  C_2 
REMARK       I    between atoms: C_7  and  N_4 
REMARK    4  A    between atoms: C_10  and  C_7 
ROOT
ATOM      1  C   UNL d   1     -38.969  13.991  18.708  0.00  0.00     0.197 A 
ATOM      2  N   UNL d   1     -39.706  14.231  18.988  0.00  0.00    -0.221 NA
ATOM      3  S   UNL d   1     -38.462  13.907  19.353  0.00  0.00    -0.047 SA
ATOM      4  C   UNL d   1     -39.226  14.330  21.407  0.00  0.00     0.105 A 
ATOM      5  C   UNL d   1     -38.889  14.098  20.038  0.00  0.00     0.051 A 
ATOM      6  C   UNL d   1     -39.658  14.299  19.817  0.00  0.00     0.090 A 
ATOM      7  C   UNL d   1     -38.672  14.114  20.835  0.00  0.00     0.021 A 
ATOM      8  C   UNL d   1     -40.002  14.532  21.180  0.00  0.00     0.015 A 
ATOM      9  C   UNL d   1     -40.212  14.515  20.389  0.00  0.00     0.020 A 
ENDROOT
BRANCH   1  10
ATOM     10  N   UNL d   1     -38.773  13.856  17.918  0.00  0.00    -0.182 NA
ATOM     11  C   UNL d   1     -38.518  14.449  17.425  0.00  0.00     0.287 C 
ATOM     12  O   UNL d   1     -38.448  15.215  17.708  0.00  0.00    -0.265 OA
BRANCH  11  13
ATOM     13  C   UNL d   1     -38.330  14.298  16.649  0.00  0.00     0.087 A 
ATOM     14  S   UNL d   1     -38.113  14.948  16.219  0.00  0.00    -0.082 SA
ATOM     15  C   UNL d   1     -37.940  14.725  15.457  0.00  0.00     0.036 A 
ATOM     16  C   UNL d   1     -38.052  13.907  15.411  0.00  0.00     0.008 A 
ATOM     17  C   UNL d   1     -38.292  13.640  16.143  0.00  0.00     0.012 A 
ENDBRANCH  11  13
ENDBRANCH   1  10
BRANCH   4  18
ATOM     18  S   UNL d   1     -39.022  14.349  22.204  0.00  0.00     0.272 S 
ATOM     19  O   UNL d   1     -38.907  15.340  22.038  0.00  0.00    -0.200 OA
ATOM     20  O   UNL d   1     -39.114  13.390  22.441  0.00  0.00    -0.200 OA
BRANCH  18  21
ATOM     21  N   UNL d   1     -38.794  14.574  22.965  0.00  0.00    -0.226 N 
ATOM     22  C   UNL d   1     -38.722  15.378  23.150  0.00  0.00     0.111 C 
ATOM     23  C   UNL d   1     -38.639  14.001  23.538  0.00  0.00     0.111 C 
ENDBRANCH  18  21
ENDBRANCH   4  18
TORSDOF 4
ENDMDL
