MODEL 1
REMARK VINA RESULT:      -7.6      0.000      0.000
REMARK  5 active torsions:
REMARK  status: ('A' for Active; 'I' for Inactive)
REMARK    1  A    between atoms: C_3  and  C_1 
REMARK    2  A    between atoms: C_7  and  C_2 
REMARK       I    between atoms: N_5  and  C_3 
REMARK    3  A    between atoms: C_6  and  N_5 
REMARK    4  A    between atoms: N_10  and  C_6 
REMARK    5  A    between atoms: C_11  and  N_10 
ROOT
ATOM      1  C   UNL d   1     -49.719  12.805  22.329  0.00  0.00     0.103 A 
ATOM      2  C   UNL d   1     -50.135  13.500  22.169  0.00  0.00     0.116 A 
ATOM      3  N   UNL d   1     -50.664  13.337  21.561  0.00  0.00    -0.126 NA
ATOM      4  O   UNL d   1     -50.578  12.545  21.345  0.00  0.00    -0.211 OA
ATOM      5  C   UNL d   1     -49.999  12.229  21.819  0.00  0.00     0.131 A 
ATOM      6  C   UNL d   1     -49.736  11.454  21.791  0.00  0.00     0.029 C 
ENDROOT
BRANCH   1   7
ATOM      7  C   UNL d   1     -49.138  12.728  22.899  0.00  0.00     0.285 C 
ATOM      8  N   UNL d   1     -48.350  12.640  22.701  0.00  0.00    -0.179 NA
ATOM      9  O   UNL d   1     -49.353  12.741  23.697  0.00  0.00    -0.265 OA
BRANCH   8  10
ATOM     10  C   UNL d   1     -47.769  12.564  23.271  0.00  0.00     0.224 C 
ATOM     11  S   UNL d   1     -47.714  11.858  23.697  0.00  0.00    -0.037 SA
BRANCH  10  12
ATOM     12  N   UNL d   1     -47.241  13.173  23.427  0.00  0.00    -0.215 NA
BRANCH  12  13
ATOM     13  C   UNL d   1     -46.547  13.212  23.020  0.00  0.00     0.111 A 
ATOM     14  C   UNL d   1     -46.193  13.942  22.874  0.00  0.00     0.158 A 
ATOM     15  F   UNL d   1     -46.552  14.634  23.145  0.00  0.00    -0.203 F 
ATOM     16  C   UNL d   1     -45.480  13.982  22.457  0.00  0.00     0.031 A 
ATOM     17  C   UNL d   1     -45.122  13.294  22.186  0.00  0.00     0.002 A 
ATOM     18  C   UNL d   1     -45.475  12.559  22.332  0.00  0.00     0.002 A 
ATOM     19  C   UNL d   1     -46.188  12.520  22.749  0.00  0.00     0.021 A 
ENDBRANCH  12  13
ENDBRANCH  10  12
ENDBRANCH   8  10
ENDBRANCH   1   7
BRANCH   2  20
ATOM     20  C   UNL d   1     -50.039  14.223  22.547  0.00  0.00     0.031 A 
ATOM     21  C   UNL d   1     -49.675  14.846  22.157  0.00  0.00     0.059 A 
ATOM     22 CL   UNL d   1     -49.408  14.745  21.388  0.00  0.00    -0.082 Cl
ATOM     23  C   UNL d   1     -49.581  15.562  22.537  0.00  0.00     0.011 A 
ATOM     24  C   UNL d   1     -49.850  15.665  23.313  0.00  0.00     0.001 A 
ATOM     25  C   UNL d   1     -50.213  15.036  23.698  0.00  0.00     0.000 A 
ATOM     26  C   UNL d   1     -50.314  14.306  23.322  0.00  0.00     0.002 A 
ENDBRANCH   2  20
TORSDOF 5
ENDMDL
MODEL 2
REMARK VINA RESULT:      -6.2      1.357      2.244
REMARK  5 active torsions:
REMARK  status: ('A' for Active; 'I' for Inactive)
REMARK    1  A    between atoms: C_3  and  C_1 
REMARK    2  A    between atoms: C_7  and  C_2 
REMARK       I    between atoms: N_5  and  C_3 
REMARK    3  A    between atoms: C_6  and  N_5 
REMARK    4  A    between atoms: N_10  and  C_6 
REMARK    5  A    between atoms: C_11  and  N_10 
ROOT
ATOM      1  C   UNL d   1     -49.341  14.462  22.441  0.00  0.00     0.103 A 
ATOM      2  C   UNL d   1     -49.923  13.887  22.331  0.00  0.00     0.116 A 
ATOM      3  N   UNL d   1     -50.530  14.228  21.894  0.00  0.00    -0.126 NA
ATOM      4  O   UNL d   1     -50.326  15.012  21.733  0.00  0.00    -0.211 OA
ATOM      5  C   UNL d   1     -49.599  15.145  22.071  0.00  0.00     0.131 A 
ATOM      6  C   UNL d   1     -49.188  15.853  22.046  0.00  0.00     0.029 C 
ENDROOT
BRANCH   1   7
ATOM      7  C   UNL d   1     -48.642  14.349  22.849  0.00  0.00     0.285 C 
ATOM      8  N   UNL d   1     -47.931  14.234  22.463  0.00  0.00    -0.179 NA
ATOM      9  O   UNL d   1     -48.654  14.350  23.676  0.00  0.00    -0.265 OA
BRANCH   8  10
ATOM     10  C   UNL d   1     -47.233  14.120  22.871  0.00  0.00     0.224 C 
ATOM     11  S   UNL d   1     -46.760  14.775  23.050  0.00  0.00    -0.037 SA
BRANCH  10  12
ATOM     12  N   UNL d   1     -46.992  13.371  23.105  0.00  0.00    -0.215 NA
BRANCH  12  13
ATOM     13  C   UNL d   1     -46.303  13.067  22.818  0.00  0.00     0.111 A 
ATOM     14  C   UNL d   1     -46.071  12.303  23.025  0.00  0.00     0.158 A 
ATOM     15  F   UNL d   1     -46.545  11.850  23.526  0.00  0.00    -0.203 F 
ATOM     16  C   UNL d   1     -45.364  11.991  22.731  0.00  0.00     0.031 A 
ATOM     17  C   UNL d   1     -44.890  12.440  22.232  0.00  0.00     0.002 A 
ATOM     18  C   UNL d   1     -45.122  13.207  22.023  0.00  0.00     0.002 A 
ATOM     19  C   UNL d   1     -45.829  13.519  22.317  0.00  0.00     0.021 A 
ENDBRANCH  12  13
ENDBRANCH  10  12
ENDBRANCH   8  10
ENDBRANCH   1   7
BRANCH   2  20
ATOM     20  C   UNL d   1     -49.900  13.113  22.608  0.00  0.00     0.031 A 
ATOM     21  C   UNL d   1     -49.825  12.490  22.080  0.00  0.00     0.059 A 
ATOM     22 CL   UNL d   1     -49.772  12.641  21.275  0.00  0.00    -0.082 Cl
ATOM     23  C   UNL d   1     -49.803  11.724  22.360  0.00  0.00     0.011 A 
ATOM     24  C   UNL d   1     -49.856  11.569  23.172  0.00  0.00     0.001 A 
ATOM     25  C   UNL d   1     -49.931  12.200  23.694  0.00  0.00     0.000 A 
ATOM     26  C   UNL d   1     -49.955  12.980  23.422  0.00  0.00     0.002 A 
ENDBRANCH   2  20
TORSDOF 5
ENDMDL
MODEL 3
REMARK VINA RESULT:      -5.8      9.496     10.580
REMARK  5 active torsions:
REMARK  status: ('A' for Active; 'I' for Inactive)
REMARK    1  A    between atoms: C_3  and  C_1 
REMARK    2  A    between atoms: C_7  and  C_2 
REMARK       I    between atoms: N_5  and  C_3 
REMARK    3  A    between atoms: C_6  and  N_5 
REMARK    4  A    between atoms: N_10  and  C_6 
REMARK    5  A    between atoms: C_11  and  N_10 
ROOT
ATOM      1  C   UNL d   1     -39.886  14.941  18.152  0.00  0.00     0.103 A 
ATOM      2  C   UNL d   1     -39.875  14.382  17.543  0.00  0.00     0.116 A 
ATOM      3  N   UNL d   1     -40.609  14.404  17.173  0.00  0.00    -0.126 NA
ATOM      4  O   UNL d   1     -41.073  14.973  17.549  0.00  0.00    -0.211 OA
ATOM      5  C   UNL d   1     -40.624  15.295  18.145  0.00  0.00     0.131 A 
ATOM      6  C   UNL d   1     -40.871  15.883  18.659  0.00  0.00     0.029 C 
ENDROOT
BRANCH   1   7
ATOM      7  C   UNL d   1     -39.263  15.095  18.657  0.00  0.00     0.285 C 
ATOM      8  N   UNL d   1     -39.282  14.879  19.445  0.00  0.00    -0.179 NA
ATOM      9  O   UNL d   1     -38.593  15.480  18.362  0.00  0.00    -0.265 OA
BRANCH   8  10
ATOM     10  C   UNL d   1     -38.659  15.033  19.950  0.00  0.00     0.224 C 
ATOM     11  S   UNL d   1     -38.423  15.817  20.069  0.00  0.00    -0.037 SA
BRANCH  10  12
ATOM     12  N   UNL d   1     -38.264  14.427  20.338  0.00  0.00    -0.215 NA
BRANCH  12  13
ATOM     13  C   UNL d   1     -38.481  14.228  21.088  0.00  0.00     0.111 A 
ATOM     14  C   UNL d   1     -38.322  13.473  21.378  0.00  0.00     0.158 A 
ATOM     15  F   UNL d   1     -37.939  12.921  20.898  0.00  0.00    -0.203 F 
ATOM     16  C   UNL d   1     -38.544  13.268  22.148  0.00  0.00     0.031 A 
ATOM     17  C   UNL d   1     -38.925  13.816  22.627  0.00  0.00     0.002 A 
ATOM     18  C   UNL d   1     -39.086  14.576  22.338  0.00  0.00     0.002 A 
ATOM     19  C   UNL d   1     -38.863  14.780  21.568  0.00  0.00     0.021 A 
ENDBRANCH  12  13
ENDBRANCH  10  12
ENDBRANCH   8  10
ENDBRANCH   1   7
BRANCH   2  20
ATOM     20  C   UNL d   1     -39.245  13.893  17.344  0.00  0.00     0.031 A 
ATOM     21  C   UNL d   1     -38.777  14.071  16.694  0.00  0.00     0.059 A 
ATOM     22 CL   UNL d   1     -38.939  14.737  16.244  0.00  0.00    -0.082 Cl
ATOM     23  C   UNL d   1     -38.153  13.582  16.500  0.00  0.00     0.011 A 
ATOM     24  C   UNL d   1     -37.988  12.909  16.953  0.00  0.00     0.001 A 
ATOM     25  C   UNL d   1     -38.461  12.739  17.603  0.00  0.00     0.000 A 
ATOM     26  C   UNL d   1     -39.096  13.226  17.809  0.00  0.00     0.002 A 
ENDBRANCH   2  20
TORSDOF 5
ENDMDL
MODEL 4
REMARK VINA RESULT:      -5.4      9.511     10.323
REMARK  5 active torsions:
REMARK  status: ('A' for Active; 'I' for Inactive)
REMARK    1  A    between atoms: C_3  and  C_1 
REMARK    2  A    between atoms: C_7  and  C_2 
REMARK       I    between atoms: N_5  and  C_3 
REMARK    3  A    between atoms: C_6  and  N_5 
REMARK    4  A    between atoms: N_10  and  C_6 
REMARK    5  A    between atoms: C_11  and  N_10 
ROOT
ATOM      1  C   UNL d   1     -38.896  14.045  18.216  0.00  0.00     0.103 A 
ATOM      2  C   UNL d   1     -39.480  13.962  17.637  0.00  0.00     0.116 A 
ATOM      3  N   UNL d   1     -39.479  13.177  17.394  0.00  0.00    -0.126 NA
ATOM      4  O   UNL d   1     -38.897  12.774  17.819  0.00  0.00    -0.211 OA
ATOM      5  C   UNL d   1     -38.547  13.312  18.317  0.00  0.00     0.131 A 
ATOM      6  C   UNL d   1     -37.940  13.146  18.840  0.00  0.00     0.029 C 
ENDROOT
BRANCH   1   7
ATOM      7  C   UNL d   1     -38.717  14.742  18.602  0.00  0.00     0.285 C 
ATOM      8  N   UNL d   1     -38.857  14.840  19.401  0.00  0.00    -0.179 NA
ATOM      9  O   UNL d   1     -38.384  15.366  18.173  0.00  0.00    -0.265 OA
BRANCH   8  10
ATOM     10  C   UNL d   1     -38.678  15.537  19.788  0.00  0.00     0.224 C 
ATOM     11  S   UNL d   1     -37.960  15.914  19.625  0.00  0.00    -0.037 SA
BRANCH  10  12
ATOM     12  N   UNL d   1     -39.194  15.869  20.333  0.00  0.00    -0.215 NA
BRANCH  12  13
ATOM     13  C   UNL d   1     -39.089  15.725  21.119  0.00  0.00     0.111 A 
ATOM     14  C   UNL d   1     -39.735  15.531  21.594  0.00  0.00     0.158 A 
ATOM     15  F   UNL d   1     -40.489  15.484  21.263  0.00  0.00    -0.203 F 
ATOM     16  C   UNL d   1     -39.627  15.384  22.400  0.00  0.00     0.031 A 
ATOM     17  C   UNL d   1     -38.877  15.430  22.732  0.00  0.00     0.002 A 
ATOM     18  C   UNL d   1     -38.227  15.624  22.256  0.00  0.00     0.002 A 
ATOM     19  C   UNL d   1     -38.335  15.772  21.450  0.00  0.00     0.021 A 
ENDBRANCH  12  13
ENDBRANCH  10  12
ENDBRANCH   8  10
ENDBRANCH   1   7
BRANCH   2  20
ATOM     20  C   UNL d   1     -39.974  14.556  17.356  0.00  0.00     0.031 A 
ATOM     21  C   UNL d   1     -40.763  14.574  17.578  0.00  0.00     0.059 A 
ATOM     22 CL   UNL d   1     -41.059  13.998  18.081  0.00  0.00    -0.082 Cl
ATOM     23  C   UNL d   1     -41.248  15.166  17.296  0.00  0.00     0.011 A 
ATOM     24  C   UNL d   1     -40.952  15.749  16.787  0.00  0.00     0.001 A 
ATOM     25  C   UNL d   1     -40.159  15.724  16.570  0.00  0.00     0.000 A 
ATOM     26  C   UNL d   1     -39.658  15.129  16.849  0.00  0.00     0.002 A 
ENDBRANCH   2  20
TORSDOF 5
ENDMDL
