MODEL 1
REMARK VINA RESULT:      98.6      0.000      0.000
REMARK  3 active torsions:
REMARK  status: ('A' for Active; 'I' for Inactive)
REMARK    1  A    between atoms: C_11  and  N_2 
REMARK    2  A    between atoms: C_9  and  N_3 
REMARK    3  A    between atoms: C_10  and  C_12 
ROOT
ATOM      1  C   UNL d   1     -57.293 -99.693 -45.221  0.00  0.00     0.339 A 
ATOM      2  N   UNL d   1     -56.948 -99.806 -44.482  0.00  0.00    -0.258 N 
ATOM      3  N   UNL d   1     -58.045 -99.361 -45.115  0.00  0.00    -0.258 N 
ATOM      4  S   UNL d   1     -58.359 -99.118 -42.993  0.00  0.00     0.214 S 
ATOM      5  C   UNL d   1     -57.491 -99.541 -43.902  0.00  0.00     0.097 A 
ATOM      6  C   UNL d   1     -58.166 -99.268 -44.303  0.00  0.00     0.097 A 
ATOM      7  C   UNL d   1     -57.615 -99.446 -43.097  0.00  0.00     0.118 A 
ATOM      8  C   UNL d   1     -58.702 -99.006 -43.728  0.00  0.00     0.118 A 
ATOM      9  O   UNL d   1     -56.950 -99.879 -45.952  0.00  0.00    -0.245 OA
ATOM     10  O   UNL d   1     -59.116 -98.784 -42.888  0.00  0.00    -0.217 OA
ATOM     11  O   UNL d   1     -58.060 -99.209 -42.225  0.00  0.00    -0.217 OA
ENDROOT
BRANCH   3  12
ATOM     12  C   UNL d   1     -58.581 -99.159 -45.712  0.00  0.00     0.068 A 
ATOM     13  C   UNL d   1     -58.339 -99.141 -46.499  0.00  0.00     0.021 A 
ATOM     14  C   UNL d   1     -58.866 -98.941 -47.094  0.00  0.00     0.073 A 
ATOM     15  C   UNL d   1     -59.647 -98.756 -46.902  0.00  0.00     0.004 A 
ATOM     16  C   UNL d   1     -59.900 -98.772 -46.114  0.00  0.00     0.001 A 
ATOM     17  C   UNL d   1     -59.362 -98.974 -45.519  0.00  0.00     0.018 A 
BRANCH  14  18
ATOM     18  C   UNL d   1     -58.621 -98.924 -47.884  0.00  0.00     0.419 C 
ATOM     19  F   UNL d   1     -58.393 -98.908 -48.603  0.00  0.00    -0.166 F 
ATOM     20  F   UNL d   1     -57.816 -98.903 -48.205  0.00  0.00    -0.166 F 
ATOM     21  F   UNL d   1     -59.093 -98.920 -48.604  0.00  0.00    -0.166 F 
ENDBRANCH  14  18
ENDBRANCH   3  12
BRANCH   2  22
ATOM     22  C   UNL d   1     -56.198-100.123 -44.331  0.00  0.00     0.068 A 
ATOM     23  C   UNL d   1     -55.629 -99.666 -43.947  0.00  0.00     0.016 A 
ATOM     24  C   UNL d   1     -55.799 -98.896 -43.713  0.00  0.00     0.002 C 
ATOM     25  C   UNL d   1     -54.882 -99.995 -43.801  0.00  0.00     0.001 A 
ATOM     26  C   UNL d   1     -54.712-100.765 -44.035  0.00  0.00     0.000 A 
ATOM     27  C   UNL d   1     -55.285-101.215 -44.417  0.00  0.00     0.002 A 
ATOM     28  C   UNL d   1     -56.027-100.894 -44.564  0.00  0.00     0.018 A 
ENDBRANCH   2  22
TORSDOF 3
ENDMDL
