MODEL 1
REMARK VINA RESULT:      43.1      0.000      0.000
REMARK  8 active torsions:
REMARK  status: ('A' for Active; 'I' for Inactive)
REMARK    1  A    between atoms: C_2  and  S_1 
REMARK    2  A    between atoms: N_6  and  S_1 
REMARK    3  A    between atoms: C_3  and  C_14 
REMARK       I    between atoms: N_7  and  C_3 
REMARK    4  A    between atoms: C_17  and  N_6 
REMARK    5  A    between atoms: C_14  and  C_19 
REMARK    6  A    between atoms: C_20  and  C_17 
REMARK    7  A    between atoms: C_19  and  C_21 
REMARK    8  A    between atoms: C_21  and  C_20 
ROOT
ATOM      1  N   UNL d   1      60.751  48.473  51.495  0.00  0.00    -0.157 NA
ENDROOT
BRANCH   1   2
ATOM      2  S   UNL d   1      61.023  47.873  50.993  0.00  0.00     0.285 S 
ATOM      3  O   UNL d   1      61.156  48.671  50.808  0.00  0.00    -0.198 OA
ATOM      4  O   UNL d   1      60.614  47.680  51.685  0.00  0.00    -0.198 OA
BRANCH   2   5
ATOM      5  C   UNL d   1      61.295  47.272  50.490  0.00  0.00     0.105 A 
ATOM      6  C   UNL d   1      61.753  47.461  49.828  0.00  0.00     0.013 A 
ATOM      7  C   UNL d   1      62.021  46.870  49.334  0.00  0.00     0.001 A 
ATOM      8  C   UNL d   1      61.836  46.092  49.493  0.00  0.00     0.000 A 
ATOM      9  C   UNL d   1      61.380  45.896  50.150  0.00  0.00     0.001 A 
ATOM     10  C   UNL d   1      62.110  45.494  48.988  0.00  0.00     0.000 C 
ATOM     11  C   UNL d   1      61.112  46.487  50.645  0.00  0.00     0.013 A 
ENDBRANCH   2   5
ENDBRANCH   1   2
BRANCH   1  12
ATOM     12  C   UNL d   1      60.862  49.267  51.290  0.00  0.00     0.112 C 
BRANCH  12  13
ATOM     13  C   UNL d   1      60.259  49.680  50.902  0.00  0.00     0.021 C 
BRANCH  13  14
ATOM     14  C   UNL d   1      59.469  49.584  51.143  0.00  0.00     0.002 C 
BRANCH  14  15
ATOM     15  C   UNL d   1      58.854  49.677  50.604  0.00  0.00     0.005 C 
BRANCH  15  16
ATOM     16  C   UNL d   1      58.070  49.673  50.853  0.00  0.00     0.061 C 
BRANCH  16  17
ATOM     17  C   UNL d   1      57.456  49.667  50.299  0.00  0.00     0.265 C 
ATOM     18  N   UNL d   1      56.671  49.641  50.552  0.00  0.00    -0.269 N 
ATOM     19  C   UNL d   1      56.058  49.635  49.990  0.00  0.00     0.102 C 
ATOM     20  C   UNL d   1      56.500  49.621  51.362  0.00  0.00     0.102 C 
ATOM     21  O   UNL d   1      57.631  49.687  49.490  0.00  0.00    -0.267 OA
ENDBRANCH  16  17
ENDBRANCH  15  16
ENDBRANCH  14  15
ENDBRANCH  13  14
ENDBRANCH  12  13
ENDBRANCH   1  12
TORSDOF 8
ENDMDL
MODEL 2
REMARK VINA RESULT:      43.2      1.420      4.700
REMARK  8 active torsions:
REMARK  status: ('A' for Active; 'I' for Inactive)
REMARK    1  A    between atoms: C_2  and  S_1 
REMARK    2  A    between atoms: N_6  and  S_1 
REMARK    3  A    between atoms: C_3  and  C_14 
REMARK       I    between atoms: N_7  and  C_3 
REMARK    4  A    between atoms: C_17  and  N_6 
REMARK    5  A    between atoms: C_14  and  C_19 
REMARK    6  A    between atoms: C_20  and  C_17 
REMARK    7  A    between atoms: C_19  and  C_21 
REMARK    8  A    between atoms: C_21  and  C_20 
ROOT
ATOM      1  N   UNL d   1      60.333  49.659  50.775  0.00  0.00    -0.157 NA
ENDROOT
BRANCH   1   2
ATOM      2  S   UNL d   1      59.516  49.653  50.642  0.00  0.00     0.285 S 
ATOM      3  O   UNL d   1      59.818  49.696  51.414  0.00  0.00    -0.198 OA
ATOM      4  O   UNL d   1      60.039  49.616  50.003  0.00  0.00    -0.198 OA
BRANCH   2   5
ATOM      5  C   UNL d   1      58.698  49.646  50.510  0.00  0.00     0.105 A 
ATOM      6  C   UNL d   1      58.402  49.581  49.740  0.00  0.00     0.013 A 
ATOM      7  C   UNL d   1      57.597  49.574  49.610  0.00  0.00     0.001 A 
ATOM      8  C   UNL d   1      57.083  49.632  50.240  0.00  0.00     0.000 A 
ATOM      9  C   UNL d   1      57.369  49.696  51.009  0.00  0.00     0.001 A 
ATOM     10  C   UNL d   1      56.265  49.624  50.104  0.00  0.00     0.000 C 
ATOM     11  C   UNL d   1      58.175  49.703  51.140  0.00  0.00     0.013 A 
ENDBRANCH   2   5
ENDBRANCH   1   2
BRANCH   1  12
ATOM     12  C   UNL d   1      60.747  48.947  50.855  0.00  0.00     0.112 C 
BRANCH  12  13
ATOM     13  C   UNL d   1      61.506  48.874  50.536  0.00  0.00     0.021 C 
BRANCH  13  14
ATOM     14  C   UNL d   1      61.891  48.137  50.544  0.00  0.00     0.002 C 
BRANCH  14  15
ATOM     15  C   UNL d   1      61.500  47.459  50.288  0.00  0.00     0.005 C 
BRANCH  15  16
ATOM     16  C   UNL d   1      61.621  47.162  49.530  0.00  0.00     0.061 C 
BRANCH  16  17
ATOM     17  C   UNL d   1      62.075  46.480  49.417  0.00  0.00     0.265 C 
ATOM     18  N   UNL d   1      61.713  45.738  49.420  0.00  0.00    -0.269 N 
ATOM     19  C   UNL d   1      62.174  45.056  49.306  0.00  0.00     0.102 C 
ATOM     20  C   UNL d   1      60.895  45.679  49.536  0.00  0.00     0.102 C 
ATOM     21  O   UNL d   1      62.892  46.543  49.302  0.00  0.00    -0.267 OA
ENDBRANCH  16  17
ENDBRANCH  15  16
ENDBRANCH  14  15
ENDBRANCH  13  14
ENDBRANCH  12  13
ENDBRANCH   1  12
TORSDOF 8
ENDMDL
