MODEL 1
REMARK VINA RESULT:      -1.7      0.000      0.000
REMARK  2 active torsions:
REMARK  status: ('A' for Active; 'I' for Inactive)
REMARK    1  A    between atoms: C_12  and  C_4 
REMARK    2  A    between atoms: C_10  and  C_5 
ROOT
ATOM      1  N   UNL d   1      58.827  -1.403  29.695  0.00  0.00    -0.208 N 
ATOM      2  N   UNL d   1      58.156  -1.531  30.162  0.00  0.00    -0.163 NA
ATOM      3  C   UNL d   1      59.104  -0.641  29.852  0.00  0.00     0.088 A 
ATOM      4  C   UNL d   1      59.214  -1.883  29.155  0.00  0.00     0.183 A 
ATOM      5  C   UNL d   1      58.017  -0.852  30.605  0.00  0.00     0.109 A 
ATOM      6  O   UNL d   1      59.882  -1.601  28.766  0.00  0.00    -0.289 OA
ATOM      7  C   UNL d   1      58.601  -0.300  30.416  0.00  0.00     0.041 A 
ATOM      8  C   UNL d   1      59.767  -0.361  29.466  0.00  0.00     0.041 A 
ATOM      9  C   UNL d   1      60.162  -0.841  28.919  0.00  0.00     0.103 A 
ATOM     10  C   UNL d   1      60.046   0.398  29.619  0.00  0.00     0.004 A 
ATOM     11  C   UNL d   1      60.829  -0.560  28.530  0.00  0.00     0.025 A 
ATOM     12  C   UNL d   1      60.714   0.680  29.231  0.00  0.00     0.000 A 
ATOM     13  C   UNL d   1      61.107   0.199  28.684  0.00  0.00     0.002 A 
ENDROOT
BRANCH   4  14
ATOM     14  C   UNL d   1      58.935  -2.644  29.000  0.00  0.00     0.041 A 
ATOM     15  C   UNL d   1      59.377  -3.287  29.237  0.00  0.00     0.004 A 
ATOM     16  C   UNL d   1      59.099  -4.056  29.083  0.00  0.00     0.000 A 
ATOM     17  C   UNL d   1      58.375  -4.163  28.690  0.00  0.00     0.000 A 
ATOM     18  C   UNL d   1      57.937  -3.499  28.455  0.00  0.00     0.000 A 
ATOM     19  C   UNL d   1      58.214  -2.740  28.609  0.00  0.00     0.004 A 
ENDBRANCH   4  14
BRANCH   5  20
ATOM     20  C   UNL d   1      57.406  -0.737  31.144  0.00  0.00     0.049 A 
ATOM     21  S   UNL d   1      57.074  -0.016  31.354  0.00  0.00    -0.085 SA
ATOM     22  C   UNL d   1      56.481  -0.159  31.908  0.00  0.00     0.035 A 
ATOM     23  C   UNL d   1      56.445  -0.975  32.043  0.00  0.00     0.007 A 
ATOM     24  C   UNL d   1      57.011  -1.337  31.576  0.00  0.00     0.009 A 
ENDBRANCH   5  20
TORSDOF 2
ENDMDL
MODEL 2
REMARK VINA RESULT:      -1.3      0.664      2.863
REMARK  2 active torsions:
REMARK  status: ('A' for Active; 'I' for Inactive)
REMARK    1  A    between atoms: C_12  and  C_4 
REMARK    2  A    between atoms: C_10  and  C_5 
ROOT
ATOM      1  N   UNL d   1      58.888  -1.186  29.719  0.00  0.00    -0.208 N 
ATOM      2  N   UNL d   1      58.586  -0.578  30.193  0.00  0.00    -0.163 NA
ATOM      3  C   UNL d   1      58.364  -1.823  29.757  0.00  0.00     0.088 A 
ATOM      4  C   UNL d   1      59.567  -1.234  29.263  0.00  0.00     0.183 A 
ATOM      5  C   UNL d   1      57.879  -0.838  30.524  0.00  0.00     0.109 A 
ATOM      6  O   UNL d   1      59.726  -1.923  28.841  0.00  0.00    -0.289 OA
ATOM      7  C   UNL d   1      57.739  -1.605  30.258  0.00  0.00     0.041 A 
ATOM      8  C   UNL d   1      58.521  -2.506  29.339  0.00  0.00     0.041 A 
ATOM      9  C   UNL d   1      59.205  -2.561  28.877  0.00  0.00     0.103 A 
ATOM     10  C   UNL d   1      58.001  -3.144  29.375  0.00  0.00     0.004 A 
ATOM     11  C   UNL d   1      59.365  -3.248  28.455  0.00  0.00     0.025 A 
ATOM     12  C   UNL d   1      58.159  -3.832  28.954  0.00  0.00     0.000 A 
ATOM     13  C   UNL d   1      58.844  -3.884  28.492  0.00  0.00     0.002 A 
ENDROOT
BRANCH   4  14
ATOM     14  C   UNL d   1      60.089  -0.596  29.226  0.00  0.00     0.041 A 
ATOM     15  C   UNL d   1      60.598  -0.460  29.847  0.00  0.00     0.004 A 
ATOM     16  C   UNL d   1      61.127   0.182  29.813  0.00  0.00     0.000 A 
ATOM     17  C   UNL d   1      61.131   0.679  29.147  0.00  0.00     0.000 A 
ATOM     18  C   UNL d   1      60.607   0.528  28.523  0.00  0.00     0.000 A 
ATOM     19  C   UNL d   1      60.086  -0.108  28.559  0.00  0.00     0.004 A 
ENDBRANCH   4  14
BRANCH   5  20
ATOM     20  C   UNL d   1      57.393  -0.410  31.033  0.00  0.00     0.049 A 
ATOM     21  S   UNL d   1      57.197   0.384  30.962  0.00  0.00    -0.085 SA
ATOM     22  C   UNL d   1      56.701   0.581  31.589  0.00  0.00     0.035 A 
ATOM     23  C   UNL d   1      56.588  -0.096  32.052  0.00  0.00     0.007 A 
ATOM     24  C   UNL d   1      57.011  -0.709  31.716  0.00  0.00     0.009 A 
ENDBRANCH   5  20
TORSDOF 2
ENDMDL
