MODEL 1
REMARK VINA RESULT:       1.2      0.000      0.000
REMARK  5 active torsions:
REMARK  status: ('A' for Active; 'I' for Inactive)
REMARK    1  A    between atoms: C_3  and  C_1 
REMARK    2  A    between atoms: C_7  and  C_3 
REMARK    3  A    between atoms: N_9  and  C_3 
REMARK    4  A    between atoms: C_17  and  C_8 
REMARK    5  A    between atoms: C_10  and  N_9 
ROOT
ATOM      1  C   UNL d   1      31.858  16.950 -24.232  0.00  0.00     0.111 C 
ENDROOT
BRANCH   1   2
ATOM      2  C   UNL d   1      31.033  16.827 -24.248  0.00  0.00     0.160 A 
ATOM      3  C   UNL d   1      30.709  16.196 -24.668  0.00  0.00     0.258 A 
ATOM      4  C   UNL d   1      29.884  16.093 -24.671  0.00  0.00     0.238 A 
ATOM      5  O   UNL d   1      31.194  15.654 -25.094  0.00  0.00    -0.281 OA
ATOM      6  O   UNL d   1      29.556  15.453 -25.097  0.00  0.00    -0.283 OA
ATOM      7  C   UNL d   1      29.384  16.607 -24.263  0.00  0.00     0.073 A 
ATOM      8  C   UNL d   1      29.708  17.238 -23.843  0.00  0.00     0.146 A 
ATOM      9  O   UNL d   1      30.526  17.344 -23.838  0.00  0.00    -0.299 OA
BRANCH   8  10
ATOM     10  C   UNL d   1      29.180  17.747 -23.436  0.00  0.00     0.259 C 
ATOM     11  O   UNL d   1      28.559  18.107 -23.836  0.00  0.00    -0.281 OA
ENDBRANCH   8  10
ENDBRANCH   1   2
BRANCH   1  12
ATOM     12  C   UNL d   1      32.301  16.639 -23.591  0.00  0.00     0.047 A 
ATOM     13  C   UNL d   1      32.745  15.951 -23.690  0.00  0.00     0.142 A 
ATOM     14  F   UNL d   1      32.771  15.693 -24.128  0.00  0.00    -0.204 F 
ATOM     15  C   UNL d   1      33.185  15.635 -23.068  0.00  0.00     0.030 A 
ATOM     16  C   UNL d   1      33.180  16.012 -22.336  0.00  0.00     0.002 A 
ATOM     17  C   UNL d   1      32.736  16.700 -22.237  0.00  0.00     0.000 A 
ATOM     18  C   UNL d   1      32.296  17.016 -22.858  0.00  0.00     0.004 A 
ENDBRANCH   1  12
BRANCH   1  19
ATOM     19  N   UNL d   1      32.231  17.365 -24.833  0.00  0.00    -0.225 NA
BRANCH  19  20
ATOM     20  C   UNL d   1      32.413  18.179 -24.738  0.00  0.00     0.163 A 
ATOM     21  N   UNL d   1      33.064  18.410 -24.302  0.00  0.00    -0.225 NA
ATOM     22  C   UNL d   1      33.241  19.200 -24.210  0.00  0.00     0.101 A 
ATOM     23  C   UNL d   1      32.751  19.786 -24.565  0.00  0.00     0.021 A 
ATOM     24  C   UNL d   1      32.101  19.556 -25.001  0.00  0.00     0.005 A 
ATOM     25  C   UNL d   1      31.918  18.747 -25.097  0.00  0.00     0.039 A 
ENDBRANCH  19  20
ENDBRANCH   1  19
TORSDOF 5
ENDMDL
MODEL 2
REMARK VINA RESULT:       2.3      1.770      3.114
REMARK  5 active torsions:
REMARK  status: ('A' for Active; 'I' for Inactive)
REMARK    1  A    between atoms: C_3  and  C_1 
REMARK    2  A    between atoms: C_7  and  C_3 
REMARK    3  A    between atoms: N_9  and  C_3 
REMARK    4  A    between atoms: C_17  and  C_8 
REMARK    5  A    between atoms: C_10  and  N_9 
ROOT
ATOM      1  C   UNL d   1      30.437  16.685 -24.320  0.00  0.00     0.111 C 
ENDROOT
BRANCH   1   2
ATOM      2  C   UNL d   1      31.258  16.774 -24.200  0.00  0.00     0.160 A 
ATOM      3  C   UNL d   1      31.792  16.236 -24.524  0.00  0.00     0.258 A 
ATOM      4  C   UNL d   1      32.606  16.343 -24.392  0.00  0.00     0.238 A 
ATOM      5  O   UNL d   1      31.532  15.581 -24.987  0.00  0.00    -0.281 OA
ATOM      6  O   UNL d   1      33.147  15.797 -24.721  0.00  0.00    -0.283 OA
ATOM      7  C   UNL d   1      32.890  16.975 -23.943  0.00  0.00     0.073 A 
ATOM      8  C   UNL d   1      32.357  17.513 -23.619  0.00  0.00     0.146 A 
ATOM      9  O   UNL d   1      31.547  17.410 -23.748  0.00  0.00    -0.299 OA
BRANCH   8  10
ATOM     10  C   UNL d   1      32.668  18.146 -23.167  0.00  0.00     0.259 C 
ATOM     11  O   UNL d   1      32.874  18.034 -22.380  0.00  0.00    -0.281 OA
ENDBRANCH   8  10
ENDBRANCH   1   2
BRANCH   1  12
ATOM     12  C   UNL d   1      29.974  16.341 -23.712  0.00  0.00     0.047 A 
ATOM     13  C   UNL d   1      29.381  15.799 -23.901  0.00  0.00     0.142 A 
ATOM     14  F   UNL d   1      29.273  15.654 -24.376  0.00  0.00    -0.204 F 
ATOM     15  C   UNL d   1      28.918  15.453 -23.312  0.00  0.00     0.030 A 
ATOM     16  C   UNL d   1      29.050  15.651 -22.523  0.00  0.00     0.002 A 
ATOM     17  C   UNL d   1      29.642  16.192 -22.335  0.00  0.00     0.000 A 
ATOM     18  C   UNL d   1      30.106  16.539 -22.923  0.00  0.00     0.004 A 
ENDBRANCH   1  12
BRANCH   1  19
ATOM     19  N   UNL d   1      30.088  16.930 -25.021  0.00  0.00    -0.225 NA
BRANCH  19  20
ATOM     20  C   UNL d   1      29.631  17.633 -25.046  0.00  0.00     0.163 A 
ATOM     21  N   UNL d   1      28.816  17.597 -25.049  0.00  0.00    -0.225 NA
ATOM     22  C   UNL d   1      28.371  18.279 -25.073  0.00  0.00     0.101 A 
ATOM     23  C   UNL d   1      28.752  19.030 -25.096  0.00  0.00     0.021 A 
ATOM     24  C   UNL d   1      29.567  19.067 -25.094  0.00  0.00     0.005 A 
ATOM     25  C   UNL d   1      30.025  18.369 -25.069  0.00  0.00     0.039 A 
ENDBRANCH  19  20
ENDBRANCH   1  19
TORSDOF 5
ENDMDL
MODEL 3
REMARK VINA RESULT:       2.5      1.288      2.730
REMARK  5 active torsions:
REMARK  status: ('A' for Active; 'I' for Inactive)
REMARK    1  A    between atoms: C_3  and  C_1 
REMARK    2  A    between atoms: C_7  and  C_3 
REMARK    3  A    between atoms: N_9  and  C_3 
REMARK    4  A    between atoms: C_17  and  C_8 
REMARK    5  A    between atoms: C_10  and  N_9 
ROOT
ATOM      1  C   UNL d   1      31.482  17.440 -24.364  0.00  0.00     0.111 C 
ENDROOT
BRANCH   1   2
ATOM      2  C   UNL d   1      32.021  17.193 -23.776  0.00  0.00     0.160 A 
ATOM      3  C   UNL d   1      32.361  16.443 -23.806  0.00  0.00     0.258 A 
ATOM      4  C   UNL d   1      32.896  16.217 -23.211  0.00  0.00     0.238 A 
ATOM      5  O   UNL d   1      32.181  15.900 -24.425  0.00  0.00    -0.281 OA
ATOM      6  O   UNL d   1      33.241  15.456 -23.241  0.00  0.00    -0.283 OA
ATOM      7  C   UNL d   1      33.092  16.726 -22.592  0.00  0.00     0.073 A 
ATOM      8  C   UNL d   1      32.751  17.476 -22.562  0.00  0.00     0.146 A 
ATOM      9  O   UNL d   1      32.220  17.704 -23.151  0.00  0.00    -0.299 OA
BRANCH   8  10
ATOM     10  C   UNL d   1      32.965  17.976 -21.924  0.00  0.00     0.259 C 
ATOM     11  O   UNL d   1      33.118  18.773 -22.054  0.00  0.00    -0.281 OA
ENDBRANCH   8  10
ENDBRANCH   1   2
BRANCH   1  12
ATOM     12  C   UNL d   1      30.659  17.347 -24.223  0.00  0.00     0.047 A 
ATOM     13  C   UNL d   1      30.215  16.837 -24.695  0.00  0.00     0.142 A 
ATOM     14  F   UNL d   1      30.410  16.566 -25.078  0.00  0.00    -0.204 F 
ATOM     15  C   UNL d   1      29.406  16.736 -24.568  0.00  0.00     0.030 A 
ATOM     16  C   UNL d   1      29.037  17.152 -23.960  0.00  0.00     0.002 A 
ATOM     17  C   UNL d   1      29.481  17.661 -23.489  0.00  0.00     0.000 A 
ATOM     18  C   UNL d   1      30.290  17.762 -23.615  0.00  0.00     0.004 A 
ENDBRANCH   1  12
BRANCH   1  19
ATOM     19  N   UNL d   1      31.749  17.767 -25.066  0.00  0.00    -0.225 NA
BRANCH  19  20
ATOM     20  C   UNL d   1      32.090  18.534 -25.076  0.00  0.00     0.163 A 
ATOM     21  N   UNL d   1      32.901  18.627 -25.084  0.00  0.00    -0.225 NA
ATOM     22  C   UNL d   1      33.232  19.371 -25.094  0.00  0.00     0.101 A 
ATOM     23  C   UNL d   1      32.737  20.053 -25.096  0.00  0.00     0.021 A 
ATOM     24  C   UNL d   1      31.926  19.960 -25.089  0.00  0.00     0.005 A 
ATOM     25  C   UNL d   1      31.585  19.198 -25.079  0.00  0.00     0.039 A 
ENDBRANCH  19  20
ENDBRANCH   1  19
TORSDOF 5
ENDMDL
MODEL 4
REMARK VINA RESULT:       3.4      1.682      2.881
REMARK  5 active torsions:
REMARK  status: ('A' for Active; 'I' for Inactive)
REMARK    1  A    between atoms: C_3  and  C_1 
REMARK    2  A    between atoms: C_7  and  C_3 
REMARK    3  A    between atoms: N_9  and  C_3 
REMARK    4  A    between atoms: C_17  and  C_8 
REMARK    5  A    between atoms: C_10  and  N_9 
ROOT
ATOM      1  C   UNL d   1      31.928  17.900 -24.066  0.00  0.00     0.111 C 
ENDROOT
BRANCH   1   2
ATOM      2  C   UNL d   1      32.079  17.088 -23.947  0.00  0.00     0.160 A 
ATOM      3  C   UNL d   1      32.588  16.678 -24.449  0.00  0.00     0.258 A 
ATOM      4  C   UNL d   1      32.725  15.869 -24.314  0.00  0.00     0.238 A 
ATOM      5  O   UNL d   1      32.972  17.058 -25.096  0.00  0.00    -0.281 OA
ATOM      6  O   UNL d   1      33.241  15.453 -24.824  0.00  0.00    -0.283 OA
ATOM      7  C   UNL d   1      32.363  15.469 -23.689  0.00  0.00     0.073 A 
ATOM      8  C   UNL d   1      31.855  15.880 -23.187  0.00  0.00     0.146 A 
ATOM      9  O   UNL d   1      31.716  16.683 -23.318  0.00  0.00    -0.299 OA
BRANCH   8  10
ATOM     10  C   UNL d   1      31.499  15.453 -22.559  0.00  0.00     0.259 C 
ATOM     11  O   UNL d   1      30.903  15.796 -22.109  0.00  0.00    -0.281 OA
ENDBRANCH   8  10
ENDBRANCH   1   2
BRANCH   1  12
ATOM     12  C   UNL d   1      31.145  18.144 -24.246  0.00  0.00     0.047 A 
ATOM     13  C   UNL d   1      31.015  18.722 -24.820  0.00  0.00     0.142 A 
ATOM     14  F   UNL d   1      31.388  18.948 -25.081  0.00  0.00    -0.204 F 
ATOM     15  C   UNL d   1      30.251  18.970 -25.008  0.00  0.00     0.030 A 
ATOM     16  C   UNL d   1      29.608  18.636 -24.616  0.00  0.00     0.002 A 
ATOM     17  C   UNL d   1      29.739  18.059 -24.042  0.00  0.00     0.000 A 
ATOM     18  C   UNL d   1      30.502  17.810 -23.854  0.00  0.00     0.004 A 
ENDBRANCH   1  12
BRANCH   1  19
ATOM     19  N   UNL d   1      32.532  18.451 -24.006  0.00  0.00    -0.225 NA
BRANCH  19  20
ATOM     20  C   UNL d   1      32.701  18.821 -23.272  0.00  0.00     0.163 A 
ATOM     21  N   UNL d   1      32.762  18.377 -22.590  0.00  0.00    -0.225 NA
ATOM     22  C   UNL d   1      32.926  18.735 -21.876  0.00  0.00     0.101 A 
ATOM     23  C   UNL d   1      33.035  19.570 -21.839  0.00  0.00     0.021 A 
ATOM     24  C   UNL d   1      32.975  20.014 -22.521  0.00  0.00     0.005 A 
ATOM     25  C   UNL d   1      32.806  19.649 -23.253  0.00  0.00     0.039 A 
ENDBRANCH  19  20
ENDBRANCH   1  19
TORSDOF 5
ENDMDL
