MODEL 1
REMARK VINA RESULT:      51.1      0.000      0.000
REMARK  3 active torsions:
REMARK  status: ('A' for Active; 'I' for Inactive)
REMARK    1  A    between atoms: C_9  and  N_1 
REMARK    2  A    between atoms: C_5  and  C_9 
REMARK       I    between atoms: N_8  and  C_5 
REMARK    3  A    between atoms: O_14  and  C_12 
ROOT
ATOM      1  N   UNL d   1     -56.747 -99.455 -44.537  0.00  0.00    -0.268 N 
ATOM      2  C   UNL d   1     -56.164 -99.572 -43.972  0.00  0.00     0.265 A 
ATOM      3  C   UNL d   1     -55.732-100.279 -43.970  0.00  0.00     0.059 A 
ATOM      4  C   UNL d   1     -55.887-100.859 -44.532  0.00  0.00     0.028 A 
ATOM      5  C   UNL d   1     -56.470-100.742 -45.098  0.00  0.00     0.021 A 
ATOM      6  C   UNL d   1     -56.901-100.043 -45.104  0.00  0.00     0.083 A 
ATOM      7  O   UNL d   1     -56.009 -98.992 -43.409  0.00  0.00    -0.267 OA
ATOM      8  C   UNL d   1     -55.454-101.559 -44.525  0.00  0.00     0.094 A 
ATOM      9  C   UNL d   1     -55.148-100.389 -43.398  0.00  0.00     0.005 A 
ATOM     10  C   UNL d   1     -54.711-101.093 -43.389  0.00  0.00     0.002 A 
ATOM     11  C   UNL d   1     -54.863-101.675 -43.950  0.00  0.00     0.024 A 
ENDROOT
BRANCH   1  12
ATOM     12  C   UNL d   1     -57.177 -98.757 -44.543  0.00  0.00     0.144 C 
BRANCH  12  13
ATOM     13  C   UNL d   1     -58.005 -98.774 -44.623  0.00  0.00     0.283 C 
ATOM     14  N   UNL d   1     -58.475 -98.775 -43.949  0.00  0.00    -0.271 N 
ATOM     15  C   UNL d   1     -59.316 -98.794 -44.120  0.00  0.00     0.083 A 
ATOM     16  C   UNL d   1     -58.091 -98.759 -43.313  0.00  0.00     0.083 A 
ATOM     17  C   UNL d   1     -59.911 -98.801 -43.716  0.00  0.00     0.019 A 
ATOM     18  C   UNL d   1     -59.960 -98.791 -42.881  0.00  0.00     0.002 A 
ATOM     19  C   UNL d   1     -59.276 -98.771 -42.322  0.00  0.00     0.002 A 
ATOM     20  C   UNL d   1     -58.407 -98.756 -42.518  0.00  0.00     0.019 A 
ATOM     21  O   UNL d   1     -58.350 -98.790 -45.359  0.00  0.00    -0.265 OA
ENDBRANCH  12  13
ENDBRANCH   1  12
BRANCH   8  22
ATOM     22  O   UNL d   1     -55.600-102.146 -45.082  0.00  0.00    -0.328 OA
ATOM     23  C   UNL d   1     -55.104-102.793 -45.137  0.00  0.00     0.181 C 
ENDBRANCH   8  22
TORSDOF 3
ENDMDL
