MODEL 1
REMARK VINA RESULT:     142.8      0.000      0.000
REMARK  8 active torsions:
REMARK  status: ('A' for Active; 'I' for Inactive)
REMARK    1  A    between atoms: C_8  and  N_1 
REMARK    2  A    between atoms: C_7  and  N_3 
REMARK    3  A    between atoms: C_11  and  C_7 
REMARK    4  A    between atoms: C_20  and  C_8 
REMARK    5  A    between atoms: C_9  and  C_13 
REMARK       I    between atoms: N_16  and  C_9 
REMARK    6  A    between atoms: C_24  and  N_16 
REMARK    7  A    between atoms: C_27  and  C_24 
REMARK    8  A    between atoms: C_25  and  C_27 
ROOT
ATOM      1  N   UNL d   1      61.777  44.572  50.430  0.00  0.00    -0.226 N 
ATOM      2  C   UNL d   1      62.369  43.997  50.422  0.00  0.00     0.342 A 
ATOM      3  N   UNL d   1      62.363  43.391  50.980  0.00  0.00    -0.259 N 
ATOM      4  C   UNL d   1      61.173  44.546  50.996  0.00  0.00     0.270 A 
ATOM      5  C   UNL d   1      61.174  43.935  51.553  0.00  0.00     0.073 A 
ATOM      6  C   UNL d   1      61.766  43.360  51.545  0.00  0.00     0.073 A 
ATOM      7  O   UNL d   1      62.975  44.030  49.846  0.00  0.00    -0.245 OA
ATOM      8  O   UNL d   1      60.587  45.115  51.005  0.00  0.00    -0.266 OA
ATOM      9  C   UNL d   1      60.571  43.909  52.120  0.00  0.00     0.006 A 
ATOM     10  C   UNL d   1      61.760  42.754  52.103  0.00  0.00     0.018 A 
ATOM     11  C   UNL d   1      60.569  43.296  52.680  0.00  0.00     0.000 A 
ATOM     12  C   UNL d   1      61.161  42.721  52.672  0.00  0.00     0.002 A 
ENDROOT
BRANCH   1  13
ATOM     13  C   UNL d   1      61.782  45.189  49.863  0.00  0.00     0.087 C 
BRANCH  13  14
ATOM     14  C   UNL d   1      61.568  45.947  50.080  0.00  0.00     0.018 A 
ATOM     15  C   UNL d   1      61.551  46.159  50.876  0.00  0.00     0.002 A 
ATOM     16  C   UNL d   1      61.333  46.932  51.097  0.00  0.00     0.005 A 
ATOM     17  C   UNL d   1      61.134  47.486  50.520  0.00  0.00     0.058 A 
ATOM     18  C   UNL d   1      61.151  47.275  49.717  0.00  0.00     0.005 A 
ATOM     19  C   UNL d   1      61.369  46.502  49.496  0.00  0.00     0.002 A 
BRANCH  17  20
ATOM     20  C   UNL d   1      60.918  48.251  50.739  0.00  0.00     0.279 C 
ATOM     21  O   UNL d   1      60.904  48.464  51.535  0.00  0.00    -0.265 OA
ATOM     22  N   UNL d   1      60.717  48.803  50.163  0.00  0.00    -0.206 NA
BRANCH  22  23
ATOM     23  C   UNL d   1      60.501  49.569  50.382  0.00  0.00     0.102 C 
BRANCH  23  24
ATOM     24  C   UNL d   1      59.896  49.687  50.930  0.00  0.00     0.021 C 
BRANCH  24  25
ATOM     25  C   UNL d   1      59.105  49.690  50.681  0.00  0.00     0.002 A 
ATOM     26  C   UNL d   1      58.929  49.697  49.870  0.00  0.00     0.000 A 
ATOM     27  C   UNL d   1      58.133  49.701  49.620  0.00  0.00     0.000 A 
ATOM     28  C   UNL d   1      57.524  49.697  50.183  0.00  0.00     0.000 A 
ATOM     29  C   UNL d   1      57.703  49.690  50.987  0.00  0.00     0.000 A 
ATOM     30  C   UNL d   1      58.498  49.687  51.237  0.00  0.00     0.000 A 
ENDBRANCH  24  25
ENDBRANCH  23  24
ENDBRANCH  22  23
ENDBRANCH  17  20
ENDBRANCH  13  14
ENDBRANCH   1  13
BRANCH   3  31
ATOM     31  C   UNL d   1      62.955  42.816  50.971  0.00  0.00     0.084 C 
BRANCH  31  32
ATOM     32  C   UNL d   1      62.913  42.189  50.439  0.00  0.00     0.018 A 
ATOM     33  C   UNL d   1      63.011  41.410  50.706  0.00  0.00     0.001 A 
ATOM     34  C   UNL d   1      63.152  41.254  51.519  0.00  0.00     0.000 C 
ATOM     35  C   UNL d   1      62.970  40.783  50.174  0.00  0.00     0.000 A 
ATOM     36  C   UNL d   1      62.832  40.932  49.376  0.00  0.00     0.000 A 
ATOM     37  C   UNL d   1      62.734  41.711  49.109  0.00  0.00     0.000 A 
ATOM     38  C   UNL d   1      62.775  42.338  49.641  0.00  0.00     0.002 A 
ENDBRANCH  31  32
ENDBRANCH   3  31
TORSDOF 8
ENDMDL
