MODEL 1
REMARK VINA RESULT:      -8.5      0.000      0.000
REMARK  6 active torsions:
REMARK  status: ('A' for Active; 'I' for Inactive)
REMARK    1  A    between atoms: S_3  and  C_1 
REMARK    2  A    between atoms: C_11  and  S_3 
REMARK    3  A    between atoms: S_8  and  C_4 
REMARK    4  A    between atoms: C_7  and  C_5 
REMARK    5  A    between atoms: C_16  and  S_8 
REMARK    6  A    between atoms: C_19  and  C_16 
ROOT
ATOM      1  C   UNL d   1      52.779  33.271  53.521  0.00  0.00     0.200 A 
ATOM      2  N   UNL d   1      52.235  33.859  53.313  0.00  0.00    -0.206 NA
ATOM      3  C   UNL d   1      52.517  32.556  53.194  0.00  0.00     0.160 A 
ATOM      4  C   UNL d   1      51.636  33.509  52.858  0.00  0.00     0.207 A 
ATOM      5  O   UNL d   1      51.817  32.705  52.789  0.00  0.00    -0.279 OA
ENDROOT
BRANCH   1   6
ATOM      6  S   UNL d   1      53.460  33.386  53.974  0.00  0.00     0.229 S 
ATOM      7  O   UNL d   1      53.857  33.524  53.267  0.00  0.00    -0.215 OA
ATOM      8  O   UNL d   1      53.068  33.249  54.686  0.00  0.00    -0.215 OA
BRANCH   6   9
ATOM      9  C   UNL d   1      54.137  33.500  54.436  0.00  0.00     0.089 A 
ATOM     10  C   UNL d   1      54.097  33.462  55.265  0.00  0.00     0.011 A 
ATOM     11  C   UNL d   1      54.766  33.574  55.715  0.00  0.00     0.001 A 
ATOM     12  C   UNL d   1      55.487  33.726  55.349  0.00  0.00     0.000 A 
ATOM     13  C   UNL d   1      55.537  33.765  54.531  0.00  0.00     0.001 A 
ATOM     14  C   UNL d   1      54.864  33.652  54.070  0.00  0.00     0.011 A 
ENDBRANCH   6   9
ENDBRANCH   1   6
BRANCH   3  15
ATOM     15  S   UNL d   1      52.894  31.825  53.264  0.00  0.00    -0.060 SA
BRANCH  15  16
ATOM     16  C   UNL d   1      52.550  31.153  52.927  0.00  0.00     0.037 C 
BRANCH  16  17
ATOM     17  C   UNL d   1      52.893  30.410  53.038  0.00  0.00     0.006 C 
ATOM     18  C   UNL d   1      52.623  29.923  53.647  0.00  0.00     0.001 C 
ATOM     19  C   UNL d   1      53.500  30.163  52.541  0.00  0.00     0.001 C 
ENDBRANCH  16  17
ENDBRANCH  15  16
ENDBRANCH   3  15
BRANCH   4  20
ATOM     20  C   UNL d   1      50.978  33.897  52.534  0.00  0.00     0.141 A 
ATOM     21  O   UNL d   1      50.879  34.117  51.738  0.00  0.00    -0.302 OA
ATOM     22  C   UNL d   1      50.155  34.484  51.661  0.00  0.00     0.123 A 
ATOM     23  C   UNL d   1      49.789  34.501  52.399  0.00  0.00     0.029 A 
ATOM     24  C   UNL d   1      50.295  34.139  52.939  0.00  0.00     0.030 A 
ENDBRANCH   4  20
TORSDOF 6
ENDMDL
MODEL 2
REMARK VINA RESULT:      -8.0      1.291      4.162
REMARK  6 active torsions:
REMARK  status: ('A' for Active; 'I' for Inactive)
REMARK    1  A    between atoms: S_3  and  C_1 
REMARK    2  A    between atoms: C_11  and  S_3 
REMARK    3  A    between atoms: S_8  and  C_4 
REMARK    4  A    between atoms: C_7  and  C_5 
REMARK    5  A    between atoms: C_16  and  S_8 
REMARK    6  A    between atoms: C_19  and  C_16 
ROOT
ATOM      1  C   UNL d   1      52.771  32.119  53.527  0.00  0.00     0.200 A 
ATOM      2  N   UNL d   1      52.601  31.312  53.476  0.00  0.00    -0.206 NA
ATOM      3  C   UNL d   1      53.475  32.206  53.957  0.00  0.00     0.160 A 
ATOM      4  C   UNL d   1      53.199  30.896  53.875  0.00  0.00     0.207 A 
ATOM      5  O   UNL d   1      53.734  31.454  54.169  0.00  0.00    -0.279 OA
ENDROOT
BRANCH   1   6
ATOM      6  S   UNL d   1      52.315  32.727  53.202  0.00  0.00     0.229 S 
ATOM      7  O   UNL d   1      52.735  32.614  52.504  0.00  0.00    -0.215 OA
ATOM      8  O   UNL d   1      51.890  32.845  53.898  0.00  0.00    -0.215 OA
BRANCH   6   9
ATOM      9  C   UNL d   1      51.852  33.337  52.885  0.00  0.00     0.089 A 
ATOM     10  C   UNL d   1      52.123  33.784  52.240  0.00  0.00     0.011 A 
ATOM     11  C   UNL d   1      51.665  34.382  51.933  0.00  0.00     0.001 A 
ATOM     12  C   UNL d   1      50.928  34.546  52.262  0.00  0.00     0.000 A 
ATOM     13  C   UNL d   1      50.652  34.110  52.899  0.00  0.00     0.001 A 
ATOM     14  C   UNL d   1      51.111  33.503  53.215  0.00  0.00     0.011 A 
ENDBRANCH   6   9
ENDBRANCH   1   6
BRANCH   3  15
ATOM     15  S   UNL d   1      53.847  32.920  54.139  0.00  0.00    -0.060 SA
BRANCH  15  16
ATOM     16  C   UNL d   1      54.492  32.925  54.655  0.00  0.00     0.037 C 
BRANCH  16  17
ATOM     17  C   UNL d   1      54.868  33.635  54.844  0.00  0.00     0.006 C 
ATOM     18  C   UNL d   1      55.503  33.895  54.385  0.00  0.00     0.001 C 
ATOM     19  C   UNL d   1      54.607  34.076  55.487  0.00  0.00     0.001 C 
ENDBRANCH  16  17
ENDBRANCH  15  16
ENDBRANCH   3  15
BRANCH   4  20
ATOM     20  C   UNL d   1      53.247  30.073  53.962  0.00  0.00     0.141 A 
ATOM     21  O   UNL d   1      53.308  29.655  54.678  0.00  0.00    -0.302 OA
ATOM     22  C   UNL d   1      53.341  28.858  54.510  0.00  0.00     0.123 A 
ATOM     23  C   UNL d   1      53.303  28.760  53.692  0.00  0.00     0.029 A 
ATOM     24  C   UNL d   1      53.245  29.509  53.353  0.00  0.00     0.030 A 
ENDBRANCH   4  20
TORSDOF 6
ENDMDL
MODEL 3
REMARK VINA RESULT:      -7.6      1.227      3.158
REMARK  6 active torsions:
REMARK  status: ('A' for Active; 'I' for Inactive)
REMARK    1  A    between atoms: S_3  and  C_1 
REMARK    2  A    between atoms: C_11  and  S_3 
REMARK    3  A    between atoms: S_8  and  C_4 
REMARK    4  A    between atoms: C_7  and  C_5 
REMARK    5  A    between atoms: C_16  and  S_8 
REMARK    6  A    between atoms: C_19  and  C_16 
ROOT
ATOM      1  C   UNL d   1      53.562  32.115  53.795  0.00  0.00     0.200 A 
ATOM      2  N   UNL d   1      53.633  31.291  53.812  0.00  0.00    -0.206 NA
ATOM      3  C   UNL d   1      52.891  32.303  53.345  0.00  0.00     0.160 A 
ATOM      4  C   UNL d   1      53.007  30.968  53.373  0.00  0.00     0.207 A 
ATOM      5  O   UNL d   1      52.554  31.598  53.088  0.00  0.00    -0.279 OA
ENDROOT
BRANCH   1   6
ATOM      6  S   UNL d   1      54.073  32.648  54.164  0.00  0.00     0.229 S 
ATOM      7  O   UNL d   1      54.520  32.633  53.474  0.00  0.00    -0.215 OA
ATOM      8  O   UNL d   1      53.629  32.668  54.859  0.00  0.00    -0.215 OA
BRANCH   6   9
ATOM      9  C   UNL d   1      54.580  33.183  54.543  0.00  0.00     0.089 A 
ATOM     10  C   UNL d   1      54.456  33.397  55.336  0.00  0.00     0.011 A 
ATOM     11  C   UNL d   1      54.957  33.922  55.703  0.00  0.00     0.001 A 
ATOM     12  C   UNL d   1      55.591  34.245  55.287  0.00  0.00     0.000 A 
ATOM     13  C   UNL d   1      55.721  34.040  54.504  0.00  0.00     0.001 A 
ATOM     14  C   UNL d   1      55.218  33.508  54.127  0.00  0.00     0.011 A 
ENDBRANCH   6   9
ENDBRANCH   1   6
BRANCH   3  15
ATOM     15  S   UNL d   1      52.614  33.064  53.185  0.00  0.00    -0.060 SA
BRANCH  15  16
ATOM     16  C   UNL d   1      51.897  33.163  52.785  0.00  0.00     0.037 C 
BRANCH  16  17
ATOM     17  C   UNL d   1      51.600  33.919  52.644  0.00  0.00     0.006 C 
ATOM     18  C   UNL d   1      51.931  34.382  52.045  0.00  0.00     0.001 C 
ATOM     19  C   UNL d   1      50.978  34.206  53.100  0.00  0.00     0.001 C 
ENDBRANCH  16  17
ENDBRANCH  15  16
ENDBRANCH   3  15
BRANCH   4  20
ATOM     20  C   UNL d   1      52.865  30.161  53.245  0.00  0.00     0.141 A 
ATOM     21  O   UNL d   1      52.623  29.809  52.531  0.00  0.00    -0.302 OA
ATOM     22  C   UNL d   1      52.549  29.007  52.651  0.00  0.00     0.123 A 
ATOM     23  C   UNL d   1      52.742  28.839  53.434  0.00  0.00     0.029 A 
ATOM     24  C   UNL d   1      52.937  29.550  53.802  0.00  0.00     0.030 A 
ENDBRANCH   4  20
TORSDOF 6
ENDMDL
MODEL 4
REMARK VINA RESULT:      -7.6      0.849      3.733
REMARK  6 active torsions:
REMARK  status: ('A' for Active; 'I' for Inactive)
REMARK    1  A    between atoms: S_3  and  C_1 
REMARK    2  A    between atoms: C_11  and  S_3 
REMARK    3  A    between atoms: S_8  and  C_4 
REMARK    4  A    between atoms: C_7  and  C_5 
REMARK    5  A    between atoms: C_16  and  S_8 
REMARK    6  A    between atoms: C_19  and  C_16 
ROOT
ATOM      1  C   UNL d   1      52.827  33.266  53.578  0.00  0.00     0.200 A 
ATOM      2  N   UNL d   1      53.338  33.741  54.023  0.00  0.00    -0.206 NA
ATOM      3  C   UNL d   1      53.118  32.490  53.599  0.00  0.00     0.160 A 
ATOM      4  C   UNL d   1      53.946  33.260  54.319  0.00  0.00     0.207 A 
ATOM      5  O   UNL d   1      53.804  32.491  54.054  0.00  0.00    -0.279 OA
ENDROOT
BRANCH   1   6
ATOM      6  S   UNL d   1      52.148  33.527  53.186  0.00  0.00     0.229 S 
ATOM      7  O   UNL d   1      52.626  33.650  52.528  0.00  0.00    -0.215 OA
ATOM      8  O   UNL d   1      51.664  33.406  53.843  0.00  0.00    -0.215 OA
BRANCH   6   9
ATOM      9  C   UNL d   1      51.462  33.787  52.802  0.00  0.00     0.089 A 
ATOM     10  C   UNL d   1      51.483  34.013  52.003  0.00  0.00     0.011 A 
ATOM     11  C   UNL d   1      50.806  34.268  51.630  0.00  0.00     0.001 A 
ATOM     12  C   UNL d   1      50.096  34.303  52.045  0.00  0.00     0.000 A 
ATOM     13  C   UNL d   1      50.065  34.082  52.834  0.00  0.00     0.001 A 
ATOM     14  C   UNL d   1      50.747  33.823  53.218  0.00  0.00     0.011 A 
ENDBRANCH   6   9
ENDBRANCH   1   6
BRANCH   3  15
ATOM     15  S   UNL d   1      52.778  31.836  53.228  0.00  0.00    -0.060 SA
BRANCH  15  16
ATOM     16  C   UNL d   1      53.111  31.086  53.336  0.00  0.00     0.037 C 
BRANCH  16  17
ATOM     17  C   UNL d   1      52.743  30.419  53.021  0.00  0.00     0.006 C 
ATOM     18  C   UNL d   1      52.158  30.032  53.457  0.00  0.00     0.001 C 
ATOM     19  C   UNL d   1      52.961  30.145  52.276  0.00  0.00     0.001 C 
ENDBRANCH  16  17
ENDBRANCH  15  16
ENDBRANCH   3  15
BRANCH   4  20
ATOM     20  C   UNL d   1      54.579  33.510  54.794  0.00  0.00     0.141 A 
ATOM     21  O   UNL d   1      55.315  33.789  54.527  0.00  0.00    -0.302 OA
ATOM     22  C   UNL d   1      55.772  33.974  55.176  0.00  0.00     0.123 A 
ATOM     23  C   UNL d   1      55.336  33.817  55.858  0.00  0.00     0.029 A 
ATOM     24  C   UNL d   1      54.599  33.530  55.623  0.00  0.00     0.030 A 
ENDBRANCH   4  20
TORSDOF 6
ENDMDL
MODEL 5
REMARK VINA RESULT:      -7.3      0.883      2.939
REMARK  6 active torsions:
REMARK  status: ('A' for Active; 'I' for Inactive)
REMARK    1  A    between atoms: S_3  and  C_1 
REMARK    2  A    between atoms: C_11  and  S_3 
REMARK    3  A    between atoms: S_8  and  C_4 
REMARK    4  A    between atoms: C_7  and  C_5 
REMARK    5  A    between atoms: C_16  and  S_8 
REMARK    6  A    between atoms: C_19  and  C_16 
ROOT
ATOM      1  C   UNL d   1      52.478  32.288  53.297  0.00  0.00     0.200 A 
ATOM      2  N   UNL d   1      51.765  32.559  52.978  0.00  0.00    -0.206 NA
ATOM      3  C   UNL d   1      52.901  32.947  53.571  0.00  0.00     0.160 A 
ATOM      4  C   UNL d   1      51.745  33.386  53.054  0.00  0.00     0.207 A 
ATOM      5  O   UNL d   1      52.449  33.617  53.421  0.00  0.00    -0.279 OA
ENDROOT
BRANCH   1   6
ATOM      6  S   UNL d   1      52.719  31.498  53.333  0.00  0.00     0.229 S 
ATOM      7  O   UNL d   1      53.079  31.619  52.603  0.00  0.00    -0.215 OA
ATOM      8  O   UNL d   1      52.361  31.371  54.064  0.00  0.00    -0.215 OA
BRANCH   6   9
ATOM      9  C   UNL d   1      52.956  30.706  53.377  0.00  0.00     0.089 A 
ATOM     10  C   UNL d   1      53.154  30.362  54.107  0.00  0.00     0.011 A 
ATOM     11  C   UNL d   1      53.386  29.583  54.145  0.00  0.00     0.001 A 
ATOM     12  C   UNL d   1      53.425  29.132  53.457  0.00  0.00     0.000 A 
ATOM     13  C   UNL d   1      53.232  29.462  52.732  0.00  0.00     0.001 A 
ATOM     14  C   UNL d   1      52.996  30.251  52.686  0.00  0.00     0.011 A 
ENDBRANCH   6   9
ENDBRANCH   1   6
BRANCH   3  15
ATOM     15  S   UNL d   1      53.644  32.930  53.931  0.00  0.00    -0.060 SA
BRANCH  15  16
ATOM     16  C   UNL d   1      53.936  33.610  54.300  0.00  0.00     0.037 C 
BRANCH  16  17
ATOM     17  C   UNL d   1      54.661  33.591  54.693  0.00  0.00     0.006 C 
ATOM     18  C   UNL d   1      54.678  33.482  55.512  0.00  0.00     0.001 C 
ATOM     19  C   UNL d   1      55.359  33.680  54.268  0.00  0.00     0.001 C 
ENDBRANCH  16  17
ENDBRANCH  15  16
ENDBRANCH   3  15
BRANCH   4  20
ATOM     20  C   UNL d   1      51.130  33.884  52.807  0.00  0.00     0.141 A 
ATOM     21  O   UNL d   1      50.530  34.203  53.287  0.00  0.00    -0.302 OA
ATOM     22  C   UNL d   1      50.042  34.660  52.821  0.00  0.00     0.123 A 
ATOM     23  C   UNL d   1      50.323  34.638  52.046  0.00  0.00     0.029 A 
ATOM     24  C   UNL d   1      50.993  34.159  52.036  0.00  0.00     0.030 A 
ENDBRANCH   4  20
TORSDOF 6
ENDMDL
MODEL 6
REMARK VINA RESULT:      -5.9      1.263      4.100
REMARK  6 active torsions:
REMARK  status: ('A' for Active; 'I' for Inactive)
REMARK    1  A    between atoms: S_3  and  C_1 
REMARK    2  A    between atoms: C_11  and  S_3 
REMARK    3  A    between atoms: S_8  and  C_4 
REMARK    4  A    between atoms: C_7  and  C_5 
REMARK    5  A    between atoms: C_16  and  S_8 
REMARK    6  A    between atoms: C_19  and  C_16 
ROOT
ATOM      1  C   UNL d   1      53.511  32.078  53.816  0.00  0.00     0.200 A 
ATOM      2  N   UNL d   1      54.210  32.279  54.210  0.00  0.00    -0.206 NA
ATOM      3  C   UNL d   1      53.083  32.776  53.685  0.00  0.00     0.160 A 
ATOM      4  C   UNL d   1      54.216  33.102  54.324  0.00  0.00     0.207 A 
ATOM      5  O   UNL d   1      53.517  33.400  53.998  0.00  0.00    -0.279 OA
ENDROOT
BRANCH   1   6
ATOM      6  S   UNL d   1      53.288  31.314  53.596  0.00  0.00     0.229 S 
ATOM      7  O   UNL d   1      53.594  31.484  52.852  0.00  0.00    -0.215 OA
ATOM      8  O   UNL d   1      52.979  31.138  54.340  0.00  0.00    -0.215 OA
BRANCH   6   9
ATOM      9  C   UNL d   1      53.060  30.546  53.384  0.00  0.00     0.089 A 
ATOM     10  C   UNL d   1      52.950  30.340  52.587  0.00  0.00     0.011 A 
ATOM     11  C   UNL d   1      52.726  29.585  52.385  0.00  0.00     0.001 A 
ATOM     12  C   UNL d   1      52.608  29.020  52.972  0.00  0.00     0.000 A 
ATOM     13  C   UNL d   1      52.715  29.213  53.761  0.00  0.00     0.001 A 
ATOM     14  C   UNL d   1      52.941  29.977  53.973  0.00  0.00     0.011 A 
ENDBRANCH   6   9
ENDBRANCH   1   6
BRANCH   3  15
ATOM     15  S   UNL d   1      52.351  32.830  53.308  0.00  0.00    -0.060 SA
BRANCH  15  16
ATOM     16  C   UNL d   1      51.949  33.553  53.296  0.00  0.00     0.037 C 
BRANCH  16  17
ATOM     17  C   UNL d   1      51.274  33.647  52.831  0.00  0.00     0.006 C 
ATOM     18  C   UNL d   1      51.331  34.030  52.102  0.00  0.00     0.001 C 
ATOM     19  C   UNL d   1      50.551  33.357  53.098  0.00  0.00     0.001 C 
ENDBRANCH  16  17
ENDBRANCH  15  16
ENDBRANCH   3  15
BRANCH   4  20
ATOM     20  C   UNL d   1      54.813  33.539  54.697  0.00  0.00     0.141 A 
ATOM     21  O   UNL d   1      55.506  33.830  54.341  0.00  0.00    -0.302 OA
ATOM     22  C   UNL d   1      55.939  34.228  54.906  0.00  0.00     0.123 A 
ATOM     23  C   UNL d   1      55.531  34.195  55.621  0.00  0.00     0.029 A 
ATOM     24  C   UNL d   1      54.836  33.771  55.494  0.00  0.00     0.030 A 
ENDBRANCH   4  20
TORSDOF 6
ENDMDL
