MODEL 1
REMARK VINA RESULT:      60.7      0.000      0.000
REMARK  5 active torsions:
REMARK  status: ('A' for Active; 'I' for Inactive)
REMARK    1  A    between atoms: C_4  and  S_1 
REMARK    2  A    between atoms: N_5  and  S_1 
REMARK    3  A    between atoms: C_2  and  C_9 
REMARK       I    between atoms: N_3  and  C_2 
REMARK    4  A    between atoms: C_8  and  N_3 
REMARK    5  A    between atoms: O_16  and  C_11 
ROOT
ATOM      1  C   UNL d   1     -50.020  26.897  34.054  0.00  0.00     0.104 A 
ATOM      2  C   UNL d   1     -49.038  28.045  34.784  0.00  0.00     0.058 A 
ATOM      3  C   UNL d   1     -49.507  27.331  33.629  0.00  0.00     0.013 A 
ATOM      4  C   UNL d   1     -50.053  27.027  34.853  0.00  0.00     0.013 A 
ATOM      5  C   UNL d   1     -49.584  27.584  35.242  0.00  0.00     0.005 A 
ATOM      6  C   UNL d   1     -49.020  27.899  33.988  0.00  0.00     0.005 A 
ENDROOT
BRANCH   2   7
ATOM      7  C   UNL d   1     -48.539  28.626  35.150  0.00  0.00     0.279 C 
ATOM      8  N   UNL d   1     -48.321  29.283  34.786  0.00  0.00    -0.206 NA
ATOM      9  O   UNL d   1     -48.284  28.460  35.946  0.00  0.00    -0.265 OA
BRANCH   8  10
ATOM     10  C   UNL d   1     -47.835  29.831  35.167  0.00  0.00     0.107 A 
ATOM     11  C   UNL d   1     -47.834  30.600  34.917  0.00  0.00     0.112 A 
ATOM     12  C   UNL d   1     -47.349  31.147  35.298  0.00  0.00     0.026 A 
ATOM     13  C   UNL d   1     -46.865  30.926  35.929  0.00  0.00     0.002 A 
ATOM     14  C   UNL d   1     -46.874  30.128  36.179  0.00  0.00     0.002 A 
ATOM     15  C   UNL d   1     -47.361  29.584  35.795  0.00  0.00     0.021 A 
BRANCH  11  16
ATOM     16  O   UNL d   1     -48.280  30.779  34.344  0.00  0.00    -0.327 OA
ATOM     17  C   UNL d   1     -48.307  31.749  34.268  0.00  0.00     0.181 C 
ENDBRANCH  11  16
ENDBRANCH   8  10
ENDBRANCH   2   7
BRANCH   1  18
ATOM     18  S   UNL d   1     -50.569  26.274  33.737  0.00  0.00     0.271 S 
ATOM     19  O   UNL d   1     -49.951  25.763  33.477  0.00  0.00    -0.200 OA
ATOM     20  O   UNL d   1     -51.156  26.766  33.988  0.00  0.00    -0.200 OA
BRANCH  18  21
ATOM     21  N   UNL d   1     -51.167  25.699  33.444  0.00  0.00    -0.226 N 
ATOM     22  C   UNL d   1     -51.944  25.943  33.306  0.00  0.00     0.111 C 
ATOM     23  C   UNL d   1     -50.947  24.905  33.307  0.00  0.00     0.111 C 
ENDBRANCH  18  21
ENDBRANCH   1  18
TORSDOF 5
ENDMDL
MODEL 2
REMARK VINA RESULT:      62.3      1.297      5.165
REMARK  5 active torsions:
REMARK  status: ('A' for Active; 'I' for Inactive)
REMARK    1  A    between atoms: C_4  and  S_1 
REMARK    2  A    between atoms: N_5  and  S_1 
REMARK    3  A    between atoms: C_2  and  C_9 
REMARK       I    between atoms: N_3  and  C_2 
REMARK    4  A    between atoms: C_8  and  N_3 
REMARK    5  A    between atoms: O_16  and  C_11 
ROOT
ATOM      1  C   UNL d   1     -48.445  28.937  34.782  0.00  0.00     0.104 A 
ATOM      2  C   UNL d   1     -49.598  27.830  34.272  0.00  0.00     0.058 A 
ATOM      3  C   UNL d   1     -48.738  28.958  34.044  0.00  0.00     0.013 A 
ATOM      4  C   UNL d   1     -48.722  28.363  35.282  0.00  0.00     0.013 A 
ATOM      5  C   UNL d   1     -49.288  27.804  35.062  0.00  0.00     0.005 A 
ATOM      6  C   UNL d   1     -49.308  28.411  33.789  0.00  0.00     0.005 A 
ENDROOT
BRANCH   2   7
ATOM      7  C   UNL d   1     -50.182  27.271  34.011  0.00  0.00     0.279 C 
ATOM      8  N   UNL d   1     -50.097  26.500  34.105  0.00  0.00    -0.206 NA
ATOM      9  O   UNL d   1     -50.875  27.594  33.636  0.00  0.00    -0.265 OA
BRANCH   8  10
ATOM     10  C   UNL d   1     -50.681  25.979  33.842  0.00  0.00     0.107 A 
ATOM     11  C   UNL d   1     -50.466  25.249  33.569  0.00  0.00     0.112 A 
ATOM     12  C   UNL d   1     -51.050  24.730  33.306  0.00  0.00     0.026 A 
ATOM     13  C   UNL d   1     -51.848  24.940  33.315  0.00  0.00     0.002 A 
ATOM     14  C   UNL d   1     -52.059  25.698  33.600  0.00  0.00     0.002 A 
ATOM     15  C   UNL d   1     -51.471  26.214  33.862  0.00  0.00     0.021 A 
BRANCH  11  16
ATOM     16  O   UNL d   1     -49.738  25.079  33.569  0.00  0.00    -0.327 OA
ATOM     17  C   UNL d   1     -49.643  24.140  33.330  0.00  0.00     0.181 C 
ENDBRANCH  11  16
ENDBRANCH   8  10
ENDBRANCH   2   7
BRANCH   1  18
ATOM     18  S   UNL d   1     -47.835  29.489  35.121  0.00  0.00     0.271 S 
ATOM     19  O   UNL d   1     -47.350  28.874  35.431  0.00  0.00    -0.200 OA
ATOM     20  O   UNL d   1     -48.303  30.073  34.821  0.00  0.00    -0.200 OA
BRANCH  18  21
ATOM     21  N   UNL d   1     -47.272  30.089  35.429  0.00  0.00    -0.226 N 
ATOM     22  C   UNL d   1     -46.840  30.560  34.907  0.00  0.00     0.111 C 
ATOM     23  C   UNL d   1     -47.176  30.182  36.255  0.00  0.00     0.111 C 
ENDBRANCH  18  21
ENDBRANCH   1  18
TORSDOF 5
ENDMDL
MODEL 3
REMARK VINA RESULT:      62.5      1.454      4.984
REMARK  5 active torsions:
REMARK  status: ('A' for Active; 'I' for Inactive)
REMARK    1  A    between atoms: C_4  and  S_1 
REMARK    2  A    between atoms: N_5  and  S_1 
REMARK    3  A    between atoms: C_2  and  C_9 
REMARK       I    between atoms: N_3  and  C_2 
REMARK    4  A    between atoms: C_8  and  N_3 
REMARK    5  A    between atoms: O_16  and  C_11 
ROOT
ATOM      1  C   UNL d   1     -48.200  29.188  35.279  0.00  0.00     0.104 A 
ATOM      2  C   UNL d   1     -49.116  27.854  34.835  0.00  0.00     0.058 A 
ATOM      3  C   UNL d   1     -48.507  28.698  35.825  0.00  0.00     0.013 A 
ATOM      4  C   UNL d   1     -48.344  29.022  34.499  0.00  0.00     0.013 A 
ATOM      5  C   UNL d   1     -48.790  28.375  34.248  0.00  0.00     0.005 A 
ATOM      6  C   UNL d   1     -48.961  28.037  35.608  0.00  0.00     0.005 A 
ENDROOT
BRANCH   2   7
ATOM      7  C   UNL d   1     -49.580  27.178  34.612  0.00  0.00     0.279 C 
ATOM      8  N   UNL d   1     -49.850  27.074  33.886  0.00  0.00    -0.206 NA
ATOM      9  O   UNL d   1     -49.739  26.610  35.227  0.00  0.00    -0.265 OA
BRANCH   8  10
ATOM     10  C   UNL d   1     -50.299  26.407  33.699  0.00  0.00     0.107 A 
ATOM     11  C   UNL d   1     -51.095  26.485  33.582  0.00  0.00     0.112 A 
ATOM     12  C   UNL d   1     -51.542  25.819  33.395  0.00  0.00     0.026 A 
ATOM     13  C   UNL d   1     -51.194  25.074  33.323  0.00  0.00     0.002 A 
ATOM     14  C   UNL d   1     -50.369  25.004  33.446  0.00  0.00     0.002 A 
ATOM     15  C   UNL d   1     -49.926  25.674  33.633  0.00  0.00     0.021 A 
BRANCH  11  16
ATOM     16  O   UNL d   1     -51.390  27.169  33.652  0.00  0.00    -0.327 OA
ATOM     17  C   UNL d   1     -52.302  27.144  33.314  0.00  0.00     0.181 C 
ENDBRANCH  11  16
ENDBRANCH   8  10
ENDBRANCH   2   7
BRANCH   1  18
ATOM     18  S   UNL d   1     -47.708  29.910  35.441  0.00  0.00     0.271 S 
ATOM     19  O   UNL d   1     -47.079  29.485  35.807  0.00  0.00    -0.200 OA
ATOM     20  O   UNL d   1     -48.312  30.312  35.090  0.00  0.00    -0.200 OA
BRANCH  18  21
ATOM     21  N   UNL d   1     -47.273  30.664  35.569  0.00  0.00    -0.226 N 
ATOM     22  C   UNL d   1     -47.055  31.132  34.925  0.00  0.00     0.111 C 
ATOM     23  C   UNL d   1     -47.081  30.904  36.347  0.00  0.00     0.111 C 
ENDBRANCH  18  21
ENDBRANCH   1  18
TORSDOF 5
ENDMDL
MODEL 4
REMARK VINA RESULT:      63.0      0.886      1.478
REMARK  5 active torsions:
REMARK  status: ('A' for Active; 'I' for Inactive)
REMARK    1  A    between atoms: C_4  and  S_1 
REMARK    2  A    between atoms: N_5  and  S_1 
REMARK    3  A    between atoms: C_2  and  C_9 
REMARK       I    between atoms: N_3  and  C_2 
REMARK    4  A    between atoms: C_8  and  N_3 
REMARK    5  A    between atoms: O_16  and  C_11 
ROOT
ATOM      1  C   UNL d   1     -50.367  26.514  33.613  0.00  0.00     0.104 A 
ATOM      2  C   UNL d   1     -49.677  28.013  33.918  0.00  0.00     0.058 A 
ATOM      3  C   UNL d   1     -49.652  26.706  33.322  0.00  0.00     0.013 A 
ATOM      4  C   UNL d   1     -50.752  27.067  34.062  0.00  0.00     0.013 A 
ATOM      5  C   UNL d   1     -50.441  27.812  34.230  0.00  0.00     0.005 A 
ATOM      6  C   UNL d   1     -49.309  27.446  33.471  0.00  0.00     0.005 A 
ENDROOT
BRANCH   2   7
ATOM      7  C   UNL d   1     -49.326  28.770  34.070  0.00  0.00     0.279 C 
ATOM      8  N   UNL d   1     -48.777  28.877  34.616  0.00  0.00    -0.206 NA
ATOM      9  O   UNL d   1     -49.603  29.420  33.593  0.00  0.00    -0.265 OA
BRANCH   8  10
ATOM     10  C   UNL d   1     -48.452  29.626  34.743  0.00  0.00     0.107 A 
ATOM     11  C   UNL d   1     -47.856  29.713  35.282  0.00  0.00     0.112 A 
ATOM     12  C   UNL d   1     -47.533  30.461  35.408  0.00  0.00     0.026 A 
ATOM     13  C   UNL d   1     -47.805  31.121  34.996  0.00  0.00     0.002 A 
ATOM     14  C   UNL d   1     -48.422  31.020  34.440  0.00  0.00     0.002 A 
ATOM     15  C   UNL d   1     -48.743  30.270  34.317  0.00  0.00     0.021 A 
BRANCH  11  16
ATOM     16  O   UNL d   1     -47.625  29.101  35.645  0.00  0.00    -0.327 OA
ATOM     17  C   UNL d   1     -46.783  29.308  36.088  0.00  0.00     0.181 C 
ENDBRANCH  11  16
ENDBRANCH   8  10
ENDBRANCH   2   7
BRANCH   1  18
ATOM     18  S   UNL d   1     -50.792  25.742  33.493  0.00  0.00     0.271 S 
ATOM     19  O   UNL d   1     -50.099  25.268  33.572  0.00  0.00    -0.200 OA
ATOM     20  O   UNL d   1     -51.451  26.200  33.418  0.00  0.00    -0.200 OA
BRANCH  18  21
ATOM     21  N   UNL d   1     -51.273  25.017  33.367  0.00  0.00    -0.226 N 
ATOM     22  C   UNL d   1     -52.095  25.070  33.307  0.00  0.00     0.111 C 
ATOM     23  C   UNL d   1     -50.896  24.273  33.309  0.00  0.00     0.111 C 
ENDBRANCH  18  21
ENDBRANCH   1  18
TORSDOF 5
ENDMDL
