MODEL 1
REMARK VINA RESULT:      19.5      0.000      0.000
REMARK  10 active torsions:
REMARK  status: ('A' for Active; 'I' for Inactive)
REMARK    1  A    between atoms: C_14  and  N_1 
REMARK    2  A    between atoms: N_9  and  C_2 
REMARK    3  A    between atoms: C_6  and  C_5 
REMARK    4  A    between atoms: C_7  and  C_6 
REMARK       I    between atoms: N_8  and  C_7 
REMARK    5  A    between atoms: C_10  and  N_8 
REMARK    6  A    between atoms: C_16  and  N_9 
REMARK    7  A    between atoms: O_15  and  C_13 
REMARK    8  A    between atoms: C_19  and  O_15 
REMARK    9  A    between atoms: C_21  and  C_19 
REMARK   10  A    between atoms: C_22  and  C_21 
ROOT
ATOM      1  C   UNL d   1      46.440 -16.844  44.126  0.00  0.00     0.280 C 
ATOM      2  N   UNL d   1      46.610 -17.470  43.619  0.00  0.00    -0.206 NA
ATOM      3  O   UNL d   1      46.193 -16.993  44.896  0.00  0.00    -0.265 OA
ENDROOT
BRANCH   1   4
ATOM      4  C   UNL d   1      46.520 -16.070  43.853  0.00  0.00     0.074 C 
BRANCH   4   5
ATOM      5  C   UNL d   1      46.074 -15.462  44.182  0.00  0.00     0.093 A 
ATOM      6  C   UNL d   1      45.274 -15.496  44.375  0.00  0.00     0.272 A 
ATOM      7  N   UNL d   1      45.056 -14.768  44.687  0.00  0.00    -0.252 N 
ATOM      8  O   UNL d   1      44.780 -16.145  44.274  0.00  0.00    -0.266 OA
ATOM      9  C   UNL d   1      45.719 -14.283  44.688  0.00  0.00     0.182 A 
ATOM     10  S   UNL d   1      46.356 -14.709  44.374  0.00  0.00    -0.045 SA
BRANCH   7  11
ATOM     11  C   UNL d   1      44.307 -14.556  44.954  0.00  0.00     0.085 C 
ATOM     12  C   UNL d   1      43.642 -14.745  44.497  0.00  0.00     0.021 C 
ENDBRANCH   7  11
BRANCH   9  13
ATOM     13  N   UNL d   1      45.752 -13.501  44.955  0.00  0.00    -0.221 NA
BRANCH  13  14
ATOM     14  C   UNL d   1      45.906 -12.895  44.425  0.00  0.00     0.101 C 
ATOM     15  C   UNL d   1      46.059 -12.135  44.696  0.00  0.00     0.022 C 
ENDBRANCH  13  14
ENDBRANCH   9  13
ENDBRANCH   4   5
ENDBRANCH   1   4
BRANCH   2  16
ATOM     16  C   UNL d   1      46.534 -18.245  43.882  0.00  0.00     0.107 A 
ATOM     17  C   UNL d   1      46.544 -18.873  43.336  0.00  0.00     0.118 A 
ATOM     18  C   UNL d   1      46.467 -19.651  43.602  0.00  0.00     0.026 A 
ATOM     19  C   UNL d   1      46.380 -19.798  44.410  0.00  0.00     0.002 A 
ATOM     20  C   UNL d   1      46.370 -19.176  44.950  0.00  0.00     0.002 A 
ATOM     21  C   UNL d   1      46.446 -18.401  44.688  0.00  0.00     0.021 A 
BRANCH  17  22
ATOM     22  O   UNL d   1      46.631 -18.720  42.533  0.00  0.00    -0.304 OA
BRANCH  22  23
ATOM     23  C   UNL d   1      46.497 -19.319  41.986  0.00  0.00     0.123 C 
BRANCH  23  24
ATOM     24  C   UNL d   1      46.105 -19.160  41.287  0.00  0.00     0.027 C 
BRANCH  24  25
ATOM     25  C   UNL d   1      46.444 -18.657  40.717  0.00  0.00     0.002 C 
ATOM     26  C   UNL d   1      45.965 -18.330  40.130  0.00  0.00     0.000 C 
ENDBRANCH  24  25
ENDBRANCH  23  24
ENDBRANCH  22  23
ENDBRANCH  17  22
ENDBRANCH   2  16
TORSDOF 10
ENDMDL
