MODEL 1
REMARK VINA RESULT:      -7.6      0.000      0.000
REMARK  4 active torsions:
REMARK  status: ('A' for Active; 'I' for Inactive)
REMARK    1  A    between atoms: C_2  and  N_1 
REMARK       I    between atoms: C_4  and  N_1 
REMARK    2  A    between atoms: C_3  and  C_2 
REMARK    3  A    between atoms: N_5  and  C_2 
REMARK    4  A    between atoms: C_6  and  C_4 
ROOT
ATOM      1  C   UNL d   1     -49.715  13.095  22.450  0.00  0.00     0.170 C 
ENDROOT
BRANCH   1   2
ATOM      2  N   UNL d   1     -49.516  12.957  21.644  0.00  0.00    -0.191 NA
ATOM      3  C   UNL d   1     -48.705  12.859  21.415  0.00  0.00     0.280 C 
ATOM      4  O   UNL d   1     -48.484  12.715  20.584  0.00  0.00    -0.265 OA
BRANCH   3   5
ATOM      5  C   UNL d   1     -48.116  12.901  22.003  0.00  0.00     0.058 A 
ATOM      6  C   UNL d   1     -47.930  12.246  22.486  0.00  0.00     0.007 A 
ATOM      7  C   UNL d   1     -47.342  12.311  23.065  0.00  0.00     0.030 A 
ATOM      8  C   UNL d   1     -46.928  13.016  23.178  0.00  0.00     0.140 A 
ATOM      9  C   UNL d   1     -47.114  13.670  22.694  0.00  0.00     0.030 A 
ATOM     10  F   UNL d   1     -46.392  13.090  23.698  0.00  0.00    -0.204 F 
ATOM     11  C   UNL d   1     -47.720  13.612  22.095  0.00  0.00     0.007 A 
ENDBRANCH   3   5
ENDBRANCH   1   2
BRANCH   1  12
ATOM     12  C   UNL d   1     -49.764  12.590  23.052  0.00  0.00     0.249 C 
ATOM     13 CL   UNL d   1     -49.942  11.850  23.698  0.00  0.00    -0.075 Cl
ATOM     14 CL   UNL d   1     -50.264  11.929  22.877  0.00  0.00    -0.075 Cl
ATOM     15 CL   UNL d   1     -49.444  12.793  23.473  0.00  0.00    -0.075 Cl
ENDBRANCH   1  12
BRANCH   1  16
ATOM     16  N   UNL d   1     -49.890  13.848  22.686  0.00  0.00    -0.286 N 
ATOM     17  C   UNL d   1     -49.870  14.058  23.464  0.00  0.00     0.108 A 
ATOM     18  C   UNL d   1     -50.048  14.820  23.696  0.00  0.00     0.142 A 
ATOM     19  O   UNL d   1     -50.247  15.367  23.133  0.00  0.00    -0.300 OA
ATOM     20  C   UNL d   1     -50.268  15.163  22.365  0.00  0.00     0.142 A 
ATOM     21  C   UNL d   1     -50.089  14.402  22.145  0.00  0.00     0.108 A 
ENDBRANCH   1  16
TORSDOF 4
ENDMDL
MODEL 2
REMARK VINA RESULT:      -7.6      2.038      3.114
REMARK  4 active torsions:
REMARK  status: ('A' for Active; 'I' for Inactive)
REMARK    1  A    between atoms: C_2  and  N_1 
REMARK       I    between atoms: C_4  and  N_1 
REMARK    2  A    between atoms: C_3  and  C_2 
REMARK    3  A    between atoms: N_5  and  C_2 
REMARK    4  A    between atoms: C_6  and  C_4 
ROOT
ATOM      1  C   UNL d   1     -48.344  12.338  22.361  0.00  0.00     0.170 C 
ENDROOT
BRANCH   1   2
ATOM      2  N   UNL d   1     -48.731  11.680  22.716  0.00  0.00    -0.191 NA
ATOM      3  C   UNL d   1     -49.501  11.773  23.063  0.00  0.00     0.280 C 
ATOM      4  O   UNL d   1     -49.913  11.101  23.433  0.00  0.00    -0.265 OA
BRANCH   3   5
ATOM      5  C   UNL d   1     -49.859  12.525  23.043  0.00  0.00     0.058 A 
ATOM      6  C   UNL d   1     -50.300  12.784  22.383  0.00  0.00     0.007 A 
ATOM      7  C   UNL d   1     -50.648  13.535  22.384  0.00  0.00     0.030 A 
ATOM      8  C   UNL d   1     -50.569  14.042  23.031  0.00  0.00     0.140 A 
ATOM      9  C   UNL d   1     -50.128  13.783  23.691  0.00  0.00     0.030 A 
ATOM     10  F   UNL d   1     -50.878  14.726  23.048  0.00  0.00    -0.204 F 
ATOM     11  C   UNL d   1     -49.767  13.009  23.697  0.00  0.00     0.007 A 
ENDBRANCH   3   5
ENDBRANCH   1   2
BRANCH   1  12
ATOM     12  C   UNL d   1     -48.482  12.694  21.673  0.00  0.00     0.249 C 
ATOM     13 CL   UNL d   1     -48.637  12.970  20.725  0.00  0.00    -0.075 Cl
ATOM     14 CL   UNL d   1     -48.467  12.154  21.022  0.00  0.00    -0.075 Cl
ATOM     15 CL   UNL d   1     -48.562  13.245  21.777  0.00  0.00    -0.075 Cl
ENDBRANCH   1  12
BRANCH   1  16
ATOM     16  N   UNL d   1     -47.731  12.689  22.752  0.00  0.00    -0.286 N 
ATOM     17  C   UNL d   1     -47.550  13.466  22.639  0.00  0.00     0.108 A 
ATOM     18  C   UNL d   1     -46.930  13.814  23.038  0.00  0.00     0.142 A 
ATOM     19  O   UNL d   1     -46.493  13.368  23.553  0.00  0.00    -0.300 OA
ATOM     20  C   UNL d   1     -46.668  12.601  23.668  0.00  0.00     0.142 A 
ATOM     21  C   UNL d   1     -47.288  12.265  23.266  0.00  0.00     0.108 A 
ENDBRANCH   1  16
TORSDOF 4
ENDMDL
MODEL 3
REMARK VINA RESULT:      -7.2      1.825      3.054
REMARK  4 active torsions:
REMARK  status: ('A' for Active; 'I' for Inactive)
REMARK    1  A    between atoms: C_2  and  N_1 
REMARK       I    between atoms: C_4  and  N_1 
REMARK    2  A    between atoms: C_3  and  C_2 
REMARK    3  A    between atoms: N_5  and  C_2 
REMARK    4  A    between atoms: C_6  and  C_4 
ROOT
ATOM      1  C   UNL d   1     -48.205  13.425  22.021  0.00  0.00     0.170 C 
ENDROOT
BRANCH   1   2
ATOM      2  N   UNL d   1     -48.538  14.198  21.987  0.00  0.00    -0.191 NA
ATOM      3  C   UNL d   1     -49.330  14.334  22.262  0.00  0.00     0.280 C 
ATOM      4  O   UNL d   1     -49.687  15.129  22.231  0.00  0.00    -0.265 OA
BRANCH   3   5
ATOM      5  C   UNL d   1     -49.764  13.691  22.563  0.00  0.00     0.058 A 
ATOM      6  C   UNL d   1     -50.199  13.183  22.065  0.00  0.00     0.007 A 
ATOM      7  C   UNL d   1     -50.624  12.549  22.386  0.00  0.00     0.030 A 
ATOM      8  C   UNL d   1     -50.628  12.404  23.199  0.00  0.00     0.140 A 
ATOM      9  C   UNL d   1     -50.192  12.913  23.697  0.00  0.00     0.030 A 
ATOM     10  F   UNL d   1     -51.008  11.834  23.505  0.00  0.00    -0.204 F 
ATOM     11  C   UNL d   1     -49.752  13.568  23.373  0.00  0.00     0.007 A 
ENDBRANCH   3   5
ENDBRANCH   1   2
BRANCH   1  12
ATOM     12  C   UNL d   1     -48.355  12.790  21.581  0.00  0.00     0.249 C 
ATOM     13 CL   UNL d   1     -48.508  12.102  20.874  0.00  0.00    -0.075 Cl
ATOM     14 CL   UNL d   1     -48.278  12.948  20.753  0.00  0.00    -0.075 Cl
ATOM     15 CL   UNL d   1     -48.482  12.365  21.931  0.00  0.00    -0.075 Cl
ENDBRANCH   1  12
BRANCH   1  16
ATOM     16  N   UNL d   1     -47.641  13.267  22.578  0.00  0.00    -0.286 N 
ATOM     17  C   UNL d   1     -47.541  12.525  22.875  0.00  0.00     0.108 A 
ATOM     18  C   UNL d   1     -46.970  12.373  23.437  0.00  0.00     0.142 A 
ATOM     19  O   UNL d   1     -46.499  12.979  23.695  0.00  0.00    -0.300 OA
ATOM     20  C   UNL d   1     -46.594  13.713  23.404  0.00  0.00     0.142 A 
ATOM     21  C   UNL d   1     -47.166  13.853  22.845  0.00  0.00     0.108 A 
ENDBRANCH   1  16
TORSDOF 4
ENDMDL
MODEL 4
REMARK VINA RESULT:      -7.1      1.542      2.084
REMARK  4 active torsions:
REMARK  status: ('A' for Active; 'I' for Inactive)
REMARK    1  A    between atoms: C_2  and  N_1 
REMARK       I    between atoms: C_4  and  N_1 
REMARK    2  A    between atoms: C_3  and  C_2 
REMARK    3  A    between atoms: N_5  and  C_2 
REMARK    4  A    between atoms: C_6  and  C_4 
ROOT
ATOM      1  C   UNL d   1     -48.947  13.413  22.162  0.00  0.00     0.170 C 
ENDROOT
BRANCH   1   2
ATOM      2  N   UNL d   1     -48.756  14.218  22.320  0.00  0.00    -0.191 NA
ATOM      3  C   UNL d   1     -47.995  14.423  22.635  0.00  0.00     0.280 C 
ATOM      4  O   UNL d   1     -47.784  15.252  22.803  0.00  0.00    -0.265 OA
BRANCH   3   5
ATOM      5  C   UNL d   1     -47.447  13.814  22.782  0.00  0.00     0.058 A 
ATOM      6  C   UNL d   1     -46.925  13.540  22.191  0.00  0.00     0.007 A 
ATOM      7  C   UNL d   1     -46.388  12.933  22.358  0.00  0.00     0.030 A 
ATOM      8  C   UNL d   1     -46.355  12.585  23.107  0.00  0.00     0.140 A 
ATOM      9  C   UNL d   1     -46.876  12.859  23.698  0.00  0.00     0.030 A 
ATOM     10  F   UNL d   1     -45.874  12.034  23.275  0.00  0.00    -0.204 F 
ATOM     11  C   UNL d   1     -47.433  13.485  23.532  0.00  0.00     0.007 A 
ENDBRANCH   3   5
ENDBRANCH   1   2
BRANCH   1  12
ATOM     12  C   UNL d   1     -48.716  12.947  21.571  0.00  0.00     0.249 C 
ATOM     13 CL   UNL d   1     -48.491  12.496  20.709  0.00  0.00    -0.075 Cl
ATOM     14 CL   UNL d   1     -48.873  13.287  20.812  0.00  0.00    -0.075 Cl
ATOM     15 CL   UNL d   1     -48.494  12.479  21.799  0.00  0.00    -0.075 Cl
ENDBRANCH   1  12
BRANCH   1  16
ATOM     16  N   UNL d   1     -49.438  13.021  22.668  0.00  0.00    -0.286 N 
ATOM     17  C   UNL d   1     -49.450  12.217  22.703  0.00  0.00     0.108 A 
ATOM     18  C   UNL d   1     -49.949  11.827  23.217  0.00  0.00     0.142 A 
ATOM     19  O   UNL d   1     -50.438  12.259  23.697  0.00  0.00    -0.300 OA
ATOM     20  C   UNL d   1     -50.429  13.054  23.665  0.00  0.00     0.142 A 
ATOM     21  C   UNL d   1     -49.928  13.432  23.150  0.00  0.00     0.108 A 
ENDBRANCH   1  16
TORSDOF 4
ENDMDL
MODEL 5
REMARK VINA RESULT:      -7.1      1.999      3.004
REMARK  4 active torsions:
REMARK  status: ('A' for Active; 'I' for Inactive)
REMARK    1  A    between atoms: C_2  and  N_1 
REMARK       I    between atoms: C_4  and  N_1 
REMARK    2  A    between atoms: C_3  and  C_2 
REMARK    3  A    between atoms: N_5  and  C_2 
REMARK    4  A    between atoms: C_6  and  C_4 
ROOT
ATOM      1  C   UNL d   1     -48.288  12.838  22.223  0.00  0.00     0.170 C 
ENDROOT
BRANCH   1   2
ATOM      2  N   UNL d   1     -47.566  13.220  22.430  0.00  0.00    -0.191 NA
ATOM      3  C   UNL d   1     -47.574  14.016  22.727  0.00  0.00     0.280 C 
ATOM      4  O   UNL d   1     -46.836  14.423  22.945  0.00  0.00    -0.265 OA
BRANCH   3   5
ATOM      5  C   UNL d   1     -48.306  14.405  22.807  0.00  0.00     0.058 A 
ATOM      6  C   UNL d   1     -48.655  14.820  22.172  0.00  0.00     0.007 A 
ATOM      7  C   UNL d   1     -49.384  15.199  22.274  0.00  0.00     0.030 A 
ATOM      8  C   UNL d   1     -49.780  15.177  22.997  0.00  0.00     0.140 A 
ATOM      9  C   UNL d   1     -49.432  14.762  23.632  0.00  0.00     0.030 A 
ATOM     10  F   UNL d   1     -50.442  15.516  23.106  0.00  0.00    -0.204 F 
ATOM     11  C   UNL d   1     -48.680  14.368  23.534  0.00  0.00     0.007 A 
ENDBRANCH   3   5
ENDBRANCH   1   2
BRANCH   1  12
ATOM     12  C   UNL d   1     -48.757  12.949  21.601  0.00  0.00     0.249 C 
ATOM     13 CL   UNL d   1     -49.203  13.024  20.711  0.00  0.00    -0.075 Cl
ATOM     14 CL   UNL d   1     -48.382  12.738  20.872  0.00  0.00    -0.075 Cl
ATOM     15 CL   UNL d   1     -49.251  13.150  21.792  0.00  0.00    -0.075 Cl
ENDBRANCH   1  12
BRANCH   1  16
ATOM     16  N   UNL d   1     -48.579  12.263  22.709  0.00  0.00    -0.286 N 
ATOM     17  C   UNL d   1     -49.361  12.072  22.711  0.00  0.00     0.108 A 
ATOM     18  C   UNL d   1     -49.649  11.490  23.205  0.00  0.00     0.142 A 
ATOM     19  O   UNL d   1     -49.136  11.102  23.698  0.00  0.00    -0.300 OA
ATOM     20  C   UNL d   1     -48.363  11.288  23.698  0.00  0.00     0.142 A 
ATOM     21  C   UNL d   1     -48.087  11.869  23.202  0.00  0.00     0.108 A 
ENDBRANCH   1  16
TORSDOF 4
ENDMDL
MODEL 6
REMARK VINA RESULT:      -7.0      1.417      1.749
REMARK  4 active torsions:
REMARK  status: ('A' for Active; 'I' for Inactive)
REMARK    1  A    between atoms: C_2  and  N_1 
REMARK       I    between atoms: C_4  and  N_1 
REMARK    2  A    between atoms: C_3  and  C_2 
REMARK    3  A    between atoms: N_5  and  C_2 
REMARK    4  A    between atoms: C_6  and  C_4 
ROOT
ATOM      1  C   UNL d   1     -49.077  12.667  22.383  0.00  0.00     0.170 C 
ENDROOT
BRANCH   1   2
ATOM      2  N   UNL d   1     -48.941  11.968  22.832  0.00  0.00    -0.191 NA
ATOM      3  C   UNL d   1     -48.172  11.811  23.157  0.00  0.00     0.280 C 
ATOM      4  O   UNL d   1     -48.018  11.092  23.623  0.00  0.00    -0.265 OA
BRANCH   3   5
ATOM      5  C   UNL d   1     -47.562  12.362  23.021  0.00  0.00     0.058 A 
ATOM      6  C   UNL d   1     -47.139  12.381  22.301  0.00  0.00     0.007 A 
ATOM      7  C   UNL d   1     -46.536  12.937  22.188  0.00  0.00     0.030 A 
ATOM      8  C   UNL d   1     -46.340  13.481  22.776  0.00  0.00     0.140 A 
ATOM      9  C   UNL d   1     -46.763  13.462  23.496  0.00  0.00     0.030 A 
ATOM     10  F   UNL d   1     -45.796  13.991  22.689  0.00  0.00    -0.204 F 
ATOM     11  C   UNL d   1     -47.386  12.892  23.620  0.00  0.00     0.007 A 
ENDBRANCH   3   5
ENDBRANCH   1   2
BRANCH   1  12
ATOM     12  C   UNL d   1     -48.882  12.835  21.639  0.00  0.00     0.249 C 
ATOM     13 CL   UNL d   1     -48.738  12.891  20.652  0.00  0.00    -0.075 Cl
ATOM     14 CL   UNL d   1     -49.203  12.278  21.088  0.00  0.00    -0.075 Cl
ATOM     15 CL   UNL d   1     -48.564  13.303  21.646  0.00  0.00    -0.075 Cl
ENDBRANCH   1  12
BRANCH   1  16
ATOM     16  N   UNL d   1     -49.463  13.285  22.730  0.00  0.00    -0.286 N 
ATOM     17  C   UNL d   1     -49.354  14.043  22.477  0.00  0.00     0.108 A 
ATOM     18  C   UNL d   1     -49.748  14.663  22.833  0.00  0.00     0.142 A 
ATOM     19  O   UNL d   1     -50.253  14.510  23.446  0.00  0.00    -0.300 OA
ATOM     20  C   UNL d   1     -50.363  13.763  23.698  0.00  0.00     0.142 A 
ATOM     21  C   UNL d   1     -49.966  13.154  23.337  0.00  0.00     0.108 A 
ENDBRANCH   1  16
TORSDOF 4
ENDMDL
MODEL 7
REMARK VINA RESULT:      -5.8      1.869      2.362
REMARK  4 active torsions:
REMARK  status: ('A' for Active; 'I' for Inactive)
REMARK    1  A    between atoms: C_2  and  N_1 
REMARK       I    between atoms: C_4  and  N_1 
REMARK    2  A    between atoms: C_3  and  C_2 
REMARK    3  A    between atoms: N_5  and  C_2 
REMARK    4  A    between atoms: C_6  and  C_4 
ROOT
ATOM      1  C   UNL d   1     -48.539  13.797  23.319  0.00  0.00     0.170 C 
ENDROOT
BRANCH   1   2
ATOM      2  N   UNL d   1     -48.856  13.115  23.698  0.00  0.00    -0.191 NA
ATOM      3  C   UNL d   1     -49.046  12.423  23.244  0.00  0.00     0.280 C 
ATOM      4  O   UNL d   1     -49.374  11.710  23.623  0.00  0.00    -0.265 OA
BRANCH   3   5
ATOM      5  C   UNL d   1     -48.912  12.436  22.422  0.00  0.00     0.058 A 
ATOM      6  C   UNL d   1     -49.515  12.639  21.882  0.00  0.00     0.007 A 
ATOM      7  C   UNL d   1     -49.360  12.646  21.068  0.00  0.00     0.030 A 
ATOM      8  C   UNL d   1     -48.613  12.454  20.774  0.00  0.00     0.140 A 
ATOM      9  C   UNL d   1     -48.010  12.251  21.314  0.00  0.00     0.030 A 
ATOM     10  F   UNL d   1     -48.456  12.455  20.040  0.00  0.00    -0.204 F 
ATOM     11  C   UNL d   1     -48.162  12.242  22.154  0.00  0.00     0.007 A 
ENDBRANCH   3   5
ENDBRANCH   1   2
BRANCH   1  12
ATOM     12  C   UNL d   1     -47.812  13.932  23.049  0.00  0.00     0.249 C 
ATOM     13 CL   UNL d   1     -46.834  14.032  22.876  0.00  0.00    -0.075 Cl
ATOM     14 CL   UNL d   1     -47.215  13.707  23.605  0.00  0.00    -0.075 Cl
ATOM     15 CL   UNL d   1     -47.860  14.156  22.531  0.00  0.00    -0.075 Cl
ENDBRANCH   1  12
BRANCH   1  16
ATOM     16  N   UNL d   1     -49.020  14.433  23.193  0.00  0.00    -0.286 N 
ATOM     17  C   UNL d   1     -48.817  15.017  22.677  0.00  0.00     0.108 A 
ATOM     18  C   UNL d   1     -49.308  15.657  22.554  0.00  0.00     0.142 A 
ATOM     19  O   UNL d   1     -50.007  15.701  22.959  0.00  0.00    -0.300 OA
ATOM     20  C   UNL d   1     -50.212  15.126  23.469  0.00  0.00     0.142 A 
ATOM     21  C   UNL d   1     -49.716  14.493  23.584  0.00  0.00     0.108 A 
ENDBRANCH   1  16
TORSDOF 4
ENDMDL
MODEL 8
REMARK VINA RESULT:      -5.7      2.145      3.126
REMARK  4 active torsions:
REMARK  status: ('A' for Active; 'I' for Inactive)
REMARK    1  A    between atoms: C_2  and  N_1 
REMARK       I    between atoms: C_4  and  N_1 
REMARK    2  A    between atoms: C_3  and  C_2 
REMARK    3  A    between atoms: N_5  and  C_2 
REMARK    4  A    between atoms: C_6  and  C_4 
ROOT
ATOM      1  C   UNL d   1     -48.148  13.477  23.299  0.00  0.00     0.170 C 
ENDROOT
BRANCH   1   2
ATOM      2  N   UNL d   1     -48.472  12.810  23.698  0.00  0.00    -0.191 NA
ATOM      3  C   UNL d   1     -48.992  12.278  23.288  0.00  0.00     0.280 C 
ATOM      4  O   UNL d   1     -49.334  11.584  23.689  0.00  0.00    -0.265 OA
BRANCH   3   5
ATOM      5  C   UNL d   1     -49.170  12.430  22.490  0.00  0.00     0.058 A 
ATOM      6  C   UNL d   1     -48.722  12.099  21.868  0.00  0.00     0.007 A 
ATOM      7  C   UNL d   1     -48.917  12.265  21.081  0.00  0.00     0.030 A 
ATOM      8  C   UNL d   1     -49.553  12.755  20.891  0.00  0.00     0.140 A 
ATOM      9  C   UNL d   1     -50.002  13.086  21.513  0.00  0.00     0.030 A 
ATOM     10  F   UNL d   1     -49.743  12.915  20.183  0.00  0.00    -0.204 F 
ATOM     11  C   UNL d   1     -49.806  12.920  22.327  0.00  0.00     0.007 A 
ENDBRANCH   3   5
ENDBRANCH   1   2
BRANCH   1  12
ATOM     12  C   UNL d   1     -48.487  14.156  23.093  0.00  0.00     0.249 C 
ATOM     13 CL   UNL d   1     -49.000  15.008  23.005  0.00  0.00    -0.075 Cl
ATOM     14 CL   UNL d   1     -48.996  14.458  23.698  0.00  0.00    -0.075 Cl
ATOM     15 CL   UNL d   1     -48.307  14.288  22.572  0.00  0.00    -0.075 Cl
ENDBRANCH   1  12
BRANCH   1  16
ATOM     16  N   UNL d   1     -47.372  13.458  23.074  0.00  0.00    -0.286 N 
ATOM     17  C   UNL d   1     -47.047  14.054  22.640  0.00  0.00     0.108 A 
ATOM     18  C   UNL d   1     -46.263  14.029  22.416  0.00  0.00     0.142 A 
ATOM     19  O   UNL d   1     -45.810  13.395  22.637  0.00  0.00    -0.300 OA
ATOM     20  C   UNL d   1     -46.127  12.806  23.066  0.00  0.00     0.142 A 
ATOM     21  C   UNL d   1     -46.909  12.840  23.283  0.00  0.00     0.108 A 
ENDBRANCH   1  16
TORSDOF 4
ENDMDL
MODEL 9
REMARK VINA RESULT:      -5.5      9.484     10.507
REMARK  4 active torsions:
REMARK  status: ('A' for Active; 'I' for Inactive)
REMARK    1  A    between atoms: C_2  and  N_1 
REMARK       I    between atoms: C_4  and  N_1 
REMARK    2  A    between atoms: C_3  and  C_2 
REMARK    3  A    between atoms: N_5  and  C_2 
REMARK    4  A    between atoms: C_6  and  C_4 
ROOT
ATOM      1  C   UNL d   1     -39.995  15.356  18.542  0.00  0.00     0.170 C 
ENDROOT
BRANCH   1   2
ATOM      2  N   UNL d   1     -39.328  15.819  18.321  0.00  0.00    -0.191 NA
ATOM      3  C   UNL d   1     -38.637  15.445  17.996  0.00  0.00     0.280 C 
ATOM      4  O   UNL d   1     -37.940  15.911  17.763  0.00  0.00    -0.265 OA
BRANCH   3   5
ATOM      5  C   UNL d   1     -38.638  14.617  17.904  0.00  0.00     0.058 A 
ATOM      6  C   UNL d   1     -38.380  14.108  18.513  0.00  0.00     0.007 A 
ATOM      7  C   UNL d   1     -38.389  13.287  18.400  0.00  0.00     0.030 A 
ATOM      8  C   UNL d   1     -38.650  12.956  17.691  0.00  0.00     0.140 A 
ATOM      9  C   UNL d   1     -38.908  13.465  17.083  0.00  0.00     0.030 A 
ATOM     10  F   UNL d   1     -38.664  12.214  17.573  0.00  0.00    -0.204 F 
ATOM     11  C   UNL d   1     -38.902  14.312  17.192  0.00  0.00     0.007 A 
ENDBRANCH   3   5
ENDBRANCH   1   2
BRANCH   1  12
ATOM     12  C   UNL d   1     -40.550  15.024  18.094  0.00  0.00     0.249 C 
ATOM     13 CL   UNL d   1     -41.277  14.779  17.455  0.00  0.00    -0.075 Cl
ATOM     14 CL   UNL d   1     -40.921  15.580  17.576  0.00  0.00    -0.075 Cl
ATOM     15 CL   UNL d   1     -40.572  14.474  18.228  0.00  0.00    -0.075 Cl
ENDBRANCH   1  12
BRANCH   1  16
ATOM     16  N   UNL d   1     -40.123  15.206  19.325  0.00  0.00    -0.286 N 
ATOM     17  C   UNL d   1     -40.589  14.593  19.564  0.00  0.00     0.108 A 
ATOM     18  C   UNL d   1     -40.715  14.447  20.357  0.00  0.00     0.142 A 
ATOM     19  O   UNL d   1     -40.364  14.926  20.907  0.00  0.00    -0.300 OA
ATOM     20  C   UNL d   1     -39.904  15.532  20.675  0.00  0.00     0.142 A 
ATOM     21  C   UNL d   1     -39.786  15.669  19.883  0.00  0.00     0.108 A 
ENDBRANCH   1  16
TORSDOF 4
ENDMDL
