MODEL 1
REMARK VINA RESULT:      -8.0      0.000      0.000
REMARK  3 active torsions:
REMARK  status: ('A' for Active; 'I' for Inactive)
REMARK    1  A    between atoms: C_8  and  C_4 
REMARK    2  A    between atoms: N_5  and  C_7 
REMARK    3  A    between atoms: C_12  and  C_6 
ROOT
ATOM      1  O   UNL d   1     -48.338  13.002  22.873  0.00  0.00    -0.268 OA
ATOM      2  N   UNL d   1     -48.190  13.074  21.548  0.00  0.00    -0.121 NA
ATOM      3  N   UNL d   1     -48.944  12.777  21.700  0.00  0.00    -0.121 NA
ATOM      4  C   UNL d   1     -47.816  13.212  22.263  0.00  0.00     0.204 A 
ATOM      5  C   UNL d   1     -49.041  12.730  22.518  0.00  0.00     0.204 A 
ENDROOT
BRANCH   4   6
ATOM      6  C   UNL d   1     -47.051  13.510  22.372  0.00  0.00     0.045 A 
ATOM      7  C   UNL d   1     -46.398  13.014  22.284  0.00  0.00     0.027 A 
ATOM      8  C   UNL d   1     -45.641  13.313  22.393  0.00  0.00     0.127 A 
ATOM      9  C   UNL d   1     -45.533  14.109  22.590  0.00  0.00     0.024 A 
ATOM     10  C   UNL d   1     -46.182  14.605  22.678  0.00  0.00     0.002 A 
ATOM     11  C   UNL d   1     -46.943  14.306  22.569  0.00  0.00     0.004 A 
BRANCH   8  12
ATOM     12  N   UNL d   1     -44.985  12.808  22.303  0.00  0.00    -0.114 N 
ATOM     13  O   UNL d   1     -44.345  13.043  21.825  0.00  0.00    -0.532 OA
ATOM     14  O   UNL d   1     -44.966  12.076  22.685  0.00  0.00    -0.532 OA
ENDBRANCH   8  12
ENDBRANCH   4   6
BRANCH   5  15
ATOM     15  C   UNL d   1     -49.712  12.464  22.910  0.00  0.00     0.043 A 
ATOM     16  C   UNL d   1     -49.712  11.724  23.271  0.00  0.00     0.004 A 
ATOM     17  C   UNL d   1     -50.392  11.458  23.667  0.00  0.00     0.000 A 
ATOM     18  C   UNL d   1     -51.063  11.935  23.698  0.00  0.00     0.000 A 
ATOM     19  C   UNL d   1     -51.055  12.678  23.332  0.00  0.00     0.000 A 
ATOM     20  C   UNL d   1     -50.384  12.949  22.938  0.00  0.00     0.004 A 
ENDBRANCH   5  15
TORSDOF 3
ENDMDL
MODEL 2
REMARK VINA RESULT:      -7.6      2.145      4.241
REMARK  3 active torsions:
REMARK  status: ('A' for Active; 'I' for Inactive)
REMARK    1  A    between atoms: C_8  and  C_4 
REMARK    2  A    between atoms: N_5  and  C_7 
REMARK    3  A    between atoms: C_12  and  C_6 
ROOT
ATOM      1  O   UNL d   1     -48.582  12.754  22.899  0.00  0.00    -0.268 OA
ATOM      2  N   UNL d   1     -49.566  12.072  23.490  0.00  0.00    -0.121 NA
ATOM      3  N   UNL d   1     -48.853  11.713  23.698  0.00  0.00    -0.121 NA
ATOM      4  C   UNL d   1     -49.405  12.708  23.002  0.00  0.00     0.204 A 
ATOM      5  C   UNL d   1     -48.242  12.131  23.335  0.00  0.00     0.204 A 
ENDROOT
BRANCH   4   6
ATOM      6  C   UNL d   1     -49.956  13.225  22.663  0.00  0.00     0.045 A 
ATOM      7  C   UNL d   1     -49.954  14.024  22.868  0.00  0.00     0.027 A 
ATOM      8  C   UNL d   1     -50.503  14.533  22.530  0.00  0.00     0.127 A 
ATOM      9  C   UNL d   1     -51.056  14.247  21.986  0.00  0.00     0.024 A 
ATOM     10  C   UNL d   1     -51.059  13.451  21.780  0.00  0.00     0.002 A 
ATOM     11  C   UNL d   1     -50.509  12.938  22.119  0.00  0.00     0.004 A 
BRANCH   8  12
ATOM     12  N   UNL d   1     -50.497  15.339  22.741  0.00  0.00    -0.114 N 
ATOM     13  O   UNL d   1     -51.064  15.630  23.277  0.00  0.00    -0.532 OA
ATOM     14  O   UNL d   1     -49.932  15.850  22.422  0.00  0.00    -0.532 OA
ENDBRANCH   8  12
ENDBRANCH   4   6
BRANCH   5  15
ATOM     15  C   UNL d   1     -47.439  11.962  23.394  0.00  0.00     0.043 A 
ATOM     16  C   UNL d   1     -47.191  11.199  23.574  0.00  0.00     0.004 A 
ATOM     17  C   UNL d   1     -46.380  11.031  23.633  0.00  0.00     0.000 A 
ATOM     18  C   UNL d   1     -45.826  11.630  23.511  0.00  0.00     0.000 A 
ATOM     19  C   UNL d   1     -46.085  12.396  23.330  0.00  0.00     0.000 A 
ATOM     20  C   UNL d   1     -46.888  12.569  23.270  0.00  0.00     0.004 A 
ENDBRANCH   5  15
TORSDOF 3
ENDMDL
MODEL 3
REMARK VINA RESULT:      -7.4      2.112      4.137
REMARK  3 active torsions:
REMARK  status: ('A' for Active; 'I' for Inactive)
REMARK    1  A    between atoms: C_8  and  C_4 
REMARK    2  A    between atoms: N_5  and  C_7 
REMARK    3  A    between atoms: C_12  and  C_6 
ROOT
ATOM      1  O   UNL d   1     -47.917  13.400  23.015  0.00  0.00    -0.268 OA
ATOM      2  N   UNL d   1     -47.461  14.652  22.918  0.00  0.00    -0.121 NA
ATOM      3  N   UNL d   1     -46.809  14.154  23.004  0.00  0.00    -0.121 NA
ATOM      4  C   UNL d   1     -48.140  14.194  22.924  0.00  0.00     0.204 A 
ATOM      5  C   UNL d   1     -47.086  13.379  23.064  0.00  0.00     0.204 A 
ENDROOT
BRANCH   4   6
ATOM      6  C   UNL d   1     -48.920  14.465  22.853  0.00  0.00     0.045 A 
ATOM      7  C   UNL d   1     -49.413  14.154  22.269  0.00  0.00     0.027 A 
ATOM      8  C   UNL d   1     -50.186  14.425  22.202  0.00  0.00     0.127 A 
ATOM      9  C   UNL d   1     -50.469  15.007  22.718  0.00  0.00     0.024 A 
ATOM     10  C   UNL d   1     -49.979  15.317  23.299  0.00  0.00     0.002 A 
ATOM     11  C   UNL d   1     -49.203  15.046  23.369  0.00  0.00     0.004 A 
BRANCH   8  12
ATOM     12  N   UNL d   1     -50.679  14.108  21.611  0.00  0.00    -0.114 N 
ATOM     13  O   UNL d   1     -50.785  13.284  21.559  0.00  0.00    -0.532 OA
ATOM     14  O   UNL d   1     -51.064  14.606  21.076  0.00  0.00    -0.532 OA
ENDBRANCH   8  12
ENDBRANCH   4   6
BRANCH   5  15
ATOM     15  C   UNL d   1     -46.622  12.707  23.156  0.00  0.00     0.043 A 
ATOM     16  C   UNL d   1     -45.880  12.666  22.803  0.00  0.00     0.004 A 
ATOM     17  C   UNL d   1     -45.414  11.985  22.898  0.00  0.00     0.000 A 
ATOM     18  C   UNL d   1     -45.695  11.353  23.346  0.00  0.00     0.000 A 
ATOM     19  C   UNL d   1     -46.444  11.402  23.698  0.00  0.00     0.000 A 
ATOM     20  C   UNL d   1     -46.911  12.074  23.608  0.00  0.00     0.004 A 
ENDBRANCH   5  15
TORSDOF 3
ENDMDL
MODEL 4
REMARK VINA RESULT:      -7.1      2.073      4.534
REMARK  3 active torsions:
REMARK  status: ('A' for Active; 'I' for Inactive)
REMARK    1  A    between atoms: C_8  and  C_4 
REMARK    2  A    between atoms: N_5  and  C_7 
REMARK    3  A    between atoms: C_12  and  C_6 
ROOT
ATOM      1  O   UNL d   1     -46.760  11.411  23.165  0.00  0.00    -0.268 OA
ATOM      2  N   UNL d   1     -46.863  12.691  23.531  0.00  0.00    -0.121 NA
ATOM      3  N   UNL d   1     -46.070  12.475  23.597  0.00  0.00    -0.121 NA
ATOM      4  C   UNL d   1     -47.288  12.043  23.267  0.00  0.00     0.204 A 
ATOM      5  C   UNL d   1     -46.001  11.685  23.372  0.00  0.00     0.204 A 
ENDROOT
BRANCH   4   6
ATOM      6  C   UNL d   1     -48.103  12.011  23.124  0.00  0.00     0.045 A 
ATOM      7  C   UNL d   1     -48.413  12.332  22.430  0.00  0.00     0.027 A 
ATOM      8  C   UNL d   1     -49.222  12.298  22.291  0.00  0.00     0.127 A 
ATOM      9  C   UNL d   1     -49.725  11.943  22.844  0.00  0.00     0.024 A 
ATOM     10  C   UNL d   1     -49.417  11.623  23.535  0.00  0.00     0.002 A 
ATOM     11  C   UNL d   1     -48.605  11.656  23.676  0.00  0.00     0.004 A 
BRANCH   8  12
ATOM     12  N   UNL d   1     -49.530  12.624  21.589  0.00  0.00    -0.114 N 
ATOM     13  O   UNL d   1     -49.013  12.845  20.974  0.00  0.00    -0.532 OA
ATOM     14  O   UNL d   1     -50.344  12.729  21.499  0.00  0.00    -0.532 OA
ENDBRANCH   8  12
ENDBRANCH   4   6
BRANCH   5  15
ATOM     15  C   UNL d   1     -45.306  11.246  23.355  0.00  0.00     0.043 A 
ATOM     16  C   UNL d   1     -44.630  11.557  23.002  0.00  0.00     0.004 A 
ATOM     17  C   UNL d   1     -43.930  11.111  22.987  0.00  0.00     0.000 A 
ATOM     18  C   UNL d   1     -43.913  10.360  23.325  0.00  0.00     0.000 A 
ATOM     19  C   UNL d   1     -44.597  10.054  23.678  0.00  0.00     0.000 A 
ATOM     20  C   UNL d   1     -45.295  10.491  23.697  0.00  0.00     0.004 A 
ENDBRANCH   5  15
TORSDOF 3
ENDMDL
MODEL 5
REMARK VINA RESULT:      -7.0      8.135      9.738
REMARK  3 active torsions:
REMARK  status: ('A' for Active; 'I' for Inactive)
REMARK    1  A    between atoms: C_8  and  C_4 
REMARK    2  A    between atoms: N_5  and  C_7 
REMARK    3  A    between atoms: C_12  and  C_6 
ROOT
ATOM      1  O   UNL d   1     -39.592  14.526  18.482  0.00  0.00    -0.268 OA
ATOM      2  N   UNL d   1     -40.840  14.053  18.523  0.00  0.00    -0.121 NA
ATOM      3  N   UNL d   1     -40.493  13.784  17.824  0.00  0.00    -0.121 NA
ATOM      4  C   UNL d   1     -40.292  14.506  18.928  0.00  0.00     0.204 A 
ATOM      5  C   UNL d   1     -39.721  14.075  17.795  0.00  0.00     0.204 A 
ENDROOT
BRANCH   4   6
ATOM      6  C   UNL d   1     -40.404  14.885  19.656  0.00  0.00     0.045 A 
ATOM      7  C   UNL d   1     -40.019  14.607  20.330  0.00  0.00     0.027 A 
ATOM      8  C   UNL d   1     -40.133  14.985  21.050  0.00  0.00     0.127 A 
ATOM      9  C   UNL d   1     -40.632  15.643  21.100  0.00  0.00     0.024 A 
ATOM     10  C   UNL d   1     -41.016  15.922  20.430  0.00  0.00     0.002 A 
ATOM     11  C   UNL d   1     -40.903  15.543  19.706  0.00  0.00     0.004 A 
BRANCH   8  12
ATOM     12  N   UNL d   1     -39.742  14.699  21.728  0.00  0.00    -0.114 N 
ATOM     13  O   UNL d   1     -39.334  15.230  22.224  0.00  0.00    -0.532 OA
ATOM     14  O   UNL d   1     -39.756  13.894  21.911  0.00  0.00    -0.532 OA
ENDBRANCH   8  12
ENDBRANCH   4   6
BRANCH   5  15
ATOM     15  C   UNL d   1     -39.178  13.941  17.192  0.00  0.00     0.043 A 
ATOM     16  C   UNL d   1     -39.110  14.477  16.572  0.00  0.00     0.004 A 
ATOM     17  C   UNL d   1     -38.560  14.338  15.965  0.00  0.00     0.000 A 
ATOM     18  C   UNL d   1     -38.085  13.666  15.986  0.00  0.00     0.000 A 
ATOM     19  C   UNL d   1     -38.159  13.131  16.615  0.00  0.00     0.000 A 
ATOM     20  C   UNL d   1     -38.702  13.262  17.220  0.00  0.00     0.004 A 
ENDBRANCH   5  15
TORSDOF 3
ENDMDL
MODEL 6
REMARK VINA RESULT:      -6.7      8.222      9.912
REMARK  3 active torsions:
REMARK  status: ('A' for Active; 'I' for Inactive)
REMARK    1  A    between atoms: C_8  and  C_4 
REMARK    2  A    between atoms: N_5  and  C_7 
REMARK    3  A    between atoms: C_12  and  C_6 
ROOT
ATOM      1  O   UNL d   1     -39.584  14.454  18.624  0.00  0.00    -0.268 OA
ATOM      2  N   UNL d   1     -40.523  14.014  17.781  0.00  0.00    -0.121 NA
ATOM      3  N   UNL d   1     -40.905  14.319  18.445  0.00  0.00    -0.121 NA
ATOM      4  C   UNL d   1     -39.715  14.095  17.886  0.00  0.00     0.204 A 
ATOM      5  C   UNL d   1     -40.330  14.592  18.969  0.00  0.00     0.204 A 
ENDROOT
BRANCH   4   6
ATOM      6  C   UNL d   1     -39.121  13.862  17.358  0.00  0.00     0.045 A 
ATOM      7  C   UNL d   1     -38.909  14.356  16.733  0.00  0.00     0.027 A 
ATOM      8  C   UNL d   1     -38.319  14.123  16.210  0.00  0.00     0.127 A 
ATOM      9  C   UNL d   1     -37.940  13.394  16.310  0.00  0.00     0.024 A 
ATOM     10  C   UNL d   1     -38.151  12.901  16.932  0.00  0.00     0.002 A 
ATOM     11  C   UNL d   1     -38.742  13.134  17.458  0.00  0.00     0.004 A 
BRANCH   8  12
ATOM     12  N   UNL d   1     -38.108  14.625  15.581  0.00  0.00    -0.114 N 
ATOM     13  O   UNL d   1     -37.942  15.428  15.731  0.00  0.00    -0.532 OA
ATOM     14  O   UNL d   1     -38.062  14.334  14.810  0.00  0.00    -0.532 OA
ENDBRANCH   8  12
ENDBRANCH   4   6
BRANCH   5  15
ATOM     15  C   UNL d   1     -40.468  14.939  19.701  0.00  0.00     0.043 A 
ATOM     16  C   UNL d   1     -40.083  14.657  20.371  0.00  0.00     0.004 A 
ATOM     17  C   UNL d   1     -40.225  15.010  21.109  0.00  0.00     0.000 A 
ATOM     18  C   UNL d   1     -40.752  15.641  21.169  0.00  0.00     0.000 A 
ATOM     19  C   UNL d   1     -41.137  15.919  20.489  0.00  0.00     0.000 A 
ATOM     20  C   UNL d   1     -41.000  15.573  19.754  0.00  0.00     0.004 A 
ENDBRANCH   5  15
TORSDOF 3
ENDMDL
MODEL 7
REMARK VINA RESULT:      -6.6      1.947      4.313
REMARK  3 active torsions:
REMARK  status: ('A' for Active; 'I' for Inactive)
REMARK    1  A    between atoms: C_8  and  C_4 
REMARK    2  A    between atoms: N_5  and  C_7 
REMARK    3  A    between atoms: C_12  and  C_6 
ROOT
ATOM      1  O   UNL d   1     -45.786  12.217  23.045  0.00  0.00    -0.268 OA
ATOM      2  N   UNL d   1     -45.247  13.089  22.189  0.00  0.00    -0.121 NA
ATOM      3  N   UNL d   1     -44.698  12.486  22.311  0.00  0.00    -0.121 NA
ATOM      4  C   UNL d   1     -45.914  12.928  22.636  0.00  0.00     0.204 A 
ATOM      5  C   UNL d   1     -45.027  11.944  22.839  0.00  0.00     0.204 A 
ENDROOT
BRANCH   4   6
ATOM      6  C   UNL d   1     -46.602  13.387  22.681  0.00  0.00     0.045 A 
ATOM      7  C   UNL d   1     -47.341  13.033  22.590  0.00  0.00     0.027 A 
ATOM      8  C   UNL d   1     -48.021  13.491  22.635  0.00  0.00     0.127 A 
ATOM      9  C   UNL d   1     -47.966  14.304  22.773  0.00  0.00     0.024 A 
ATOM     10  C   UNL d   1     -47.231  14.659  22.865  0.00  0.00     0.002 A 
ATOM     11  C   UNL d   1     -46.547  14.200  22.819  0.00  0.00     0.004 A 
BRANCH   8  12
ATOM     12  N   UNL d   1     -48.765  13.128  22.542  0.00  0.00    -0.114 N 
ATOM     13  O   UNL d   1     -48.938  12.714  21.840  0.00  0.00    -0.532 OA
ATOM     14  O   UNL d   1     -49.332  13.176  23.140  0.00  0.00    -0.532 OA
ENDBRANCH   8  12
ENDBRANCH   4   6
BRANCH   5  15
ATOM     15  C   UNL d   1     -44.667  11.258  23.113  0.00  0.00     0.043 A 
ATOM     16  C   UNL d   1     -45.124  10.647  23.421  0.00  0.00     0.004 A 
ATOM     17  C   UNL d   1     -44.757   9.955  23.697  0.00  0.00     0.000 A 
ATOM     18  C   UNL d   1     -43.937   9.881  23.661  0.00  0.00     0.000 A 
ATOM     19  C   UNL d   1     -43.484  10.501  23.349  0.00  0.00     0.000 A 
ATOM     20  C   UNL d   1     -43.841  11.190  23.074  0.00  0.00     0.004 A 
ENDBRANCH   5  15
TORSDOF 3
ENDMDL
MODEL 8
REMARK VINA RESULT:      -6.6      8.559      9.310
REMARK  3 active torsions:
REMARK  status: ('A' for Active; 'I' for Inactive)
REMARK    1  A    between atoms: C_8  and  C_4 
REMARK    2  A    between atoms: N_5  and  C_7 
REMARK    3  A    between atoms: C_12  and  C_6 
ROOT
ATOM      1  O   UNL d   1     -39.564  14.646  20.139  0.00  0.00    -0.268 OA
ATOM      2  N   UNL d   1     -40.865  14.387  19.989  0.00  0.00    -0.121 NA
ATOM      3  N   UNL d   1     -40.724  14.506  20.793  0.00  0.00    -0.121 NA
ATOM      4  C   UNL d   1     -40.158  14.472  19.586  0.00  0.00     0.204 A 
ATOM      5  C   UNL d   1     -39.921  14.667  20.891  0.00  0.00     0.204 A 
ENDROOT
BRANCH   4   6
ATOM      6  C   UNL d   1     -40.042  14.399  18.769  0.00  0.00     0.045 A 
ATOM      7  C   UNL d   1     -40.460  14.883  18.248  0.00  0.00     0.027 A 
ATOM      8  C   UNL d   1     -40.343  14.808  17.438  0.00  0.00     0.127 A 
ATOM      9  C   UNL d   1     -39.807  14.250  17.146  0.00  0.00     0.024 A 
ATOM     10  C   UNL d   1     -39.390  13.767  17.663  0.00  0.00     0.002 A 
ATOM     11  C   UNL d   1     -39.507  13.841  18.476  0.00  0.00     0.004 A 
BRANCH   8  12
ATOM     12  N   UNL d   1     -40.768  15.299  16.917  0.00  0.00    -0.114 N 
ATOM     13  O   UNL d   1     -40.377  15.922  16.524  0.00  0.00    -0.532 OA
ATOM     14  O   UNL d   1     -41.573  15.173  16.786  0.00  0.00    -0.532 OA
ENDBRANCH   8  12
ENDBRANCH   4   6
BRANCH   5  15
ATOM     15  C   UNL d   1     -39.543  14.819  21.604  0.00  0.00     0.043 A 
ATOM     16  C   UNL d   1     -39.489  15.590  21.886  0.00  0.00     0.004 A 
ATOM     17  C   UNL d   1     -39.106  15.741  22.607  0.00  0.00     0.000 A 
ATOM     18  C   UNL d   1     -38.781  15.119  23.038  0.00  0.00     0.000 A 
ATOM     19  C   UNL d   1     -38.839  14.345  22.747  0.00  0.00     0.000 A 
ATOM     20  C   UNL d   1     -39.218  14.188  22.033  0.00  0.00     0.004 A 
ENDBRANCH   5  15
TORSDOF 3
ENDMDL
MODEL 9
REMARK VINA RESULT:      -6.2      8.425      9.034
REMARK  3 active torsions:
REMARK  status: ('A' for Active; 'I' for Inactive)
REMARK    1  A    between atoms: C_8  and  C_4 
REMARK    2  A    between atoms: N_5  and  C_7 
REMARK    3  A    between atoms: C_12  and  C_6 
ROOT
ATOM      1  O   UNL d   1     -39.726  14.621  20.161  0.00  0.00    -0.268 OA
ATOM      2  N   UNL d   1     -40.798  14.281  20.882  0.00  0.00    -0.121 NA
ATOM      3  N   UNL d   1     -41.034  14.337  20.093  0.00  0.00    -0.121 NA
ATOM      4  C   UNL d   1     -39.999  14.454  20.927  0.00  0.00     0.204 A 
ATOM      5  C   UNL d   1     -40.374  14.547  19.644  0.00  0.00     0.204 A 
ENDROOT
BRANCH   4   6
ATOM      6  C   UNL d   1     -39.533  14.464  21.612  0.00  0.00     0.045 A 
ATOM      7  C   UNL d   1     -39.217  13.761  21.907  0.00  0.00     0.027 A 
ATOM      8  C   UNL d   1     -38.756  13.775  22.586  0.00  0.00     0.127 A 
ATOM      9  C   UNL d   1     -38.608  14.491  22.973  0.00  0.00     0.024 A 
ATOM     10  C   UNL d   1     -38.921  15.191  22.681  0.00  0.00     0.002 A 
ATOM     11  C   UNL d   1     -39.385  15.179  21.999  0.00  0.00     0.004 A 
BRANCH   8  12
ATOM     12  N   UNL d   1     -38.439  13.063  22.879  0.00  0.00    -0.114 N 
ATOM     13  O   UNL d   1     -38.628  12.814  23.651  0.00  0.00    -0.532 OA
ATOM     14  O   UNL d   1     -37.940  12.602  22.410  0.00  0.00    -0.532 OA
ENDBRANCH   8  12
ENDBRANCH   4   6
BRANCH   5  15
ATOM     15  C   UNL d   1     -40.362  14.662  18.830  0.00  0.00     0.043 A 
ATOM     16  C   UNL d   1     -40.678  15.348  18.505  0.00  0.00     0.004 A 
ATOM     17  C   UNL d   1     -40.663  15.461  17.683  0.00  0.00     0.000 A 
ATOM     18  C   UNL d   1     -40.332  14.886  17.194  0.00  0.00     0.000 A 
ATOM     19  C   UNL d   1     -40.015  14.198  17.529  0.00  0.00     0.000 A 
ATOM     20  C   UNL d   1     -40.027  14.079  18.344  0.00  0.00     0.004 A 
ENDBRANCH   5  15
TORSDOF 3
ENDMDL
