MODEL 1
REMARK VINA RESULT:      -2.2      0.000      0.000
REMARK  4 active torsions:
REMARK  status: ('A' for Active; 'I' for Inactive)
REMARK    1  A    between atoms: C_9  and  C_1 
REMARK    2  A    between atoms: C_8  and  C_6 
REMARK    3  A    between atoms: C_14  and  C_9 
REMARK    4  A    between atoms: C_15  and  C_10 
ROOT
ATOM      1  C   UNL d   1     -41.648-122.076 -51.653  0.00  0.00     0.089 A 
ATOM      2  C   UNL d   1     -42.446-122.281 -50.605  0.00  0.00     0.048 A 
ATOM      3  C   UNL d   1     -42.414-122.007 -51.383  0.00  0.00     0.114 A 
ATOM      4  C   UNL d   1     -41.683-122.522 -50.399  0.00  0.00     0.112 A 
ATOM      5  S   UNL d   1     -41.190-122.393 -51.053  0.00  0.00    -0.063 SA
ATOM      6  C   UNL d   1     -43.063-122.345 -50.057  0.00  0.00     0.076 A 
ATOM      7  N   UNL d   1     -41.547-122.823 -49.648  0.00  0.00    -0.239 NA
ATOM      8  C   UNL d   1     -42.149-122.889 -49.103  0.00  0.00     0.082 A 
ATOM      9  C   UNL d   1     -42.911-122.648 -49.309  0.00  0.00     0.023 A 
ATOM     10  N   UNL d   1     -43.066-121.709 -51.814  0.00  0.00    -0.147 N 
ENDROOT
BRANCH   1  11
ATOM     11  C   UNL d   1     -41.379-121.865 -52.401  0.00  0.00     0.203 C 
ATOM     12  O   UNL d   1     -41.170-121.104 -52.556  0.00  0.00    -0.286 OA
BRANCH  11  13
ATOM     13  C   UNL d   1     -41.327-122.444 -52.991  0.00  0.00     0.040 A 
ATOM     14  C   UNL d   1     -41.172-123.230 -52.806  0.00  0.00     0.003 A 
ATOM     15  C   UNL d   1     -41.123-123.792 -53.391  0.00  0.00     0.000 A 
ATOM     16  C   UNL d   1     -41.231-123.570 -54.193  0.00  0.00     0.000 A 
ATOM     17  C   UNL d   1     -41.385-122.794 -54.382  0.00  0.00     0.000 A 
ATOM     18  C   UNL d   1     -41.436-122.222 -53.793  0.00  0.00     0.003 A 
ENDBRANCH  11  13
ENDBRANCH   1  11
BRANCH   6  19
ATOM     19  C   UNL d   1     -43.824-122.104 -50.262  0.00  0.00     0.419 C 
ATOM     20  F   UNL d   1     -44.575-121.867 -50.465  0.00  0.00    -0.166 F 
ATOM     21  F   UNL d   1     -43.587-121.310 -50.211  0.00  0.00    -0.166 F 
ATOM     22  F   UNL d   1     -44.059-122.890 -50.313  0.00  0.00    -0.166 F 
ENDBRANCH   6  19
BRANCH   8  23
ATOM     23  C   UNL d   1     -42.012-123.190 -48.351  0.00  0.00     0.018 A 
ATOM     24  C   UNL d   1     -42.652-123.287 -47.832  0.00  0.00     0.002 A 
ATOM     25  C   UNL d   1     -42.539-123.589 -47.069  0.00  0.00     0.000 A 
ATOM     26  C   UNL d   1     -41.762-123.796 -46.831  0.00  0.00     0.000 A 
ATOM     27  C   UNL d   1     -41.123-123.699 -47.350  0.00  0.00     0.000 A 
ATOM     28  C   UNL d   1     -41.262-123.396 -48.106  0.00  0.00     0.002 A 
ENDBRANCH   8  23
TORSDOF 4
ENDMDL
MODEL 2
REMARK VINA RESULT:       0.7      1.677      4.710
REMARK  4 active torsions:
REMARK  status: ('A' for Active; 'I' for Inactive)
REMARK    1  A    between atoms: C_9  and  C_1 
REMARK    2  A    between atoms: C_8  and  C_6 
REMARK    3  A    between atoms: C_14  and  C_9 
REMARK    4  A    between atoms: C_15  and  C_10 
ROOT
ATOM      1  C   UNL d   1     -41.722-123.214 -50.482  0.00  0.00     0.089 A 
ATOM      2  C   UNL d   1     -41.553-122.310 -51.447  0.00  0.00     0.048 A 
ATOM      3  C   UNL d   1     -41.565-122.428 -50.630  0.00  0.00     0.114 A 
ATOM      4  C   UNL d   1     -41.704-123.040 -51.802  0.00  0.00     0.112 A 
ATOM      5  S   UNL d   1     -41.809-123.600 -51.199  0.00  0.00    -0.063 SA
ATOM      6  C   UNL d   1     -41.424-121.640 -51.916  0.00  0.00     0.076 A 
ATOM      7  N   UNL d   1     -41.726-123.092 -52.621  0.00  0.00    -0.239 NA
ATOM      8  C   UNL d   1     -41.600-122.437 -53.089  0.00  0.00     0.082 A 
ATOM      9  C   UNL d   1     -41.448-121.707 -52.734  0.00  0.00     0.023 A 
ATOM     10  N   UNL d   1     -41.438-121.831 -50.058  0.00  0.00    -0.147 N 
ENDROOT
BRANCH   1  11
ATOM     11  C   UNL d   1     -41.782-123.562 -49.740  0.00  0.00     0.203 C 
ATOM     12  O   UNL d   1     -41.123-123.816 -49.357  0.00  0.00    -0.286 OA
BRANCH  11  13
ATOM     13  C   UNL d   1     -42.529-123.647 -49.392  0.00  0.00     0.040 A 
ATOM     14  C   UNL d   1     -43.210-123.695 -49.850  0.00  0.00     0.003 A 
ATOM     15  C   UNL d   1     -43.940-123.779 -49.501  0.00  0.00     0.000 A 
ATOM     16  C   UNL d   1     -44.001-123.817 -48.665  0.00  0.00     0.000 A 
ATOM     17  C   UNL d   1     -43.331-123.770 -48.207  0.00  0.00     0.000 A 
ATOM     18  C   UNL d   1     -42.590-123.686 -48.556  0.00  0.00     0.003 A 
ENDBRANCH  11  13
ENDBRANCH   1  11
BRANCH   6  19
ATOM     19  C   UNL d   1     -41.273-120.911 -51.562  0.00  0.00     0.419 C 
ATOM     20  F   UNL d   1     -41.123-120.192 -51.213  0.00  0.00    -0.166 F 
ATOM     21  F   UNL d   1     -41.362-120.536 -52.297  0.00  0.00    -0.166 F 
ATOM     22  F   UNL d   1     -41.184-121.283 -50.834  0.00  0.00    -0.166 F 
ENDBRANCH   6  19
BRANCH   8  23
ATOM     23  C   UNL d   1     -41.621-122.488 -53.909  0.00  0.00     0.018 A 
ATOM     24  C   UNL d   1     -42.143-122.001 -54.331  0.00  0.00     0.002 A 
ATOM     25  C   UNL d   1     -42.182-122.035 -55.157  0.00  0.00     0.000 A 
ATOM     26  C   UNL d   1     -41.681-122.574 -55.561  0.00  0.00     0.000 A 
ATOM     27  C   UNL d   1     -41.160-123.061 -55.138  0.00  0.00     0.000 A 
ATOM     28  C   UNL d   1     -41.140-123.007 -54.314  0.00  0.00     0.002 A 
ENDBRANCH   8  23
TORSDOF 4
ENDMDL
