MODEL 1
REMARK VINA RESULT:      -3.6      0.000      0.000
REMARK  4 active torsions:
REMARK  status: ('A' for Active; 'I' for Inactive)
REMARK    1  A    between atoms: C_6  and  N_1 
REMARK    2  A    between atoms: C_11  and  C_6 
REMARK    3  A    between atoms: O_14  and  C_8 
REMARK    4  A    between atoms: O_15  and  C_9 
ROOT
ATOM      1  C   UNL d   1     -41.457-122.024 -52.234  0.00  0.00     0.084 C 
ENDROOT
BRANCH   1   2
ATOM      2  N   UNL d   1     -41.511-122.546 -52.871  0.00  0.00    -0.268 N 
ATOM      3  C   UNL d   1     -41.357-123.359 -52.845  0.00  0.00     0.296 A 
ATOM      4  S   UNL d   1     -41.481-123.662 -53.609  0.00  0.00    -0.025 SA
ATOM      5  O   UNL d   1     -41.123-123.789 -52.181  0.00  0.00    -0.259 OA
ATOM      6  C   UNL d   1     -41.710-123.037 -54.097  0.00  0.00     0.050 A 
ATOM      7  C   UNL d   1     -41.729-122.347 -53.645  0.00  0.00     0.073 A 
ATOM      8  C   UNL d   1     -41.907-122.996 -54.904  0.00  0.00     0.008 A 
ATOM      9  C   UNL d   1     -41.941-121.626 -53.984  0.00  0.00     0.018 A 
ATOM     10  C   UNL d   1     -42.135-121.591 -54.784  0.00  0.00     0.002 A 
ATOM     11  C   UNL d   1     -42.118-122.279 -55.246  0.00  0.00     0.001 A 
ENDBRANCH   1   2
BRANCH   1  12
ATOM     12  C   UNL d   1     -41.693-122.268 -51.477  0.00  0.00     0.020 A 
ATOM     13  C   UNL d   1     -42.489-122.310 -51.300  0.00  0.00     0.028 A 
ATOM     14  C   UNL d   1     -42.726-122.551 -50.551  0.00  0.00     0.116 A 
ATOM     15  C   UNL d   1     -42.157-122.752 -49.975  0.00  0.00     0.116 A 
ATOM     16  C   UNL d   1     -41.354-122.706 -50.166  0.00  0.00     0.026 A 
ATOM     17  C   UNL d   1     -41.123-122.462 -50.924  0.00  0.00     0.004 A 
BRANCH  14  18
ATOM     18  O   UNL d   1     -43.527-122.596 -50.366  0.00  0.00    -0.326 OA
ATOM     19  C   UNL d   1     -43.999-121.911 -50.376  0.00  0.00     0.181 C 
ENDBRANCH  14  18
BRANCH  15  20
ATOM     20  O   UNL d   1     -42.426-122.990 -49.235  0.00  0.00    -0.326 OA
ATOM     21  C   UNL d   1     -41.913-123.010 -48.595  0.00  0.00     0.181 C 
ENDBRANCH  15  20
ENDBRANCH   1  12
TORSDOF 4
ENDMDL
MODEL 2
REMARK VINA RESULT:      -1.9      1.693      4.044
REMARK  4 active torsions:
REMARK  status: ('A' for Active; 'I' for Inactive)
REMARK    1  A    between atoms: C_6  and  N_1 
REMARK    2  A    between atoms: C_11  and  C_6 
REMARK    3  A    between atoms: O_14  and  C_8 
REMARK    4  A    between atoms: O_15  and  C_9 
ROOT
ATOM      1  C   UNL d   1     -42.471-122.004 -52.040  0.00  0.00     0.084 C 
ENDROOT
BRANCH   1   2
ATOM      2  N   UNL d   1     -42.020-122.052 -51.350  0.00  0.00    -0.268 N 
ATOM      3  C   UNL d   1     -41.428-121.520 -51.121  0.00  0.00     0.296 A 
ATOM      4  S   UNL d   1     -41.123-121.782 -50.394  0.00  0.00    -0.025 SA
ATOM      5  O   UNL d   1     -41.187-120.852 -51.540  0.00  0.00    -0.259 OA
ATOM      6  C   UNL d   1     -41.527-122.470 -50.182  0.00  0.00     0.050 A 
ATOM      7  C   UNL d   1     -42.081-122.639 -50.769  0.00  0.00     0.073 A 
ATOM      8  C   UNL d   1     -41.468-122.977 -49.525  0.00  0.00     0.008 A 
ATOM      9  C   UNL d   1     -42.571-123.299 -50.709  0.00  0.00     0.018 A 
ATOM     10  C   UNL d   1     -42.508-123.798 -50.056  0.00  0.00     0.002 A 
ATOM     11  C   UNL d   1     -41.955-123.636 -49.461  0.00  0.00     0.001 A 
ENDBRANCH   1   2
BRANCH   1  12
ATOM     12  C   UNL d   1     -42.127-122.182 -52.773  0.00  0.00     0.020 A 
ATOM     13  C   UNL d   1     -42.380-121.786 -53.441  0.00  0.00     0.028 A 
ATOM     14  C   UNL d   1     -42.041-121.960 -54.168  0.00  0.00     0.116 A 
ATOM     15  C   UNL d   1     -41.442-122.537 -54.226  0.00  0.00     0.116 A 
ATOM     16  C   UNL d   1     -41.194-122.931 -53.542  0.00  0.00     0.026 A 
ATOM     17  C   UNL d   1     -41.541-122.751 -52.812  0.00  0.00     0.004 A 
BRANCH  14  18
ATOM     18  O   UNL d   1     -42.292-121.564 -54.846  0.00  0.00    -0.326 OA
ATOM     19  C   UNL d   1     -43.097-121.559 -55.056  0.00  0.00     0.181 C 
ENDBRANCH  14  18
BRANCH  15  20
ATOM     20  O   UNL d   1     -41.123-122.688 -54.969  0.00  0.00    -0.326 OA
ATOM     21  C   UNL d   1     -41.131-123.449 -55.276  0.00  0.00     0.181 C 
ENDBRANCH  15  20
ENDBRANCH   1  12
TORSDOF 4
ENDMDL
MODEL 3
REMARK VINA RESULT:      -0.8      1.610      3.934
REMARK  4 active torsions:
REMARK  status: ('A' for Active; 'I' for Inactive)
REMARK    1  A    between atoms: C_6  and  N_1 
REMARK    2  A    between atoms: C_11  and  C_6 
REMARK    3  A    between atoms: O_14  and  C_8 
REMARK    4  A    between atoms: O_15  and  C_9 
ROOT
ATOM      1  C   UNL d   1     -41.123-122.039 -52.991  0.00  0.00     0.084 C 
ENDROOT
BRANCH   1   2
ATOM      2  N   UNL d   1     -41.247-122.624 -52.422  0.00  0.00    -0.268 N 
ATOM      3  C   UNL d   1     -41.271-123.440 -52.563  0.00  0.00     0.296 A 
ATOM      4  S   UNL d   1     -41.409-123.816 -51.835  0.00  0.00    -0.025 SA
ATOM      5  O   UNL d   1     -41.175-123.810 -53.294  0.00  0.00    -0.259 OA
ATOM      6  C   UNL d   1     -41.469-123.232 -51.254  0.00  0.00     0.050 A 
ATOM      7  C   UNL d   1     -41.370-122.496 -51.613  0.00  0.00     0.073 A 
ATOM      8  C   UNL d   1     -41.603-123.266 -50.434  0.00  0.00     0.008 A 
ATOM      9  C   UNL d   1     -41.402-121.803 -51.168  0.00  0.00     0.018 A 
ATOM     10  C   UNL d   1     -41.535-121.842 -50.356  0.00  0.00     0.002 A 
ATOM     11  C   UNL d   1     -41.636-122.578 -49.987  0.00  0.00     0.001 A 
ENDBRANCH   1   2
BRANCH   1  12
ATOM     12  C   UNL d   1     -41.524-122.075 -53.717  0.00  0.00     0.020 A 
ATOM     13  C   UNL d   1     -42.309-121.855 -53.752  0.00  0.00     0.028 A 
ATOM     14  C   UNL d   1     -42.708-121.889 -54.468  0.00  0.00     0.116 A 
ATOM     15  C   UNL d   1     -42.315-122.148 -55.157  0.00  0.00     0.116 A 
ATOM     16  C   UNL d   1     -41.519-122.369 -55.109  0.00  0.00     0.026 A 
ATOM     17  C   UNL d   1     -41.123-122.331 -54.382  0.00  0.00     0.004 A 
BRANCH  14  18
ATOM     18  O   UNL d   1     -43.501-121.668 -54.511  0.00  0.00    -0.326 OA
ATOM     19  C   UNL d   1     -43.896-121.389 -53.834  0.00  0.00     0.181 C 
ENDBRANCH  14  18
BRANCH  15  20
ATOM     20  O   UNL d   1     -42.742-122.172 -55.859  0.00  0.00    -0.326 OA
ATOM     21  C   UNL d   1     -42.381-121.981 -56.571  0.00  0.00     0.181 C 
ENDBRANCH  15  20
ENDBRANCH   1  12
TORSDOF 4
ENDMDL
