MODEL 1
REMARK VINA RESULT:      54.2      0.000      0.000
REMARK  3 active torsions:
REMARK  status: ('A' for Active; 'I' for Inactive)
REMARK    1  A    between atoms: C_9  and  C_5 
REMARK    2  A    between atoms: C_10  and  C_6 
REMARK    3  A    between atoms: O_16  and  C_13 
ROOT
ATOM      1  N   UNL d   1      57.388  49.659  52.181  0.00  0.00    -0.205 N 
ATOM      2  C   UNL d   1      57.132  49.695  51.397  0.00  0.00     0.197 A 
ATOM      3  N   UNL d   1      57.804  49.707  50.909  0.00  0.00    -0.200 NA
ATOM      4  N   UNL d   1      58.213  49.649  52.180  0.00  0.00    -0.144 NA
ATOM      5  C   UNL d   1      58.469  49.679  51.399  0.00  0.00     0.184 A 
ATOM      6  C   UNL d   1      56.720  49.646  52.674  0.00  0.00     0.092 A 
ATOM      7  S   UNL d   1      56.299  49.704  51.403  0.00  0.00    -0.046 SA
ATOM      8  C   UNL d   1      56.050  49.674  52.196  0.00  0.00     0.058 A 
ENDROOT
BRANCH   5   9
ATOM      9  C   UNL d   1      59.246  49.680  51.143  0.00  0.00     0.038 A 
ATOM     10  C   UNL d   1      59.416  49.697  50.340  0.00  0.00     0.005 A 
ATOM     11  C   UNL d   1      60.200  49.699  50.080  0.00  0.00     0.024 A 
ATOM     12  C   UNL d   1      60.811  49.683  50.624  0.00  0.00     0.094 A 
ATOM     13  C   UNL d   1      60.646  49.665  51.439  0.00  0.00     0.024 A 
ATOM     14  C   UNL d   1      59.864  49.664  51.693  0.00  0.00     0.005 A 
BRANCH  12  15
ATOM     15  O   UNL d   1      61.596  49.685  50.364  0.00  0.00    -0.328 OA
ATOM     16  C   UNL d   1      61.761  49.615  49.553  0.00  0.00     0.181 C 
ENDBRANCH  12  15
ENDBRANCH   5   9
BRANCH   6  17
ATOM     17  C   UNL d   1      56.734  49.612  53.502  0.00  0.00     0.018 A 
ATOM     18  C   UNL d   1      56.038  49.499  53.929  0.00  0.00     0.002 A 
ATOM     19  C   UNL d   1      56.056  49.465  54.752  0.00  0.00     0.000 A 
ATOM     20  C   UNL d   1      56.777  49.544  55.158  0.00  0.00     0.000 A 
ATOM     21  C   UNL d   1      57.472  49.657  54.732  0.00  0.00     0.000 A 
ATOM     22  C   UNL d   1      57.459  49.691  53.908  0.00  0.00     0.002 A 
ENDBRANCH   6  17
TORSDOF 3
ENDMDL
