MODEL 1
REMARK VINA RESULT:       3.8      0.000      0.000
REMARK  8 active torsions:
REMARK  status: ('A' for Active; 'I' for Inactive)
REMARK    1  A    between atoms: N_3  and  C_1 
REMARK       I    between atoms: C_8  and  N_3 
REMARK    2  A    between atoms: O_12  and  C_4 
REMARK    3  A    between atoms: S_20  and  C_5 
REMARK    4  A    between atoms: C_13  and  C_8 
REMARK    5  A    between atoms: C_9  and  O_12 
REMARK    6  A    between atoms: C_14  and  C_9 
REMARK    7  A    between atoms: C_16  and  C_28 
REMARK    8  A    between atoms: C_28  and  S_20 
ROOT
ATOM      1  C   UNL d   1     -42.057-123.039 -50.174  0.00  0.00     0.167 A 
ATOM      2  C   UNL d   1     -41.454-123.088 -50.730  0.00  0.00     0.222 A 
ATOM      3  C   UNL d   1     -41.190-122.384 -51.082  0.00  0.00     0.069 A 
ATOM      4  C   UNL d   1     -42.391-122.314 -49.970  0.00  0.00     0.151 A 
ATOM      5  C   UNL d   1     -41.524-121.659 -50.878  0.00  0.00     0.110 A 
ATOM      6  O   UNL d   1     -42.126-121.630 -50.320  0.00  0.00    -0.302 OA
ATOM      7  O   UNL d   1     -41.123-123.806 -50.932  0.00  0.00    -0.284 OA
ENDROOT
BRANCH   5   8
ATOM      8  C   UNL d   1     -41.256-120.968 -51.232  0.00  0.00     0.062 C 
BRANCH   8   9
ATOM      9  S   UNL d   1     -41.123-120.951 -52.045  0.00  0.00    -0.057 SA
BRANCH   9  10
ATOM     10  C   UNL d   1     -41.366-121.247 -52.909  0.00  0.00     0.166 A 
ATOM     11  S   UNL d   1     -41.230-121.812 -53.493  0.00  0.00    -0.006 SA
ATOM     12  C   UNL d   1     -41.726-121.648 -54.133  0.00  0.00     0.269 A 
ATOM     13  N   UNL d   1     -42.170-120.976 -53.940  0.00  0.00    -0.107 NA
ATOM     14  N   UNL d   1     -41.948-120.729 -53.185  0.00  0.00    -0.132 NA
BRANCH  12  15
ATOM     15  N   UNL d   1     -41.948-121.894 -54.887  0.00  0.00    -0.337 NA
ATOM     16  C   UNL d   1     -42.170-122.142 -55.642  0.00  0.00     0.330 C 
ATOM     17  O   UNL d   1     -41.405-121.983 -55.909  0.00  0.00    -0.251 OA
BRANCH  16  18
ATOM     18  C   UNL d   1     -42.865-122.427 -55.986  0.00  0.00     0.070 A 
ATOM     19  C   UNL d   1     -43.400-122.429 -56.614  0.00  0.00     0.006 A 
ATOM     20  C   UNL d   1     -43.533-122.922 -55.947  0.00  0.00     0.006 A 
ENDBRANCH  16  18
ENDBRANCH  12  15
ENDBRANCH   9  10
ENDBRANCH   8   9
ENDBRANCH   5   8
BRANCH   1  21
ATOM     21  O   UNL d   1     -42.330-123.736 -49.814  0.00  0.00    -0.268 OA
BRANCH  21  22
ATOM     22  C   UNL d   1     -42.996-123.712 -49.324  0.00  0.00     0.300 C 
ATOM     23  O   UNL d   1     -43.753-123.654 -49.659  0.00  0.00    -0.259 OA
BRANCH  22  24
ATOM     24  C   UNL d   1     -42.901-123.747 -48.491  0.00  0.00     0.064 A 
ATOM     25  C   UNL d   1     -43.569-123.763 -48.006  0.00  0.00     0.005 A 
ATOM     26  C   UNL d   1     -43.483-123.797 -47.173  0.00  0.00     0.000 A 
ATOM     27  C   UNL d   1     -44.155-123.813 -46.695  0.00  0.00     0.000 C 
ATOM     28  C   UNL d   1     -42.720-123.815 -46.849  0.00  0.00     0.000 A 
ATOM     29  C   UNL d   1     -42.042-123.798 -47.341  0.00  0.00     0.000 A 
ATOM     30  C   UNL d   1     -42.146-123.765 -48.152  0.00  0.00     0.005 A 
ATOM     31  C   UNL d   1     -41.300-123.817 -46.998  0.00  0.00     0.000 C 
ENDBRANCH  22  24
ENDBRANCH  21  22
ENDBRANCH   1  21
TORSDOF 8
ENDMDL
