MODEL 1
REMARK VINA RESULT:      -3.2      0.000      0.000
REMARK  1 active torsions:
REMARK  status: ('A' for Active; 'I' for Inactive)
REMARK    1  A    between atoms: C_8  and  C_1 
ROOT
ATOM      1  C   UNL d   1      32.428  17.249 -23.829  0.00  0.00     0.010 A 
ATOM      2  C   UNL d   1      31.642  17.034 -23.972  0.00  0.00     0.062 A 
ATOM      3  C   UNL d   1      31.373  16.285 -23.739  0.00  0.00     0.106 A 
ATOM      4  C   UNL d   1      31.126  17.556 -24.343  0.00  0.00     0.198 A 
ATOM      5  O   UNL d   1      31.887  15.760 -23.368  0.00  0.00    -0.273 OA
ATOM      6  C   UNL d   1      32.944  16.727 -23.459  0.00  0.00     0.069 A 
ATOM      7  C   UNL d   1      32.677  15.982 -23.227  0.00  0.00     0.300 A 
ATOM      8  C   UNL d   1      30.592  16.066 -23.879  0.00  0.00     0.025 A 
ATOM      9  C   UNL d   1      30.343  17.340 -24.485  0.00  0.00     0.042 A 
ATOM     10  O   UNL d   1      33.193  15.453 -22.852  0.00  0.00    -0.259 OA
ATOM     11  C   UNL d   1      30.076  16.595 -24.252  0.00  0.00     0.005 A 
ATOM     12  O   UNL d   1      31.395  18.305 -24.576  0.00  0.00    -0.286 OA
ATOM     13  C   UNL d   1      29.297  16.371 -24.389  0.00  0.00     0.000 C 
ENDROOT
BRANCH   1  14
ATOM     14  C   UNL d   1      32.697  17.998 -24.063  0.00  0.00     0.000 A 
ATOM     15  C   UNL d   1      32.970  18.115 -24.837  0.00  0.00     0.000 A 
ATOM     16  C   UNL d   1      33.241  18.872 -25.073  0.00  0.00     0.000 A 
ATOM     17  C   UNL d   1      33.237  19.496 -24.538  0.00  0.00     0.000 A 
ATOM     18  C   UNL d   1      32.960  19.368 -23.759  0.00  0.00     0.000 A 
ATOM     19  C   UNL d   1      32.693  18.623 -23.526  0.00  0.00     0.000 A 
ENDBRANCH   1  14
TORSDOF 1
ENDMDL
MODEL 2
REMARK VINA RESULT:      -3.1      4.109      5.940
REMARK  1 active torsions:
REMARK  status: ('A' for Active; 'I' for Inactive)
REMARK    1  A    between atoms: C_8  and  C_1 
ROOT
ATOM      1  C   UNL d   1      32.819  22.612 -21.921  0.00  0.00     0.010 A 
ATOM      2  C   UNL d   1      32.923  21.791 -21.948  0.00  0.00     0.062 A 
ATOM      3  C   UNL d   1      33.134  21.429 -22.663  0.00  0.00     0.106 A 
ATOM      4  C   UNL d   1      32.819  21.334 -21.273  0.00  0.00     0.198 A 
ATOM      5  O   UNL d   1      33.239  21.884 -23.341  0.00  0.00    -0.273 OA
ATOM      6  C   UNL d   1      32.923  23.069 -22.596  0.00  0.00     0.069 A 
ATOM      7  C   UNL d   1      33.133  22.709 -23.308  0.00  0.00     0.300 A 
ATOM      8  C   UNL d   1      33.239  20.613 -22.697  0.00  0.00     0.025 A 
ATOM      9  C   UNL d   1      32.923  20.516 -21.302  0.00  0.00     0.042 A 
ATOM     10  O   UNL d   1      33.239  23.166 -23.991  0.00  0.00    -0.259 OA
ATOM     11  C   UNL d   1      33.133  20.156 -22.014  0.00  0.00     0.005 A 
ATOM     12  O   UNL d   1      32.608  21.696 -20.558  0.00  0.00    -0.286 OA
ATOM     13  C   UNL d   1      33.239  19.341 -22.052  0.00  0.00     0.000 C 
ENDROOT
BRANCH   1  14
ATOM     14  C   UNL d   1      32.608  22.975 -21.206  0.00  0.00     0.000 A 
ATOM     15  C   UNL d   1      33.198  23.192 -20.664  0.00  0.00     0.000 A 
ATOM     16  C   UNL d   1      32.985  23.558 -19.941  0.00  0.00     0.000 A 
ATOM     17  C   UNL d   1      32.194  23.702 -19.770  0.00  0.00     0.000 A 
ATOM     18  C   UNL d   1      31.606  23.479 -20.323  0.00  0.00     0.000 A 
ATOM     19  C   UNL d   1      31.816  23.118 -21.034  0.00  0.00     0.000 A 
ENDBRANCH   1  14
TORSDOF 1
ENDMDL
MODEL 3
REMARK VINA RESULT:      -2.9      0.802      3.060
REMARK  1 active torsions:
REMARK  status: ('A' for Active; 'I' for Inactive)
REMARK    1  A    between atoms: C_8  and  C_1 
ROOT
ATOM      1  C   UNL d   1      31.132  16.306 -23.949  0.00  0.00     0.010 A 
ATOM      2  C   UNL d   1      31.468  17.005 -24.239  0.00  0.00     0.062 A 
ATOM      3  C   UNL d   1      32.257  17.185 -24.061  0.00  0.00     0.106 A 
ATOM      4  C   UNL d   1      31.026  17.521 -24.702  0.00  0.00     0.198 A 
ATOM      5  O   UNL d   1      32.702  16.671 -23.597  0.00  0.00    -0.273 OA
ATOM      6  C   UNL d   1      31.574  15.791 -23.486  0.00  0.00     0.069 A 
ATOM      7  C   UNL d   1      32.359  15.970 -23.308  0.00  0.00     0.300 A 
ATOM      8  C   UNL d   1      32.597  17.878 -24.347  0.00  0.00     0.025 A 
ATOM      9  C   UNL d   1      31.362  18.216 -24.991  0.00  0.00     0.042 A 
ATOM     10  O   UNL d   1      32.808  15.453 -22.841  0.00  0.00    -0.259 OA
ATOM     11  C   UNL d   1      32.148  18.395 -24.813  0.00  0.00     0.005 A 
ATOM     12  O   UNL d   1      30.236  17.341 -24.881  0.00  0.00    -0.286 OA
ATOM     13  C   UNL d   1      32.491  19.086 -25.096  0.00  0.00     0.000 C 
ENDROOT
BRANCH   1  14
ATOM     14  C   UNL d   1      30.342  16.127 -24.127  0.00  0.00     0.000 A 
ATOM     15  C   UNL d   1      29.737  16.375 -23.617  0.00  0.00     0.000 A 
ATOM     16  C   UNL d   1      28.940  16.193 -23.797  0.00  0.00     0.000 A 
ATOM     17  C   UNL d   1      28.757  15.770 -24.479  0.00  0.00     0.000 A 
ATOM     18  C   UNL d   1      29.375  15.524 -24.987  0.00  0.00     0.000 A 
ATOM     19  C   UNL d   1      30.160  15.703 -24.810  0.00  0.00     0.000 A 
ENDBRANCH   1  14
TORSDOF 1
ENDMDL
MODEL 4
REMARK VINA RESULT:      -2.9      1.383      3.553
REMARK  1 active torsions:
REMARK  status: ('A' for Active; 'I' for Inactive)
REMARK    1  A    between atoms: C_8  and  C_1 
ROOT
ATOM      1  C   UNL d   1      30.565  16.914 -24.336  0.00  0.00     0.010 A 
ATOM      2  C   UNL d   1      31.208  16.546 -23.967  0.00  0.00     0.062 A 
ATOM      3  C   UNL d   1      31.951  16.914 -23.976  0.00  0.00     0.106 A 
ATOM      4  C   UNL d   1      31.116  15.820 -23.592  0.00  0.00     0.198 A 
ATOM      5  O   UNL d   1      32.047  17.640 -24.351  0.00  0.00    -0.273 OA
ATOM      6  C   UNL d   1      30.657  17.640 -24.711  0.00  0.00     0.069 A 
ATOM      7  C   UNL d   1      31.397  18.006 -24.720  0.00  0.00     0.300 A 
ATOM      8  C   UNL d   1      32.594  16.552 -23.611  0.00  0.00     0.025 A 
ATOM      9  C   UNL d   1      31.757  15.455 -23.225  0.00  0.00     0.042 A 
ATOM     10  O   UNL d   1      31.494  18.738 -25.097  0.00  0.00    -0.259 OA
ATOM     11  C   UNL d   1      32.497  15.821 -23.235  0.00  0.00     0.005 A 
ATOM     12  O   UNL d   1      30.373  15.453 -23.583  0.00  0.00    -0.286 OA
ATOM     13  C   UNL d   1      33.142  15.464 -22.872  0.00  0.00     0.000 C 
ENDROOT
BRANCH   1  14
ATOM     14  C   UNL d   1      29.822  16.547 -24.327  0.00  0.00     0.000 A 
ATOM     15  C   UNL d   1      29.283  16.722 -23.721  0.00  0.00     0.000 A 
ATOM     16  C   UNL d   1      28.532  16.350 -23.711  0.00  0.00     0.000 A 
ATOM     17  C   UNL d   1      28.330  15.814 -24.301  0.00  0.00     0.000 A 
ATOM     18  C   UNL d   1      28.881  15.644 -24.908  0.00  0.00     0.000 A 
ATOM     19  C   UNL d   1      29.620  16.009 -24.917  0.00  0.00     0.000 A 
ENDBRANCH   1  14
TORSDOF 1
ENDMDL
MODEL 5
REMARK VINA RESULT:      -2.5      1.808      3.083
REMARK  1 active torsions:
REMARK  status: ('A' for Active; 'I' for Inactive)
REMARK    1  A    between atoms: C_8  and  C_1 
ROOT
ATOM      1  C   UNL d   1      30.227  16.951 -24.329  0.00  0.00     0.010 A 
ATOM      2  C   UNL d   1      29.584  16.570 -23.972  0.00  0.00     0.062 A 
ATOM      3  C   UNL d   1      28.836  16.926 -23.992  0.00  0.00     0.106 A 
ATOM      4  C   UNL d   1      29.682  15.845 -23.599  0.00  0.00     0.198 A 
ATOM      5  O   UNL d   1      28.734  17.653 -24.364  0.00  0.00    -0.273 OA
ATOM      6  C   UNL d   1      30.129  17.677 -24.702  0.00  0.00     0.069 A 
ATOM      7  C   UNL d   1      29.384  18.031 -24.722  0.00  0.00     0.300 A 
ATOM      8  C   UNL d   1      28.193  16.553 -23.638  0.00  0.00     0.025 A 
ATOM      9  C   UNL d   1      29.041  15.467 -23.244  0.00  0.00     0.042 A 
ATOM     10  O   UNL d   1      29.281  18.763 -25.097  0.00  0.00    -0.259 OA
ATOM     11  C   UNL d   1      28.296  15.821 -23.264  0.00  0.00     0.005 A 
ATOM     12  O   UNL d   1      30.431  15.489 -23.580  0.00  0.00    -0.286 OA
ATOM     13  C   UNL d   1      27.651  15.453 -22.912  0.00  0.00     0.000 C 
ENDROOT
BRANCH   1  14
ATOM     14  C   UNL d   1      30.976  16.595 -24.310  0.00  0.00     0.000 A 
ATOM     15  C   UNL d   1      31.203  16.080 -24.919  0.00  0.00     0.000 A 
ATOM     16  C   UNL d   1      31.960  15.720 -24.899  0.00  0.00     0.000 A 
ATOM     17  C   UNL d   1      32.475  15.878 -24.277  0.00  0.00     0.000 A 
ATOM     18  C   UNL d   1      32.236  16.399 -23.668  0.00  0.00     0.000 A 
ATOM     19  C   UNL d   1      31.491  16.753 -23.687  0.00  0.00     0.000 A 
ENDBRANCH   1  14
TORSDOF 1
ENDMDL
MODEL 6
REMARK VINA RESULT:      -2.4      1.786      2.604
REMARK  1 active torsions:
REMARK  status: ('A' for Active; 'I' for Inactive)
REMARK    1  A    between atoms: C_8  and  C_1 
ROOT
ATOM      1  C   UNL d   1      30.499  16.266 -23.793  0.00  0.00     0.010 A 
ATOM      2  C   UNL d   1      30.019  16.855 -24.124  0.00  0.00     0.062 A 
ATOM      3  C   UNL d   1      29.254  16.974 -23.827  0.00  0.00     0.106 A 
ATOM      4  C   UNL d   1      30.296  17.320 -24.742  0.00  0.00     0.198 A 
ATOM      5  O   UNL d   1      28.975  16.510 -23.208  0.00  0.00    -0.273 OA
ATOM      6  C   UNL d   1      30.223  15.801 -23.174  0.00  0.00     0.069 A 
ATOM      7  C   UNL d   1      29.461  15.920 -22.879  0.00  0.00     0.300 A 
ATOM      8  C   UNL d   1      28.773  17.558 -24.153  0.00  0.00     0.025 A 
ATOM      9  C   UNL d   1      29.817  17.906 -25.071  0.00  0.00     0.042 A 
ATOM     10  O   UNL d   1      29.179  15.453 -22.255  0.00  0.00    -0.259 OA
ATOM     11  C   UNL d   1      29.055  18.025 -24.776  0.00  0.00     0.005 A 
ATOM     12  O   UNL d   1      31.061  17.201 -25.039  0.00  0.00    -0.286 OA
ATOM     13  C   UNL d   1      28.571  18.606 -25.097  0.00  0.00     0.000 C 
ENDROOT
BRANCH   1  14
ATOM     14  C   UNL d   1      31.264  16.147 -24.089  0.00  0.00     0.000 A 
ATOM     15  C   UNL d   1      31.387  15.605 -24.705  0.00  0.00     0.000 A 
ATOM     16  C   UNL d   1      32.160  15.484 -25.004  0.00  0.00     0.000 A 
ATOM     17  C   UNL d   1      32.795  15.902 -24.688  0.00  0.00     0.000 A 
ATOM     18  C   UNL d   1      32.660  16.446 -24.067  0.00  0.00     0.000 A 
ATOM     19  C   UNL d   1      31.898  16.565 -23.772  0.00  0.00     0.000 A 
ENDBRANCH   1  14
TORSDOF 1
ENDMDL
MODEL 7
REMARK VINA RESULT:      -2.2      0.942      2.482
REMARK  1 active torsions:
REMARK  status: ('A' for Active; 'I' for Inactive)
REMARK    1  A    between atoms: C_8  and  C_1 
ROOT
ATOM      1  C   UNL d   1      32.200  17.385 -24.289  0.00  0.00     0.010 A 
ATOM      2  C   UNL d   1      31.397  17.360 -24.487  0.00  0.00     0.062 A 
ATOM      3  C   UNL d   1      31.053  18.000 -24.885  0.00  0.00     0.106 A 
ATOM      4  C   UNL d   1      30.938  16.706 -24.292  0.00  0.00     0.198 A 
ATOM      5  O   UNL d   1      31.509  18.656 -25.082  0.00  0.00    -0.273 OA
ATOM      6  C   UNL d   1      32.659  18.039 -24.484  0.00  0.00     0.069 A 
ATOM      7  C   UNL d   1      32.316  18.676 -24.881  0.00  0.00     0.300 A 
ATOM      8  C   UNL d   1      30.254  17.981 -25.085  0.00  0.00     0.025 A 
ATOM      9  C   UNL d   1      30.138  16.683 -24.490  0.00  0.00     0.042 A 
ATOM     10  O   UNL d   1      32.775  19.337 -25.080  0.00  0.00    -0.259 OA
ATOM     11  C   UNL d   1      29.796  17.320 -24.886  0.00  0.00     0.005 A 
ATOM     12  O   UNL d   1      31.282  16.066 -23.893  0.00  0.00    -0.286 OA
ATOM     13  C   UNL d   1      28.999  17.306 -25.087  0.00  0.00     0.000 C 
ENDROOT
BRANCH   1  14
ATOM     14  C   UNL d   1      32.544  16.744 -23.891  0.00  0.00     0.000 A 
ATOM     15  C   UNL d   1      32.851  16.107 -24.323  0.00  0.00     0.000 A 
ATOM     16  C   UNL d   1      33.198  15.459 -23.921  0.00  0.00     0.000 A 
ATOM     17  C   UNL d   1      33.235  15.457 -23.099  0.00  0.00     0.000 A 
ATOM     18  C   UNL d   1      32.922  16.105 -22.672  0.00  0.00     0.000 A 
ATOM     19  C   UNL d   1      32.580  16.742 -23.068  0.00  0.00     0.000 A 
ENDBRANCH   1  14
TORSDOF 1
ENDMDL
MODEL 8
REMARK VINA RESULT:      -1.8      1.362      3.167
REMARK  1 active torsions:
REMARK  status: ('A' for Active; 'I' for Inactive)
REMARK    1  A    between atoms: C_8  and  C_1 
ROOT
ATOM      1  C   UNL d   1      32.715  17.963 -23.417  0.00  0.00     0.010 A 
ATOM      2  C   UNL d   1      32.842  18.661 -23.843  0.00  0.00     0.062 A 
ATOM      3  C   UNL d   1      33.105  19.340 -23.446  0.00  0.00     0.106 A 
ATOM      4  C   UNL d   1      32.711  18.686 -24.654  0.00  0.00     0.198 A 
ATOM      5  O   UNL d   1      33.237  19.318 -22.635  0.00  0.00    -0.273 OA
ATOM      6  C   UNL d   1      32.846  17.937 -22.606  0.00  0.00     0.069 A 
ATOM      7  C   UNL d   1      33.107  18.613 -22.212  0.00  0.00     0.300 A 
ATOM      8  C   UNL d   1      33.233  20.038 -23.865  0.00  0.00     0.025 A 
ATOM      9  C   UNL d   1      32.838  19.383 -25.076  0.00  0.00     0.042 A 
ATOM     10  O   UNL d   1      33.241  18.592 -21.394  0.00  0.00    -0.259 OA
ATOM     11  C   UNL d   1      33.099  20.059 -24.682  0.00  0.00     0.005 A 
ATOM     12  O   UNL d   1      32.448  18.007 -25.051  0.00  0.00    -0.286 OA
ATOM     13  C   UNL d   1      33.229  20.758 -25.094  0.00  0.00     0.000 C 
ENDROOT
BRANCH   1  14
ATOM     14  C   UNL d   1      32.452  17.283 -23.814  0.00  0.00     0.000 A 
ATOM     15  C   UNL d   1      33.005  16.741 -24.111  0.00  0.00     0.000 A 
ATOM     16  C   UNL d   1      32.740  16.054 -24.512  0.00  0.00     0.000 A 
ATOM     17  C   UNL d   1      31.934  15.920 -24.610  0.00  0.00     0.000 A 
ATOM     18  C   UNL d   1      31.385  16.474 -24.307  0.00  0.00     0.000 A 
ATOM     19  C   UNL d   1      31.646  17.149 -23.912  0.00  0.00     0.000 A 
ENDBRANCH   1  14
TORSDOF 1
ENDMDL
