MODEL 1
REMARK VINA RESULT:       8.3      0.000      0.000
REMARK  4 active torsions:
REMARK  status: ('A' for Active; 'I' for Inactive)
REMARK    1  A    between atoms: C_14  and  C_2 
REMARK    2  A    between atoms: C_4  and  C_5 
REMARK    3  A    between atoms: C_5  and  O_9 
REMARK    4  A    between atoms: O_9  and  C_14 
ROOT
ATOM      1  N   UNL d   1      46.206 -17.669  43.295  0.00  0.00    -0.236 NA
ATOM      2  C   UNL d   1      46.136 -17.678  44.108  0.00  0.00     0.136 A 
ATOM      3  S   UNL d   1      46.245 -18.462  44.372  0.00  0.00    -0.064 SA
ATOM      4  C   UNL d   1      46.358 -18.444  43.046  0.00  0.00     0.088 A 
ATOM      5  C   UNL d   1      46.382 -18.930  43.704  0.00  0.00     0.049 A 
ATOM      6  C   UNL d   1      46.477 -18.761  42.294  0.00  0.00     0.020 A 
ATOM      7  C   UNL d   1      46.526 -19.740  43.607  0.00  0.00     0.008 A 
ATOM      8  C   UNL d   1      46.647 -20.065  42.853  0.00  0.00     0.001 A 
ATOM      9  C   UNL d   1      46.622 -19.576  42.196  0.00  0.00     0.002 A 
ENDROOT
BRANCH   2  10
ATOM     10  C   UNL d   1      45.987 -17.051  44.607  0.00  0.00     0.152 C 
BRANCH  10  11
ATOM     11  O   UNL d   1      45.933 -16.288  44.267  0.00  0.00    -0.269 OA
BRANCH  11  12
ATOM     12  C   UNL d   1      45.398 -15.723  44.590  0.00  0.00     0.306 C 
ATOM     13  O   UNL d   1      44.697 -15.982  44.948  0.00  0.00    -0.258 OA
BRANCH  12  14
ATOM     14  C   UNL d   1      45.569 -14.891  44.552  0.00  0.00     0.093 A 
ATOM     15  S   UNL d   1      46.222 -14.462  44.801  0.00  0.00    -0.081 SA
ATOM     16  C   UNL d   1      46.074 -13.669  44.617  0.00  0.00     0.036 A 
ATOM     17  C   UNL d   1      45.349 -13.620  44.264  0.00  0.00     0.008 A 
ATOM     18  C   UNL d   1      45.028 -14.374  44.219  0.00  0.00     0.012 A 
ENDBRANCH  12  14
ENDBRANCH  11  12
ENDBRANCH  10  11
ENDBRANCH   2  10
TORSDOF 4
ENDMDL
