MODEL 1
REMARK VINA RESULT:      14.0      0.000      0.000
REMARK  3 active torsions:
REMARK  status: ('A' for Active; 'I' for Inactive)
REMARK    1  A    between atoms: C_8  and  C_2 
REMARK    2  A    between atoms: C_7  and  C_5 
REMARK    3  A    between atoms: C_10  and  C_8 
ROOT
ATOM      1  C   UNL d   1      46.171 -17.627  43.869  0.00  0.00     0.101 A 
ATOM      2  O   UNL d   1      45.567 -17.083  43.846  0.00  0.00    -0.307 OA
ATOM      3  C   UNL d   1      45.623 -16.633  44.544  0.00  0.00     0.101 A 
ATOM      4  C   UNL d   1      46.573 -17.498  44.564  0.00  0.00     0.027 A 
ATOM      5  C   UNL d   1      46.213 -16.885  44.953  0.00  0.00     0.027 A 
ENDROOT
BRANCH   1   6
ATOM      6  C   UNL d   1      46.319 -18.188  43.279  0.00  0.00     0.034 A 
ATOM      7  C   UNL d   1      46.356 -19.008  43.500  0.00  0.00     0.070 A 
ATOM      8  C   UNL d   1      46.506 -19.591  42.904  0.00  0.00     0.068 A 
ATOM      9 CL   UNL d   1      46.254 -19.347  44.313  0.00  0.00    -0.081 Cl
ATOM     10 CL   UNL d   1      46.516 -20.330  43.251  0.00  0.00    -0.082 Cl
ATOM     11  C   UNL d   1      46.612 -19.337  42.120  0.00  0.00     0.012 A 
ATOM     12  C   UNL d   1      46.571 -18.523  41.922  0.00  0.00     0.001 A 
ATOM     13  C   UNL d   1      46.427 -17.969  42.494  0.00  0.00     0.003 A 
ENDBRANCH   1   6
BRANCH   3  14
ATOM     14  C   UNL d   1      45.127 -15.999  44.785  0.00  0.00     0.036 C 
BRANCH  14  15
ATOM     15  C   UNL d   1      45.360 -15.225  44.622  0.00  0.00     0.094 A 
ATOM     16  C   UNL d   1      44.834 -14.601  44.696  0.00  0.00     0.288 A 
ATOM     17  N   UNL d   1      45.230 -13.890  44.495  0.00  0.00    -0.163 NA
ATOM     18  O   UNL d   1      44.006 -14.662  44.942  0.00  0.00    -0.265 OA
ATOM     19  C   UNL d   1      45.952 -14.090  44.312  0.00  0.00     0.313 A 
ATOM     20  S   UNL d   1      46.074 -14.917  44.379  0.00  0.00    -0.021 SA
ATOM     21  O   UNL d   1      46.487 -13.490  44.084  0.00  0.00    -0.258 OA
ENDBRANCH  14  15
ENDBRANCH   3  14
TORSDOF 3
ENDMDL
MODEL 2
REMARK VINA RESULT:      15.8      2.521      4.592
REMARK  3 active torsions:
REMARK  status: ('A' for Active; 'I' for Inactive)
REMARK    1  A    between atoms: C_8  and  C_2 
REMARK    2  A    between atoms: C_7  and  C_5 
REMARK    3  A    between atoms: C_10  and  C_8 
ROOT
ATOM      1  C   UNL d   1      45.627 -15.186  44.630  0.00  0.00     0.101 A 
ATOM      2  O   UNL d   1      46.214 -15.746  44.696  0.00  0.00    -0.307 OA
ATOM      3  C   UNL d   1      45.834 -16.486  44.736  0.00  0.00     0.101 A 
ATOM      4  C   UNL d   1      44.921 -15.589  44.631  0.00  0.00     0.027 A 
ATOM      5  C   UNL d   1      45.082 -16.380  44.697  0.00  0.00     0.027 A 
ENDROOT
BRANCH   1   6
ATOM      6  C   UNL d   1      45.762 -14.371  44.574  0.00  0.00     0.034 A 
ATOM      7  C   UNL d   1      45.226 -13.903  44.109  0.00  0.00     0.070 A 
ATOM      8  C   UNL d   1      45.355 -13.068  44.045  0.00  0.00     0.068 A 
ATOM      9 CL   UNL d   1      44.517 -14.191  43.661  0.00  0.00    -0.081 Cl
ATOM     10 CL   UNL d   1      44.773 -12.745  43.574  0.00  0.00    -0.082 Cl
ATOM     11  C   UNL d   1      46.005 -12.737  44.442  0.00  0.00     0.012 A 
ATOM     12  C   UNL d   1      46.523 -13.216  44.896  0.00  0.00     0.001 A 
ATOM     13  C   UNL d   1      46.396 -14.014  44.955  0.00  0.00     0.003 A 
ENDBRANCH   1   6
BRANCH   3  14
ATOM     14  C   UNL d   1      46.194 -17.242  44.808  0.00  0.00     0.036 C 
BRANCH  14  15
ATOM     15  C   UNL d   1      46.236 -17.730  44.144  0.00  0.00     0.094 A 
ATOM     16  C   UNL d   1      46.416 -18.525  44.215  0.00  0.00     0.288 A 
ATOM     17  N   UNL d   1      46.416 -18.871  43.451  0.00  0.00    -0.163 NA
ATOM     18  O   UNL d   1      46.580 -18.945  44.955  0.00  0.00    -0.265 OA
ATOM     19  C   UNL d   1      46.244 -18.303  42.958  0.00  0.00     0.313 A 
ATOM     20  S   UNL d   1      46.124 -17.573  43.352  0.00  0.00    -0.021 SA
ATOM     21  O   UNL d   1      46.202 -18.481  42.143  0.00  0.00    -0.258 OA
ENDBRANCH  14  15
ENDBRANCH   3  14
TORSDOF 3
ENDMDL
