MODEL 1
REMARK VINA RESULT:      -3.5      0.000      0.000
REMARK  5 active torsions:
REMARK  status: ('A' for Active; 'I' for Inactive)
REMARK    1  A    between atoms: N_9  and  C_2 
REMARK    2  A    between atoms: N_11  and  C_6 
REMARK    3  A    between atoms: C_16  and  N_11 
REMARK    4  A    between atoms: C_15  and  N_12 
REMARK    5  A    between atoms: C_24  and  C_15 
ROOT
ATOM      1  N   UNL d   1     -40.316  14.012  21.380  0.00  0.00    -0.041 NA
ATOM      2  C   UNL d   1     -40.911  14.220  20.915  0.00  0.00     0.738 A 
ATOM      3  C   UNL d   1     -39.603  14.307  21.254  0.00  0.00     0.187 A 
ATOM      4  N   UNL d   1     -40.791  14.724  20.322  0.00  0.00    -0.041 NA
ATOM      5  C   UNL d   1     -39.479  14.812  20.661  0.00  0.00     0.094 A 
ATOM      6  C   UNL d   1     -40.076  15.024  20.190  0.00  0.00     0.185 A 
ATOM      7  N   UNL d   1     -38.279  14.395  21.596  0.00  0.00    -0.162 NA
ATOM      8  N   UNL d   1     -39.005  14.095  21.725  0.00  0.00    -0.208 N 
ATOM      9  C   UNL d   1     -38.159  14.900  21.002  0.00  0.00     0.127 A 
ATOM     10  C   UNL d   1     -39.125  13.593  22.315  0.00  0.00     0.123 C 
ENDROOT
BRANCH   2  11
ATOM     11  N   UNL d   1     -41.670  13.910  21.045  0.00  0.00    -0.134 N 
ATOM     12  C   UNL d   1     -42.284  14.412  21.294  0.00  0.00     0.117 A 
ATOM     13  C   UNL d   1     -43.048  14.102  21.425  0.00  0.00     0.100 A 
ATOM     14  N   UNL d   1     -43.191  13.303  21.309  0.00  0.00    -0.300 N 
ATOM     15  C   UNL d   1     -42.577  12.801  21.060  0.00  0.00     0.100 A 
ATOM     16  C   UNL d   1     -41.823  13.099  20.929  0.00  0.00     0.117 A 
BRANCH  14  17
ATOM     17  C   UNL d   1     -43.946  12.986  21.437  0.00  0.00     0.080 C 
BRANCH  17  18
ATOM     18  C   UNL d   1     -44.612  12.908  21.918  0.00  0.00     0.018 A 
ATOM     19  C   UNL d   1     -45.206  13.489  21.908  0.00  0.00     0.002 A 
ATOM     20  C   UNL d   1     -45.863  13.404  22.388  0.00  0.00     0.000 A 
ATOM     21  C   UNL d   1     -45.948  12.749  22.885  0.00  0.00     0.000 A 
ATOM     22  C   UNL d   1     -45.354  12.168  22.895  0.00  0.00     0.000 A 
ATOM     23  C   UNL d   1     -44.684  12.249  22.408  0.00  0.00     0.002 A 
ENDBRANCH  17  18
ENDBRANCH  14  17
ENDBRANCH   2  11
BRANCH   6  24
ATOM     24  N   UNL d   1     -39.959  15.547  19.571  0.00  0.00    -0.226 NA
BRANCH  24  25
ATOM     25  C   UNL d   1     -40.146  15.329  18.802  0.00  0.00     0.083 A 
ATOM     26  C   UNL d   1     -40.770  15.694  18.410  0.00  0.00     0.021 A 
ATOM     27  C   UNL d   1     -40.961  15.475  17.630  0.00  0.00     0.031 A 
ATOM     28  C   UNL d   1     -40.527  14.892  17.246  0.00  0.00     0.140 A 
ATOM     29  C   UNL d   1     -39.895  14.519  17.636  0.00  0.00     0.031 A 
ATOM     30  F   UNL d   1     -40.720  14.680  16.476  0.00  0.00    -0.204 F 
ATOM     31  C   UNL d   1     -39.710  14.740  18.408  0.00  0.00     0.021 A 
ENDBRANCH  24  25
ENDBRANCH   6  24
TORSDOF 5
ENDMDL
MODEL 2
REMARK VINA RESULT:      -2.1      4.304      8.347
REMARK  5 active torsions:
REMARK  status: ('A' for Active; 'I' for Inactive)
REMARK    1  A    between atoms: N_9  and  C_2 
REMARK    2  A    between atoms: N_11  and  C_6 
REMARK    3  A    between atoms: C_16  and  N_11 
REMARK    4  A    between atoms: C_15  and  N_12 
REMARK    5  A    between atoms: C_24  and  C_15 
ROOT
ATOM      1  N   UNL d   1     -48.154  12.082  23.108  0.00  0.00    -0.041 NA
ATOM      2  C   UNL d   1     -47.895  12.820  23.093  0.00  0.00     0.738 A 
ATOM      3  C   UNL d   1     -48.897  11.934  23.303  0.00  0.00     0.187 A 
ATOM      4  N   UNL d   1     -48.381  13.413  23.275  0.00  0.00    -0.041 NA
ATOM      5  C   UNL d   1     -49.386  12.524  23.486  0.00  0.00     0.094 A 
ATOM      6  C   UNL d   1     -49.129  13.271  23.472  0.00  0.00     0.185 A 
ATOM      7  N   UNL d   1     -49.911  11.037  23.516  0.00  0.00    -0.162 NA
ATOM      8  N   UNL d   1     -49.154  11.187  23.316  0.00  0.00    -0.208 N 
ATOM      9  C   UNL d   1     -50.397  11.630  23.698  0.00  0.00     0.127 A 
ATOM     10  C   UNL d   1     -48.670  10.597  23.135  0.00  0.00     0.123 C 
ENDROOT
BRANCH   2  11
ATOM     11  N   UNL d   1     -47.107  12.982  22.886  0.00  0.00    -0.134 N 
ATOM     12  C   UNL d   1     -46.531  13.055  23.481  0.00  0.00     0.117 A 
ATOM     13  C   UNL d   1     -45.739  13.218  23.275  0.00  0.00     0.100 A 
ATOM     14  N   UNL d   1     -45.531  13.306  22.486  0.00  0.00    -0.300 N 
ATOM     15  C   UNL d   1     -46.106  13.233  21.892  0.00  0.00     0.100 A 
ATOM     16  C   UNL d   1     -46.889  13.072  22.087  0.00  0.00     0.117 A 
BRANCH  14  17
ATOM     17  C   UNL d   1     -44.746  13.467  22.271  0.00  0.00     0.080 C 
BRANCH  17  18
ATOM     18  C   UNL d   1     -44.058  13.245  21.873  0.00  0.00     0.018 A 
ATOM     19  C   UNL d   1     -43.825  12.448  21.852  0.00  0.00     0.002 A 
ATOM     20  C   UNL d   1     -43.141  12.237  21.455  0.00  0.00     0.000 A 
ATOM     21  C   UNL d   1     -42.677  12.804  21.073  0.00  0.00     0.000 A 
ATOM     22  C   UNL d   1     -42.910  13.601  21.094  0.00  0.00     0.000 A 
ATOM     23  C   UNL d   1     -43.604  13.821  21.496  0.00  0.00     0.002 A 
ENDBRANCH  17  18
ENDBRANCH  14  17
ENDBRANCH   2  11
BRANCH   6  24
ATOM     24  N   UNL d   1     -49.629  13.892  23.660  0.00  0.00    -0.226 NA
BRANCH  24  25
ATOM     25  C   UNL d   1     -49.988  14.330  23.066  0.00  0.00     0.083 A 
ATOM     26  C   UNL d   1     -49.678  15.061  22.848  0.00  0.00     0.021 A 
ATOM     27  C   UNL d   1     -50.041  15.507  22.246  0.00  0.00     0.031 A 
ATOM     28  C   UNL d   1     -50.710  15.221  21.865  0.00  0.00     0.140 A 
ATOM     29  C   UNL d   1     -51.028  14.484  22.080  0.00  0.00     0.031 A 
ATOM     30  F   UNL d   1     -51.063  15.665  21.272  0.00  0.00    -0.204 F 
ATOM     31  C   UNL d   1     -50.666  14.045  22.677  0.00  0.00     0.021 A 
ENDBRANCH  24  25
ENDBRANCH   6  24
TORSDOF 5
ENDMDL
MODEL 3
REMARK VINA RESULT:      -2.0      2.210      5.585
REMARK  5 active torsions:
REMARK  status: ('A' for Active; 'I' for Inactive)
REMARK    1  A    between atoms: N_9  and  C_2 
REMARK    2  A    between atoms: N_11  and  C_6 
REMARK    3  A    between atoms: C_16  and  N_11 
REMARK    4  A    between atoms: C_15  and  N_12 
REMARK    5  A    between atoms: C_24  and  C_15 
ROOT
ATOM      1  N   UNL d   1     -38.852  15.472  20.816  0.00  0.00    -0.041 NA
ATOM      2  C   UNL d   1     -39.304  15.300  20.200  0.00  0.00     0.738 A 
ATOM      3  C   UNL d   1     -39.178  15.589  21.517  0.00  0.00     0.187 A 
ATOM      4  N   UNL d   1     -40.085  15.245  20.287  0.00  0.00    -0.041 NA
ATOM      5  C   UNL d   1     -39.959  15.534  21.608  0.00  0.00     0.094 A 
ATOM      6  C   UNL d   1     -40.419  15.361  20.989  0.00  0.00     0.185 A 
ATOM      7  N   UNL d   1     -39.052  15.881  22.850  0.00  0.00    -0.162 NA
ATOM      8  N   UNL d   1     -38.719  15.762  22.136  0.00  0.00    -0.208 N 
ATOM      9  C   UNL d   1     -39.833  15.826  22.936  0.00  0.00     0.127 A 
ATOM     10  C   UNL d   1     -37.942  15.817  22.050  0.00  0.00     0.123 C 
ENDROOT
BRANCH   2  11
ATOM     11  N   UNL d   1     -38.962  15.175  19.454  0.00  0.00    -0.134 N 
ATOM     12  C   UNL d   1     -39.024  15.762  18.869  0.00  0.00     0.117 A 
ATOM     13  C   UNL d   1     -38.681  15.638  18.117  0.00  0.00     0.100 A 
ATOM     14  N   UNL d   1     -38.284  14.938  17.959  0.00  0.00    -0.300 N 
ATOM     15  C   UNL d   1     -38.222  14.351  18.544  0.00  0.00     0.100 A 
ATOM     16  C   UNL d   1     -38.557  14.467  19.286  0.00  0.00     0.117 A 
BRANCH  14  17
ATOM     17  C   UNL d   1     -37.940  14.806  17.216  0.00  0.00     0.080 C 
BRANCH  17  18
ATOM     18  C   UNL d   1     -37.998  14.506  16.449  0.00  0.00     0.018 A 
ATOM     19  C   UNL d   1     -38.103  13.691  16.325  0.00  0.00     0.002 A 
ATOM     20  C   UNL d   1     -38.159  13.404  15.560  0.00  0.00     0.000 A 
ATOM     21  C   UNL d   1     -38.115  13.910  14.908  0.00  0.00     0.000 A 
ATOM     22  C   UNL d   1     -38.010  14.725  15.033  0.00  0.00     0.000 A 
ATOM     23  C   UNL d   1     -37.952  15.023  15.808  0.00  0.00     0.002 A 
ENDBRANCH  17  18
ENDBRANCH  14  17
ENDBRANCH   2  11
BRANCH   6  24
ATOM     24  N   UNL d   1     -41.232  15.302  21.071  0.00  0.00    -0.226 NA
BRANCH  24  25
ATOM     25  C   UNL d   1     -41.598  14.568  21.054  0.00  0.00     0.083 A 
ATOM     26  C   UNL d   1     -41.610  14.097  21.729  0.00  0.00     0.021 A 
ATOM     27  C   UNL d   1     -41.981  13.352  21.714  0.00  0.00     0.031 A 
ATOM     28  C   UNL d   1     -42.338  13.081  21.025  0.00  0.00     0.140 A 
ATOM     29  C   UNL d   1     -42.330  13.551  20.340  0.00  0.00     0.031 A 
ATOM     30  F   UNL d   1     -42.703  12.345  21.017  0.00  0.00    -0.204 F 
ATOM     31  C   UNL d   1     -41.961  14.289  20.360  0.00  0.00     0.021 A 
ENDBRANCH  24  25
ENDBRANCH   6  24
TORSDOF 5
ENDMDL
MODEL 4
REMARK VINA RESULT:      -1.5      5.729      8.328
REMARK  5 active torsions:
REMARK  status: ('A' for Active; 'I' for Inactive)
REMARK    1  A    between atoms: N_9  and  C_2 
REMARK    2  A    between atoms: N_11  and  C_6 
REMARK    3  A    between atoms: C_16  and  N_11 
REMARK    4  A    between atoms: C_15  and  N_12 
REMARK    5  A    between atoms: C_24  and  C_15 
ROOT
ATOM      1  N   UNL d   1     -48.991  11.714  23.644  0.00  0.00    -0.041 NA
ATOM      2  C   UNL d   1     -48.324  12.121  23.668  0.00  0.00     0.738 A 
ATOM      3  C   UNL d   1     -49.677  12.091  23.638  0.00  0.00     0.187 A 
ATOM      4  N   UNL d   1     -48.342  12.909  23.685  0.00  0.00    -0.041 NA
ATOM      5  C   UNL d   1     -49.699  12.878  23.655  0.00  0.00     0.094 A 
ATOM      6  C   UNL d   1     -49.028  13.293  23.679  0.00  0.00     0.185 A 
ATOM      7  N   UNL d   1     -51.046  12.060  23.607  0.00  0.00    -0.162 NA
ATOM      8  N   UNL d   1     -50.348  11.676  23.614  0.00  0.00    -0.208 N 
ATOM      9  C   UNL d   1     -51.064  12.847  23.624  0.00  0.00     0.127 A 
ATOM     10  C   UNL d   1     -50.330  10.892  23.597  0.00  0.00     0.123 C 
ENDROOT
BRANCH   2  11
ATOM     11  N   UNL d   1     -47.593  11.726  23.676  0.00  0.00    -0.134 N 
ATOM     12  C   UNL d   1     -47.575  10.895  23.691  0.00  0.00     0.117 A 
ATOM     13  C   UNL d   1     -46.841  10.496  23.698  0.00  0.00     0.100 A 
ATOM     14  N   UNL d   1     -46.142  10.924  23.690  0.00  0.00    -0.300 N 
ATOM     15  C   UNL d   1     -46.161  11.755  23.676  0.00  0.00     0.100 A 
ATOM     16  C   UNL d   1     -46.879  12.154  23.668  0.00  0.00     0.117 A 
BRANCH  14  17
ATOM     17  C   UNL d   1     -45.409  10.536  23.698  0.00  0.00     0.080 C 
BRANCH  17  18
ATOM     18  C   UNL d   1     -44.618  10.508  23.464  0.00  0.00     0.018 A 
ATOM     19  C   UNL d   1     -44.227  11.201  23.222  0.00  0.00     0.002 A 
ATOM     20  C   UNL d   1     -43.443  11.163  22.991  0.00  0.00     0.000 A 
ATOM     21  C   UNL d   1     -43.030  10.447  22.995  0.00  0.00     0.000 A 
ATOM     22  C   UNL d   1     -43.420   9.754  23.237  0.00  0.00     0.000 A 
ATOM     23  C   UNL d   1     -44.218   9.787  23.472  0.00  0.00     0.002 A 
ENDBRANCH  17  18
ENDBRANCH  14  17
ENDBRANCH   2  11
BRANCH   6  24
ATOM     24  N   UNL d   1     -49.039  14.112  23.697  0.00  0.00    -0.226 NA
BRANCH  24  25
ATOM     25  C   UNL d   1     -48.808  14.545  23.039  0.00  0.00     0.083 A 
ATOM     26  C   UNL d   1     -48.088  14.943  23.038  0.00  0.00     0.021 A 
ATOM     27  C   UNL d   1     -47.852  15.382  22.372  0.00  0.00     0.031 A 
ATOM     28  C   UNL d   1     -48.336  15.422  21.709  0.00  0.00     0.140 A 
ATOM     29  C   UNL d   1     -49.065  15.023  21.702  0.00  0.00     0.031 A 
ATOM     30  F   UNL d   1     -48.098  15.857  21.055  0.00  0.00    -0.204 F 
ATOM     31  C   UNL d   1     -49.295  14.588  22.365  0.00  0.00     0.021 A 
ENDBRANCH  24  25
ENDBRANCH   6  24
TORSDOF 5
ENDMDL
MODEL 5
REMARK VINA RESULT:      -1.4      3.010      7.014
REMARK  5 active torsions:
REMARK  status: ('A' for Active; 'I' for Inactive)
REMARK    1  A    between atoms: N_9  and  C_2 
REMARK    2  A    between atoms: N_11  and  C_6 
REMARK    3  A    between atoms: C_16  and  N_11 
REMARK    4  A    between atoms: C_15  and  N_12 
REMARK    5  A    between atoms: C_24  and  C_15 
ROOT
ATOM      1  N   UNL d   1     -46.175  11.892  22.720  0.00  0.00    -0.041 NA
ATOM      2  C   UNL d   1     -45.818  12.587  22.687  0.00  0.00     0.738 A 
ATOM      3  C   UNL d   1     -46.885  11.834  23.044  0.00  0.00     0.187 A 
ATOM      4  N   UNL d   1     -46.172  13.228  22.978  0.00  0.00    -0.041 NA
ATOM      5  C   UNL d   1     -47.242  12.472  23.337  0.00  0.00     0.094 A 
ATOM      6  C   UNL d   1     -46.886  13.176  23.305  0.00  0.00     0.185 A 
ATOM      7  N   UNL d   1     -47.964  11.072  23.405  0.00  0.00    -0.162 NA
ATOM      8  N   UNL d   1     -47.241  11.130  23.076  0.00  0.00    -0.208 N 
ATOM      9  C   UNL d   1     -48.319  11.712  23.697  0.00  0.00     0.127 A 
ATOM     10  C   UNL d   1     -46.888  10.493  22.786  0.00  0.00     0.123 C 
ENDROOT
BRANCH   2  11
ATOM     11  N   UNL d   1     -45.064  12.654  22.344  0.00  0.00    -0.134 N 
ATOM     12  C   UNL d   1     -44.917  13.250  21.784  0.00  0.00     0.117 A 
ATOM     13  C   UNL d   1     -44.160  13.318  21.439  0.00  0.00     0.100 A 
ATOM     14  N   UNL d   1     -43.564  12.797  21.652  0.00  0.00    -0.300 N 
ATOM     15  C   UNL d   1     -43.711  12.201  22.212  0.00  0.00     0.100 A 
ATOM     16  C   UNL d   1     -44.454  12.128  22.557  0.00  0.00     0.117 A 
BRANCH  14  17
ATOM     17  C   UNL d   1     -42.809  12.857  21.315  0.00  0.00     0.080 C 
BRANCH  17  18
ATOM     18  C   UNL d   1     -42.162  13.322  21.098  0.00  0.00     0.018 A 
ATOM     19  C   UNL d   1     -41.570  13.501  21.653  0.00  0.00     0.002 A 
ATOM     20  C   UNL d   1     -40.932  13.962  21.429  0.00  0.00     0.000 A 
ATOM     21  C   UNL d   1     -40.866  14.255  20.659  0.00  0.00     0.000 A 
ATOM     22  C   UNL d   1     -41.457  14.075  20.104  0.00  0.00     0.000 A 
ATOM     23  C   UNL d   1     -42.108  13.606  20.326  0.00  0.00     0.002 A 
ENDBRANCH  17  18
ENDBRANCH  14  17
ENDBRANCH   2  11
BRANCH   6  24
ATOM     24  N   UNL d   1     -47.248  13.846  23.606  0.00  0.00    -0.226 NA
BRANCH  24  25
ATOM     25  C   UNL d   1     -47.745  14.297  23.133  0.00  0.00     0.083 A 
ATOM     26  C   UNL d   1     -47.428  14.801  22.565  0.00  0.00     0.021 A 
ATOM     27  C   UNL d   1     -47.930  15.259  22.084  0.00  0.00     0.031 A 
ATOM     28  C   UNL d   1     -48.745  15.212  22.174  0.00  0.00     0.140 A 
ATOM     29  C   UNL d   1     -49.072  14.706  22.745  0.00  0.00     0.031 A 
ATOM     30  F   UNL d   1     -49.235  15.667  21.696  0.00  0.00    -0.204 F 
ATOM     31  C   UNL d   1     -48.571  14.253  23.219  0.00  0.00     0.021 A 
ENDBRANCH  24  25
ENDBRANCH   6  24
TORSDOF 5
ENDMDL
MODEL 6
REMARK VINA RESULT:      -1.2      1.401      2.149
REMARK  5 active torsions:
REMARK  status: ('A' for Active; 'I' for Inactive)
REMARK    1  A    between atoms: N_9  and  C_2 
REMARK    2  A    between atoms: N_11  and  C_6 
REMARK    3  A    between atoms: C_16  and  N_11 
REMARK    4  A    between atoms: C_15  and  N_12 
REMARK    5  A    between atoms: C_24  and  C_15 
ROOT
ATOM      1  N   UNL d   1     -39.659  13.975  19.127  0.00  0.00    -0.041 NA
ATOM      2  C   UNL d   1     -40.318  14.386  19.225  0.00  0.00     0.738 A 
ATOM      3  C   UNL d   1     -39.137  14.200  18.590  0.00  0.00     0.187 A 
ATOM      4  N   UNL d   1     -40.454  15.025  18.784  0.00  0.00    -0.041 NA
ATOM      5  C   UNL d   1     -39.270  14.838  18.147  0.00  0.00     0.094 A 
ATOM      6  C   UNL d   1     -39.933  15.256  18.243  0.00  0.00     0.185 A 
ATOM      7  N   UNL d   1     -37.942  14.012  17.947  0.00  0.00    -0.162 NA
ATOM      8  N   UNL d   1     -38.473  13.782  18.494  0.00  0.00    -0.208 N 
ATOM      9  C   UNL d   1     -38.078  14.650  17.506  0.00  0.00     0.127 A 
ATOM     10  C   UNL d   1     -38.338  13.147  18.933  0.00  0.00     0.123 C 
ENDROOT
BRANCH   2  11
ATOM     11  N   UNL d   1     -40.875  14.151  19.794  0.00  0.00    -0.134 N 
ATOM     12  C   UNL d   1     -41.369  13.500  19.643  0.00  0.00     0.117 A 
ATOM     13  C   UNL d   1     -41.930  13.262  20.214  0.00  0.00     0.100 A 
ATOM     14  N   UNL d   1     -41.993  13.672  20.921  0.00  0.00    -0.300 N 
ATOM     15  C   UNL d   1     -41.500  14.323  21.072  0.00  0.00     0.100 A 
ATOM     16  C   UNL d   1     -40.945  14.563  20.515  0.00  0.00     0.117 A 
BRANCH  14  17
ATOM     17  C   UNL d   1     -42.547  13.444  21.494  0.00  0.00     0.080 C 
BRANCH  17  18
ATOM     18  C   UNL d   1     -43.261  13.075  21.686  0.00  0.00     0.018 A 
ATOM     19  C   UNL d   1     -43.978  13.487  21.609  0.00  0.00     0.002 A 
ATOM     20  C   UNL d   1     -44.681  13.113  21.802  0.00  0.00     0.000 A 
ATOM     21  C   UNL d   1     -44.690  12.332  22.072  0.00  0.00     0.000 A 
ATOM     22  C   UNL d   1     -43.972  11.920  22.149  0.00  0.00     0.000 A 
ATOM     23  C   UNL d   1     -43.255  12.295  21.954  0.00  0.00     0.002 A 
ENDBRANCH  17  18
ENDBRANCH  14  17
ENDBRANCH   2  11
BRANCH   6  24
ATOM     24  N   UNL d   1     -40.082  15.921  17.788  0.00  0.00    -0.226 NA
BRANCH  24  25
ATOM     25  C   UNL d   1     -40.690  15.919  17.237  0.00  0.00     0.083 A 
ATOM     26  C   UNL d   1     -41.474  15.922  17.486  0.00  0.00     0.021 A 
ATOM     27  C   UNL d   1     -42.092  15.920  16.929  0.00  0.00     0.031 A 
ATOM     28  C   UNL d   1     -41.923  15.915  16.125  0.00  0.00     0.140 A 
ATOM     29  C   UNL d   1     -41.134  15.912  15.865  0.00  0.00     0.031 A 
ATOM     30  F   UNL d   1     -42.537  15.913  15.580  0.00  0.00    -0.204 F 
ATOM     31  C   UNL d   1     -40.525  15.914  16.421  0.00  0.00     0.021 A 
ENDBRANCH  24  25
ENDBRANCH   6  24
TORSDOF 5
ENDMDL
MODEL 7
REMARK VINA RESULT:      -1.2      2.233      5.955
REMARK  5 active torsions:
REMARK  status: ('A' for Active; 'I' for Inactive)
REMARK    1  A    between atoms: N_9  and  C_2 
REMARK    2  A    between atoms: N_11  and  C_6 
REMARK    3  A    between atoms: C_16  and  N_11 
REMARK    4  A    between atoms: C_15  and  N_12 
REMARK    5  A    between atoms: C_24  and  C_15 
ROOT
ATOM      1  N   UNL d   1     -43.273  11.774  22.458  0.00  0.00    -0.041 NA
ATOM      2  C   UNL d   1     -43.463  12.360  21.975  0.00  0.00     0.738 A 
ATOM      3  C   UNL d   1     -43.836  11.362  22.811  0.00  0.00     0.187 A 
ATOM      4  N   UNL d   1     -44.221  12.533  21.844  0.00  0.00    -0.041 NA
ATOM      5  C   UNL d   1     -44.595  11.533  22.683  0.00  0.00     0.094 A 
ATOM      6  C   UNL d   1     -44.792  12.123  22.196  0.00  0.00     0.185 A 
ATOM      7  N   UNL d   1     -44.214  10.352  23.657  0.00  0.00    -0.162 NA
ATOM      8  N   UNL d   1     -43.639  10.772  23.298  0.00  0.00    -0.208 N 
ATOM      9  C   UNL d   1     -44.971  10.526  23.526  0.00  0.00     0.127 A 
ATOM     10  C   UNL d   1     -42.886  10.599  23.428  0.00  0.00     0.123 C 
ENDROOT
BRANCH   2  11
ATOM     11  N   UNL d   1     -42.869  12.800  21.598  0.00  0.00    -0.134 N 
ATOM     12  C   UNL d   1     -42.948  12.997  20.795  0.00  0.00     0.117 A 
ATOM     13  C   UNL d   1     -42.351  13.440  20.414  0.00  0.00     0.100 A 
ATOM     14  N   UNL d   1     -41.688  13.679  20.834  0.00  0.00    -0.300 N 
ATOM     15  C   UNL d   1     -41.609  13.483  21.637  0.00  0.00     0.100 A 
ATOM     16  C   UNL d   1     -42.193  13.047  22.018  0.00  0.00     0.117 A 
BRANCH  14  17
ATOM     17  C   UNL d   1     -41.090  14.119  20.465  0.00  0.00     0.080 C 
BRANCH  17  18
ATOM     18  C   UNL d   1     -40.841  14.592  19.836  0.00  0.00     0.018 A 
ATOM     19  C   UNL d   1     -40.651  14.248  19.103  0.00  0.00     0.002 A 
ATOM     20  C   UNL d   1     -40.404  14.725  18.485  0.00  0.00     0.000 A 
ATOM     21  C   UNL d   1     -40.340  15.544  18.576  0.00  0.00     0.000 A 
ATOM     22  C   UNL d   1     -40.530  15.887  19.308  0.00  0.00     0.000 A 
ATOM     23  C   UNL d   1     -40.781  15.408  19.940  0.00  0.00     0.002 A 
ENDBRANCH  17  18
ENDBRANCH  14  17
ENDBRANCH   2  11
BRANCH   6  24
ATOM     24  N   UNL d   1     -45.577  12.309  22.055  0.00  0.00    -0.226 NA
BRANCH  24  25
ATOM     25  C   UNL d   1     -45.913  12.975  22.396  0.00  0.00     0.083 A 
ATOM     26  C   UNL d   1     -46.389  12.902  23.064  0.00  0.00     0.021 A 
ATOM     27  C   UNL d   1     -46.731  13.576  23.412  0.00  0.00     0.031 A 
ATOM     28  C   UNL d   1     -46.595  14.320  23.092  0.00  0.00     0.140 A 
ATOM     29  C   UNL d   1     -46.116  14.403  22.418  0.00  0.00     0.031 A 
ATOM     30  F   UNL d   1     -46.935  14.982  23.439  0.00  0.00    -0.204 F 
ATOM     31  C   UNL d   1     -45.779  13.731  22.076  0.00  0.00     0.021 A 
ENDBRANCH  24  25
ENDBRANCH   6  24
TORSDOF 5
ENDMDL
MODEL 8
REMARK VINA RESULT:      -1.1      4.332      8.279
REMARK  5 active torsions:
REMARK  status: ('A' for Active; 'I' for Inactive)
REMARK    1  A    between atoms: N_9  and  C_2 
REMARK    2  A    between atoms: N_11  and  C_6 
REMARK    3  A    between atoms: C_16  and  N_11 
REMARK    4  A    between atoms: C_15  and  N_12 
REMARK    5  A    between atoms: C_24  and  C_15 
ROOT
ATOM      1  N   UNL d   1     -47.871  14.628  22.101  0.00  0.00    -0.041 NA
ATOM      2  C   UNL d   1     -47.674  14.000  22.525  0.00  0.00     0.738 A 
ATOM      3  C   UNL d   1     -48.575  14.955  22.195  0.00  0.00     0.187 A 
ATOM      4  N   UNL d   1     -48.183  13.699  23.045  0.00  0.00    -0.041 NA
ATOM      5  C   UNL d   1     -49.087  14.657  22.714  0.00  0.00     0.094 A 
ATOM      6  C   UNL d   1     -48.893  14.023  23.144  0.00  0.00     0.185 A 
ATOM      7  N   UNL d   1     -49.487  15.922  21.861  0.00  0.00    -0.162 NA
ATOM      8  N   UNL d   1     -48.769  15.589  21.765  0.00  0.00    -0.208 N 
ATOM      9  C   UNL d   1     -49.996  15.620  22.381  0.00  0.00     0.127 A 
ATOM     10  C   UNL d   1     -48.262  15.888  21.248  0.00  0.00     0.123 C 
ENDROOT
BRANCH   2  11
ATOM     11  N   UNL d   1     -46.927  13.649  22.429  0.00  0.00    -0.134 N 
ATOM     12  C   UNL d   1     -46.856  12.945  21.992  0.00  0.00     0.117 A 
ATOM     13  C   UNL d   1     -46.106  12.591  21.895  0.00  0.00     0.100 A 
ATOM     14  N   UNL d   1     -45.442  12.938  22.229  0.00  0.00    -0.300 N 
ATOM     15  C   UNL d   1     -45.514  13.641  22.665  0.00  0.00     0.100 A 
ATOM     16  C   UNL d   1     -46.249  13.996  22.765  0.00  0.00     0.117 A 
BRANCH  14  17
ATOM     17  C   UNL d   1     -44.694  12.593  22.138  0.00  0.00     0.080 C 
BRANCH  17  18
ATOM     18  C   UNL d   1     -43.923  12.636  21.846  0.00  0.00     0.018 A 
ATOM     19  C   UNL d   1     -43.309  12.222  22.223  0.00  0.00     0.002 A 
ATOM     20  C   UNL d   1     -42.547  12.270  21.927  0.00  0.00     0.000 A 
ATOM     21  C   UNL d   1     -42.377  12.724  21.257  0.00  0.00     0.000 A 
ATOM     22  C   UNL d   1     -42.991  13.138  20.880  0.00  0.00     0.000 A 
ATOM     23  C   UNL d   1     -43.767  13.092  21.177  0.00  0.00     0.002 A 
ENDBRANCH  17  18
ENDBRANCH  14  17
ENDBRANCH   2  11
BRANCH   6  24
ATOM     24  N   UNL d   1     -49.417  13.705  23.686  0.00  0.00    -0.226 NA
BRANCH  24  25
ATOM     25  C   UNL d   1     -49.747  12.964  23.558  0.00  0.00     0.083 A 
ATOM     26  C   UNL d   1     -49.302  12.285  23.695  0.00  0.00     0.021 A 
ATOM     27  C   UNL d   1     -49.634  11.533  23.566  0.00  0.00     0.031 A 
ATOM     28  C   UNL d   1     -50.409  11.463  23.302  0.00  0.00     0.140 A 
ATOM     29  C   UNL d   1     -50.864  12.143  23.162  0.00  0.00     0.031 A 
ATOM     30  F   UNL d   1     -50.731  10.718  23.177  0.00  0.00    -0.204 F 
ATOM     31  C   UNL d   1     -50.531  12.887  23.291  0.00  0.00     0.021 A 
ENDBRANCH  24  25
ENDBRANCH   6  24
TORSDOF 5
ENDMDL
MODEL 9
REMARK VINA RESULT:      -0.7      5.534      7.953
REMARK  5 active torsions:
REMARK  status: ('A' for Active; 'I' for Inactive)
REMARK    1  A    between atoms: N_9  and  C_2 
REMARK    2  A    between atoms: N_11  and  C_6 
REMARK    3  A    between atoms: C_16  and  N_11 
REMARK    4  A    between atoms: C_15  and  N_12 
REMARK    5  A    between atoms: C_24  and  C_15 
ROOT
ATOM      1  N   UNL d   1     -47.441  14.288  22.824  0.00  0.00    -0.041 NA
ATOM      2  C   UNL d   1     -47.478  13.513  22.922  0.00  0.00     0.738 A 
ATOM      3  C   UNL d   1     -48.100  14.709  22.794  0.00  0.00     0.187 A 
ATOM      4  N   UNL d   1     -48.178  13.157  22.989  0.00  0.00    -0.041 NA
ATOM      5  C   UNL d   1     -48.801  14.357  22.861  0.00  0.00     0.094 A 
ATOM      6  C   UNL d   1     -48.844  13.574  22.960  0.00  0.00     0.185 A 
ATOM      7  N   UNL d   1     -48.728  15.920  22.664  0.00  0.00    -0.162 NA
ATOM      8  N   UNL d   1     -48.057  15.492  22.695  0.00  0.00    -0.208 N 
ATOM      9  C   UNL d   1     -49.428  15.563  22.732  0.00  0.00     0.127 A 
ATOM     10  C   UNL d   1     -47.361  15.846  22.628  0.00  0.00     0.123 C 
ENDROOT
BRANCH   2  11
ATOM     11  N   UNL d   1     -46.781  13.062  22.955  0.00  0.00    -0.134 N 
ATOM     12  C   UNL d   1     -46.116  13.299  22.516  0.00  0.00     0.117 A 
ATOM     13  C   UNL d   1     -45.415  12.847  22.548  0.00  0.00     0.100 A 
ATOM     14  N   UNL d   1     -45.384  12.171  23.011  0.00  0.00    -0.300 N 
ATOM     15  C   UNL d   1     -46.049  11.935  23.450  0.00  0.00     0.100 A 
ATOM     16  C   UNL d   1     -46.743  12.375  23.423  0.00  0.00     0.117 A 
BRANCH  14  17
ATOM     17  C   UNL d   1     -44.692  11.716  23.049  0.00  0.00     0.080 C 
BRANCH  17  18
ATOM     18  C   UNL d   1     -44.315  11.012  23.260  0.00  0.00     0.018 A 
ATOM     19  C   UNL d   1     -44.761  10.331  23.423  0.00  0.00     0.002 A 
ATOM     20  C   UNL d   1     -44.378   9.638  23.630  0.00  0.00     0.000 A 
ATOM     21  C   UNL d   1     -43.554   9.602  23.681  0.00  0.00     0.000 A 
ATOM     22  C   UNL d   1     -43.108  10.284  23.517  0.00  0.00     0.000 A 
ATOM     23  C   UNL d   1     -43.492  10.992  23.306  0.00  0.00     0.002 A 
ENDBRANCH  17  18
ENDBRANCH  14  17
ENDBRANCH   2  11
BRANCH   6  24
ATOM     24  N   UNL d   1     -49.567  13.197  23.031  0.00  0.00    -0.226 NA
BRANCH  24  25
ATOM     25  C   UNL d   1     -49.937  12.881  22.370  0.00  0.00     0.083 A 
ATOM     26  C   UNL d   1     -50.467  13.337  21.936  0.00  0.00     0.021 A 
ATOM     27  C   UNL d   1     -50.843  13.019  21.265  0.00  0.00     0.031 A 
ATOM     28  C   UNL d   1     -50.688  12.246  21.031  0.00  0.00     0.140 A 
ATOM     29  C   UNL d   1     -50.154  11.780  21.464  0.00  0.00     0.031 A 
ATOM     30  F   UNL d   1     -51.062  11.938  20.369  0.00  0.00    -0.204 F 
ATOM     31  C   UNL d   1     -49.784  12.099  22.128  0.00  0.00     0.021 A 
ENDBRANCH  24  25
ENDBRANCH   6  24
TORSDOF 5
ENDMDL
