MODEL 1
REMARK VINA RESULT:      -2.7      0.000      0.000
REMARK  3 active torsions:
REMARK  status: ('A' for Active; 'I' for Inactive)
REMARK    1  A    between atoms: N_2  and  S_1 
REMARK    2  A    between atoms: C_5  and  S_1 
REMARK    3  A    between atoms: C_4  and  C_3 
ROOT
ATOM      1  N   UNL d   1      60.225  -9.305  35.215  0.00  0.00    -0.223 N 
ATOM      2  C   UNL d   1      60.188  -8.652  35.726  0.00  0.00     0.127 A 
ATOM      3  S   UNL d   1      60.749  -8.763  36.320  0.00  0.00    -0.065 SA
ATOM      4  C   UNL d   1      60.809  -9.817  35.495  0.00  0.00     0.099 A 
ATOM      5  C   UNL d   1      61.133  -9.484  36.177  0.00  0.00     0.057 A 
ENDROOT
BRANCH   1   6
ATOM      6  S   UNL d   1      59.756  -9.423  34.540  0.00  0.00     0.272 S 
ATOM      7  O   UNL d   1      59.042  -9.816  34.599  0.00  0.00    -0.200 OA
ATOM      8  O   UNL d   1      60.020  -9.139  33.813  0.00  0.00    -0.200 OA
BRANCH   6   9
ATOM      9  C   UNL d   1      59.321  -9.519  33.847  0.00  0.00     0.104 A 
ATOM     10  C   UNL d   1      58.512  -9.660  33.878  0.00  0.00     0.014 A 
ATOM     11  C   UNL d   1      58.081  -9.755  33.186  0.00  0.00     0.012 A 
ATOM     12  C   UNL d   1      58.462  -9.711  32.452  0.00  0.00     0.058 A 
ATOM     13  C   UNL d   1      59.282  -9.569  32.423  0.00  0.00     0.012 A 
ATOM     14 CL   UNL d   1      58.034  -9.806  31.757  0.00  0.00    -0.082 Cl
ATOM     15  C   UNL d   1      59.708  -9.474  33.121  0.00  0.00     0.014 A 
ENDBRANCH   6   9
ENDBRANCH   1   6
BRANCH   2  16
ATOM     16  C   UNL d   1      59.683  -8.010  35.654  0.00  0.00     0.123 A 
ATOM     17  O   UNL d   1      59.819  -7.332  35.203  0.00  0.00    -0.303 OA
ATOM     18  C   UNL d   1      59.171  -6.832  35.289  0.00  0.00     0.123 A 
ATOM     19  C   UNL d   1      58.629  -7.198  35.795  0.00  0.00     0.029 A 
ATOM     20  C   UNL d   1      58.948  -7.927  36.020  0.00  0.00     0.029 A 
ENDBRANCH   2  16
TORSDOF 3
ENDMDL
MODEL 2
REMARK VINA RESULT:      -2.5      9.198      9.995
REMARK  3 active torsions:
REMARK  status: ('A' for Active; 'I' for Inactive)
REMARK    1  A    between atoms: N_2  and  S_1 
REMARK    2  A    between atoms: C_5  and  S_1 
REMARK    3  A    between atoms: C_4  and  C_3 
ROOT
ATOM      1  N   UNL d   1      58.750  -1.272  29.366  0.00  0.00    -0.223 N 
ATOM      2  C   UNL d   1      59.546  -1.110  29.195  0.00  0.00     0.127 A 
ATOM      3  S   UNL d   1      59.800  -1.657  28.632  0.00  0.00    -0.065 SA
ATOM      4  C   UNL d   1      58.515  -1.918  28.909  0.00  0.00     0.099 A 
ATOM      5  C   UNL d   1      59.161  -2.157  28.455  0.00  0.00     0.057 A 
ENDROOT
BRANCH   1   6
ATOM      6  S   UNL d   1      58.272  -0.856  29.904  0.00  0.00     0.272 S 
ATOM      7  O   UNL d   1      57.958  -0.130  29.698  0.00  0.00    -0.200 OA
ATOM      8  O   UNL d   1      58.120  -1.185  30.643  0.00  0.00    -0.200 OA
BRANCH   6   9
ATOM      9  C   UNL d   1      57.804  -0.477  30.465  0.00  0.00     0.104 A 
ATOM     10  C   UNL d   1      57.574   0.306  30.356  0.00  0.00     0.014 A 
ATOM     11  C   UNL d   1      57.108   0.682  30.917  0.00  0.00     0.012 A 
ATOM     12  C   UNL d   1      56.866   0.273  31.596  0.00  0.00     0.058 A 
ATOM     13  C   UNL d   1      57.099  -0.520  31.704  0.00  0.00     0.012 A 
ATOM     14 CL   UNL d   1      56.399   0.646  32.159  0.00  0.00    -0.082 Cl
ATOM     15  C   UNL d   1      57.567  -0.890  31.137  0.00  0.00     0.014 A 
ENDBRANCH   6   9
ENDBRANCH   1   6
BRANCH   2  16
ATOM     16  C   UNL d   1      59.999  -0.513  29.526  0.00  0.00     0.123 A 
ATOM     17  O   UNL d   1      60.439  -0.565  30.223  0.00  0.00    -0.303 OA
ATOM     18  C   UNL d   1      60.807   0.161  30.348  0.00  0.00     0.123 A 
ATOM     19  C   UNL d   1      60.597   0.666  29.729  0.00  0.00     0.029 A 
ATOM     20  C   UNL d   1      60.097   0.247  29.221  0.00  0.00     0.029 A 
ENDBRANCH   2  16
TORSDOF 3
ENDMDL
MODEL 3
REMARK VINA RESULT:      -0.9      9.339     10.224
REMARK  3 active torsions:
REMARK  status: ('A' for Active; 'I' for Inactive)
REMARK    1  A    between atoms: N_2  and  S_1 
REMARK    2  A    between atoms: C_5  and  S_1 
REMARK    3  A    between atoms: C_4  and  C_3 
ROOT
ATOM      1  N   UNL d   1      58.221   0.073  29.744  0.00  0.00    -0.223 N 
ATOM      2  C   UNL d   1      59.048   0.109  29.687  0.00  0.00     0.127 A 
ATOM      3  S   UNL d   1      59.243   0.203  28.891  0.00  0.00    -0.065 SA
ATOM      4  C   UNL d   1      57.908   0.145  28.984  0.00  0.00     0.099 A 
ATOM      5  C   UNL d   1      58.537   0.225  28.456  0.00  0.00     0.057 A 
ENDROOT
BRANCH   1   6
ATOM      6  S   UNL d   1      57.784  -0.020  30.445  0.00  0.00     0.272 S 
ATOM      7  O   UNL d   1      57.854  -0.704  30.885  0.00  0.00    -0.200 OA
ATOM      8  O   UNL d   1      57.281   0.586  30.687  0.00  0.00    -0.200 OA
BRANCH   6   9
ATOM      9  C   UNL d   1      57.333  -0.072  31.132  0.00  0.00     0.104 A 
ATOM     10  C   UNL d   1      57.201  -0.801  31.489  0.00  0.00     0.014 A 
ATOM     11  C   UNL d   1      56.751  -0.850  32.175  0.00  0.00     0.012 A 
ATOM     12  C   UNL d   1      56.430  -0.164  32.509  0.00  0.00     0.058 A 
ATOM     13  C   UNL d   1      56.565   0.573  32.145  0.00  0.00     0.012 A 
ATOM     14 CL   UNL d   1      55.979  -0.210  33.195  0.00  0.00    -0.082 Cl
ATOM     15  C   UNL d   1      57.017   0.615  31.458  0.00  0.00     0.014 A 
ENDBRANCH   6   9
ENDBRANCH   1   6
BRANCH   2  16
ATOM     16  C   UNL d   1      59.578   0.060  30.311  0.00  0.00     0.123 A 
ATOM     17  O   UNL d   1      59.978  -0.619  30.558  0.00  0.00    -0.303 OA
ATOM     18  C   UNL d   1      60.451  -0.418  31.201  0.00  0.00     0.123 A 
ATOM     19  C   UNL d   1      60.348   0.387  31.355  0.00  0.00     0.029 A 
ATOM     20  C   UNL d   1      59.807   0.681  30.803  0.00  0.00     0.029 A 
ENDBRANCH   2  16
TORSDOF 3
ENDMDL
MODEL 4
REMARK VINA RESULT:      -0.7      7.997      9.011
REMARK  3 active torsions:
REMARK  status: ('A' for Active; 'I' for Inactive)
REMARK    1  A    between atoms: N_2  and  S_1 
REMARK    2  A    between atoms: C_5  and  S_1 
REMARK    3  A    between atoms: C_4  and  C_3 
ROOT
ATOM      1  N   UNL d   1      58.489  -3.281  28.857  0.00  0.00    -0.223 N 
ATOM      2  C   UNL d   1      59.172  -3.747  28.786  0.00  0.00     0.127 A 
ATOM      3  S   UNL d   1      58.940  -4.499  28.538  0.00  0.00    -0.065 SA
ATOM      4  C   UNL d   1      57.838  -3.746  28.652  0.00  0.00     0.099 A 
ATOM      5  C   UNL d   1      58.114  -4.498  28.455  0.00  0.00     0.057 A 
ENDROOT
BRANCH   1   6
ATOM      6  S   UNL d   1      58.464  -2.484  29.092  0.00  0.00     0.272 S 
ATOM      7  O   UNL d   1      58.572  -1.890  28.542  0.00  0.00    -0.200 OA
ATOM      8  O   UNL d   1      58.330  -2.304  29.885  0.00  0.00    -0.200 OA
BRANCH   6   9
ATOM      9  C   UNL d   1      58.432  -1.708  29.366  0.00  0.00     0.104 A 
ATOM     10  C   UNL d   1      58.110  -1.539  30.104  0.00  0.00     0.014 A 
ATOM     11  C   UNL d   1      58.079  -0.765  30.375  0.00  0.00     0.012 A 
ATOM     12  C   UNL d   1      58.373  -0.151  29.904  0.00  0.00     0.058 A 
ATOM     13  C   UNL d   1      58.699  -0.324  29.157  0.00  0.00     0.012 A 
ATOM     14 CL   UNL d   1      58.344   0.626  30.172  0.00  0.00    -0.082 Cl
ATOM     15  C   UNL d   1      58.726  -1.102  28.892  0.00  0.00     0.014 A 
ENDBRANCH   6   9
ENDBRANCH   1   6
BRANCH   2  16
ATOM     16  C   UNL d   1      59.940  -3.504  28.936  0.00  0.00     0.123 A 
ATOM     17  O   UNL d   1      60.398  -3.013  28.456  0.00  0.00    -0.303 OA
ATOM     18  C   UNL d   1      61.132  -2.914  28.816  0.00  0.00     0.123 A 
ATOM     19  C   UNL d   1      61.132  -3.342  29.523  0.00  0.00     0.029 A 
ATOM     20  C   UNL d   1      60.393  -3.707  29.595  0.00  0.00     0.029 A 
ENDBRANCH   2  16
TORSDOF 3
ENDMDL
