MODEL 1
REMARK VINA RESULT:      -0.5      0.000      0.000
REMARK  5 active torsions:
REMARK  status: ('A' for Active; 'I' for Inactive)
REMARK    1  A    between atoms: C_9  and  N_1 
REMARK    2  A    between atoms: C_6  and  C_2 
REMARK    3  A    between atoms: O_10  and  C_6 
REMARK    4  A    between atoms: C_13  and  C_9 
REMARK    5  A    between atoms: C_19  and  O_10 
ROOT
ATOM      1  N   UNL d   1      33.072  20.390 -22.146  0.00  0.00    -0.271 N 
ATOM      2  C   UNL d   1      32.895  19.636 -23.226  0.00  0.00     0.120 A 
ATOM      3  C   UNL d   1      32.961  19.614 -22.404  0.00  0.00     0.177 A 
ATOM      4  C   UNL d   1      33.074  20.885 -22.805  0.00  0.00     0.167 A 
ATOM      5  C   UNL d   1      32.966  20.422 -23.469  0.00  0.00     0.124 A 
ATOM      6  N   UNL d   1      33.162  21.702 -22.877  0.00  0.00    -0.225 NA
ATOM      7  N   UNL d   1      32.943  20.769 -24.215  0.00  0.00    -0.241 NA
ATOM      8  C   UNL d   1      33.142  22.053 -23.616  0.00  0.00     0.101 A 
ATOM      9  C   UNL d   1      33.032  21.583 -24.285  0.00  0.00     0.099 A 
ATOM     10  N   UNL d   1      32.923  18.942 -21.923  0.00  0.00    -0.128 N 
ATOM     11  C   UNL d   1      33.230  22.866 -23.682  0.00  0.00     0.021 A 
ATOM     12  C   UNL d   1      33.011  21.944 -25.032  0.00  0.00     0.021 A 
ATOM     13  C   UNL d   1      33.208  23.219 -24.433  0.00  0.00     0.002 A 
ATOM     14  C   UNL d   1      33.099  22.754 -25.094  0.00  0.00     0.002 A 
ENDROOT
BRANCH   2  15
ATOM     15  C   UNL d   1      32.778  18.977 -23.721  0.00  0.00     0.300 C 
ATOM     16  O   UNL d   1      33.232  18.883 -24.389  0.00  0.00    -0.259 OA
BRANCH  15  17
ATOM     17  O   UNL d   1      32.194  18.417 -23.527  0.00  0.00    -0.303 OA
BRANCH  17  18
ATOM     18  C   UNL d   1      32.046  17.794 -24.046  0.00  0.00     0.102 C 
ATOM     19  C   UNL d   1      32.667  17.357 -23.705  0.00  0.00     0.030 C 
ATOM     20  C   UNL d   1      31.426  18.223 -24.389  0.00  0.00     0.030 C 
ATOM     21  C   UNL d   1      31.893  17.167 -24.571  0.00  0.00     0.030 C 
ENDBRANCH  17  18
ENDBRANCH  15  17
ENDBRANCH   2  15
BRANCH   1  22
ATOM     22  C   UNL d   1      33.164  20.627 -21.363  0.00  0.00     0.108 C 
BRANCH  22  23
ATOM     23  C   UNL d   1      32.550  21.029 -20.977  0.00  0.00     0.118 A 
ATOM     24  O   UNL d   1      31.748  20.977 -21.164  0.00  0.00    -0.304 OA
ATOM     25  C   UNL d   1      31.336  21.469 -20.637  0.00  0.00     0.123 A 
ATOM     26  C   UNL d   1      31.888  21.813 -20.139  0.00  0.00     0.029 A 
ATOM     27  C   UNL d   1      32.634  21.545 -20.344  0.00  0.00     0.028 A 
ENDBRANCH  22  23
ENDBRANCH   1  22
TORSDOF 5
ENDMDL
MODEL 2
REMARK VINA RESULT:       0.3      3.189      4.462
REMARK  5 active torsions:
REMARK  status: ('A' for Active; 'I' for Inactive)
REMARK    1  A    between atoms: C_9  and  N_1 
REMARK    2  A    between atoms: C_6  and  C_2 
REMARK    3  A    between atoms: O_10  and  C_6 
REMARK    4  A    between atoms: C_13  and  C_9 
REMARK    5  A    between atoms: C_19  and  O_10 
ROOT
ATOM      1  N   UNL d   1      31.574  16.441 -24.217  0.00  0.00    -0.271 N 
ATOM      2  C   UNL d   1      30.435  17.115 -24.338  0.00  0.00     0.120 A 
ATOM      3  C   UNL d   1      30.754  16.372 -24.172  0.00  0.00     0.177 A 
ATOM      4  C   UNL d   1      31.760  17.221 -24.409  0.00  0.00     0.167 A 
ATOM      5  C   UNL d   1      31.060  17.636 -24.484  0.00  0.00     0.124 A 
ATOM      6  N   UNL d   1      32.483  17.601 -24.524  0.00  0.00    -0.225 NA
ATOM      7  N   UNL d   1      31.072  18.437 -24.675  0.00  0.00    -0.241 NA
ATOM      8  C   UNL d   1      32.502  18.396 -24.715  0.00  0.00     0.101 A 
ATOM      9  C   UNL d   1      31.794  18.812 -24.790  0.00  0.00     0.099 A 
ATOM     10  N   UNL d   1      30.331  15.683 -23.993  0.00  0.00    -0.128 N 
ATOM     11  C   UNL d   1      33.224  18.769 -24.829  0.00  0.00     0.021 A 
ATOM     12  C   UNL d   1      31.819  19.620 -24.983  0.00  0.00     0.021 A 
ATOM     13  C   UNL d   1      33.241  19.577 -25.022  0.00  0.00     0.002 A 
ATOM     14  C   UNL d   1      32.540  19.988 -25.096  0.00  0.00     0.002 A 
ENDROOT
BRANCH   2  15
ATOM     15  C   UNL d   1      29.624  17.303 -24.355  0.00  0.00     0.300 C 
ATOM     16  O   UNL d   1      29.224  17.317 -25.063  0.00  0.00    -0.259 OA
BRANCH  15  17
ATOM     17  O   UNL d   1      29.228  17.476 -23.644  0.00  0.00    -0.303 OA
BRANCH  17  18
ATOM     18  C   UNL d   1      28.415  17.605 -23.658  0.00  0.00     0.102 C 
ATOM     19  C   UNL d   1      28.539  18.386 -23.920  0.00  0.00     0.030 C 
ATOM     20  C   UNL d   1      28.284  16.830 -23.398  0.00  0.00     0.030 C 
ATOM     21  C   UNL d   1      27.592  17.732 -23.671  0.00  0.00     0.030 C 
ENDBRANCH  17  18
ENDBRANCH  15  17
ENDBRANCH   2  15
BRANCH   1  22
ATOM     22  C   UNL d   1      32.115  15.833 -24.090  0.00  0.00     0.108 C 
BRANCH  22  23
ATOM     23  C   UNL d   1      32.409  15.693 -23.328  0.00  0.00     0.118 A 
ATOM     24  O   UNL d   1      31.957  15.625 -22.641  0.00  0.00    -0.304 OA
ATOM     25  C   UNL d   1      32.479  15.487 -22.010  0.00  0.00     0.123 A 
ATOM     26  C   UNL d   1      33.238  15.474 -22.318  0.00  0.00     0.029 A 
ATOM     27  C   UNL d   1      33.200  15.600 -23.126  0.00  0.00     0.028 A 
ENDBRANCH  22  23
ENDBRANCH   1  22
TORSDOF 5
ENDMDL
MODEL 3
REMARK VINA RESULT:       1.5      1.073      3.879
REMARK  5 active torsions:
REMARK  status: ('A' for Active; 'I' for Inactive)
REMARK    1  A    between atoms: C_9  and  N_1 
REMARK    2  A    between atoms: C_6  and  C_2 
REMARK    3  A    between atoms: O_10  and  C_6 
REMARK    4  A    between atoms: C_13  and  C_9 
REMARK    5  A    between atoms: C_19  and  O_10 
ROOT
ATOM      1  N   UNL d   1      33.233  19.488 -23.470  0.00  0.00    -0.271 N 
ATOM      2  C   UNL d   1      33.223  20.770 -23.823  0.00  0.00     0.120 A 
ATOM      3  C   UNL d   1      33.227  19.999 -24.118  0.00  0.00     0.177 A 
ATOM      4  C   UNL d   1      33.233  19.942 -22.782  0.00  0.00     0.167 A 
ATOM      5  C   UNL d   1      33.227  20.730 -22.998  0.00  0.00     0.124 A 
ATOM      6  N   UNL d   1      33.237  19.730 -21.985  0.00  0.00    -0.225 NA
ATOM      7  N   UNL d   1      33.226  21.317 -22.422  0.00  0.00    -0.241 NA
ATOM      8  C   UNL d   1      33.236  20.308 -21.407  0.00  0.00     0.101 A 
ATOM      9  C   UNL d   1      33.230  21.103 -21.629  0.00  0.00     0.099 A 
ATOM     10  N   UNL d   1      33.225  19.775 -24.915  0.00  0.00    -0.128 N 
ATOM     11  C   UNL d   1      33.241  20.092 -20.615  0.00  0.00     0.021 A 
ATOM     12  C   UNL d   1      33.229  21.686 -21.037  0.00  0.00     0.021 A 
ATOM     13  C   UNL d   1      33.240  20.682 -20.030  0.00  0.00     0.002 A 
ATOM     14  C   UNL d   1      33.234  21.467 -20.250  0.00  0.00     0.002 A 
ENDROOT
BRANCH   2  15
ATOM     15  C   UNL d   1      33.217  21.464 -24.282  0.00  0.00     0.300 C 
ATOM     16  O   UNL d   1      33.239  21.418 -25.094  0.00  0.00    -0.259 OA
BRANCH  15  17
ATOM     17  O   UNL d   1      33.188  22.205 -23.904  0.00  0.00    -0.303 OA
BRANCH  17  18
ATOM     18  C   UNL d   1      33.043  22.880 -24.353  0.00  0.00     0.102 C 
ATOM     19  C   UNL d   1      33.183  22.451 -25.052  0.00  0.00     0.030 C 
ATOM     20  C   UNL d   1      32.901  23.314 -23.662  0.00  0.00     0.030 C 
ATOM     21  C   UNL d   1      32.894  23.565 -24.803  0.00  0.00     0.030 C 
ENDBRANCH  17  18
ENDBRANCH  15  17
ENDBRANCH   2  15
BRANCH   1  22
ATOM     22  C   UNL d   1      33.238  18.666 -23.507  0.00  0.00     0.108 C 
BRANCH  22  23
ATOM     23  C   UNL d   1      32.545  18.257 -23.710  0.00  0.00     0.118 A 
ATOM     24  O   UNL d   1      31.861  18.210 -23.252  0.00  0.00    -0.304 OA
ATOM     25  C   UNL d   1      31.312  17.747 -23.668  0.00  0.00     0.123 A 
ATOM     26  C   UNL d   1      31.666  17.518 -24.370  0.00  0.00     0.029 A 
ATOM     27  C   UNL d   1      32.423  17.829 -24.400  0.00  0.00     0.028 A 
ENDBRANCH  22  23
ENDBRANCH   1  22
TORSDOF 5
ENDMDL
