MODEL 1
REMARK VINA RESULT:      -4.7      0.000      0.000
REMARK  7 active torsions:
REMARK  status: ('A' for Active; 'I' for Inactive)
REMARK    1  A    between atoms: C_2  and  N_1 
REMARK    2  A    between atoms: C_4  and  O_6 
REMARK    3  A    between atoms: C_11  and  C_4 
REMARK    4  A    between atoms: O_6  and  C_12 
REMARK    5  A    between atoms: O_10  and  C_11 
REMARK    6  A    between atoms: C_13  and  O_10 
REMARK    7  A    between atoms: C_21  and  C_16 
ROOT
ATOM      1  C   UNL d   1      57.324  -0.628  30.795  0.00  0.00     0.325 C 
ATOM      2  O   UNL d   1      57.393  -1.456  30.792  0.00  0.00    -0.256 OA
ENDROOT
BRANCH   1   3
ATOM      3  O   UNL d   1      57.540  -0.188  30.130  0.00  0.00    -0.272 OA
BRANCH   3   4
ATOM      4  C   UNL d   1      58.321  -0.202  29.863  0.00  0.00     0.103 A 
ATOM      5  C   UNL d   1      58.850   0.381  30.102  0.00  0.00     0.026 A 
ATOM      6  C   UNL d   1      59.643   0.351  29.820  0.00  0.00     0.026 A 
ATOM      7  C   UNL d   1      59.896  -0.244  29.315  0.00  0.00     0.127 A 
ATOM      8  C   UNL d   1      59.347  -0.845  29.070  0.00  0.00     0.026 A 
ATOM      9  C   UNL d   1      58.561  -0.803  29.358  0.00  0.00     0.026 A 
BRANCH   7  10
ATOM     10  N   UNL d   1      60.675  -0.258  29.048  0.00  0.00    -0.114 N 
ATOM     11  O   UNL d   1      61.127  -0.950  28.968  0.00  0.00    -0.532 OA
ATOM     12  O   UNL d   1      61.104   0.401  28.830  0.00  0.00    -0.532 OA
ENDBRANCH   7  10
ENDBRANCH   3   4
ENDBRANCH   1   3
BRANCH   1  13
ATOM     13  C   UNL d   1      57.039  -0.244  31.467  0.00  0.00     0.191 C 
BRANCH  13  14
ATOM     14  O   UNL d   1      56.886  -0.675  32.156  0.00  0.00    -0.300 OA
BRANCH  14  15
ATOM     15  C   UNL d   1      56.418  -0.330  32.779  0.00  0.00     0.100 A 
ATOM     16  C   UNL d   1      55.635  -0.560  32.885  0.00  0.00     0.025 A 
ATOM     17  C   UNL d   1      55.183  -0.226  33.488  0.00  0.00     0.002 A 
ATOM     18  C   UNL d   1      55.512   0.339  33.986  0.00  0.00     0.000 A 
ATOM     19  C   UNL d   1      56.298   0.572  33.883  0.00  0.00     0.002 A 
ATOM     20  C   UNL d   1      56.751   0.238  33.280  0.00  0.00     0.025 A 
BRANCH  18  21
ATOM     21  C   UNL d   1      55.047   0.682  34.607  0.00  0.00     0.000 C 
ATOM     22  C   UNL d   1      54.222   0.642  34.575  0.00  0.00     0.000 C 
ENDBRANCH  18  21
ENDBRANCH  14  15
ENDBRANCH  13  14
ENDBRANCH   1  13
TORSDOF 7
ENDMDL
MODEL 2
REMARK VINA RESULT:      -2.3      0.970      1.246
REMARK  7 active torsions:
REMARK  status: ('A' for Active; 'I' for Inactive)
REMARK    1  A    between atoms: C_2  and  N_1 
REMARK    2  A    between atoms: C_4  and  O_6 
REMARK    3  A    between atoms: C_11  and  C_4 
REMARK    4  A    between atoms: O_6  and  C_12 
REMARK    5  A    between atoms: O_10  and  C_11 
REMARK    6  A    between atoms: C_13  and  O_10 
REMARK    7  A    between atoms: C_21  and  C_16 
ROOT
ATOM      1  C   UNL d   1      57.469  -0.850  30.678  0.00  0.00     0.325 C 
ATOM      2  O   UNL d   1      57.458  -1.629  30.970  0.00  0.00    -0.256 OA
ENDROOT
BRANCH   1   3
ATOM      3  O   UNL d   1      57.767  -0.691  29.924  0.00  0.00    -0.272 OA
BRANCH   3   4
ATOM      4  C   UNL d   1      58.446  -1.077  29.660  0.00  0.00     0.103 A 
ATOM      5  C   UNL d   1      59.165  -0.679  29.636  0.00  0.00     0.026 A 
ATOM      6  C   UNL d   1      59.849  -1.088  29.364  0.00  0.00     0.026 A 
ATOM      7  C   UNL d   1      59.811  -1.873  29.124  0.00  0.00     0.127 A 
ATOM      8  C   UNL d   1      59.067  -2.282  29.150  0.00  0.00     0.026 A 
ATOM      9  C   UNL d   1      58.395  -1.862  29.423  0.00  0.00     0.026 A 
BRANCH   7  10
ATOM     10  N   UNL d   1      60.490  -2.258  28.860  0.00  0.00    -0.114 N 
ATOM     11  O   UNL d   1      61.115  -1.882  28.465  0.00  0.00    -0.532 OA
ATOM     12  O   UNL d   1      60.636  -3.056  28.952  0.00  0.00    -0.532 OA
ENDBRANCH   7  10
ENDBRANCH   3   4
ENDBRANCH   1   3
BRANCH   1  13
ATOM     13  C   UNL d   1      57.181  -0.234  31.145  0.00  0.00     0.191 C 
BRANCH  13  14
ATOM     14  O   UNL d   1      57.293  -0.249  31.964  0.00  0.00    -0.300 OA
BRANCH  14  15
ATOM     15  C   UNL d   1      56.661  -0.013  32.485  0.00  0.00     0.100 A 
ATOM     16  C   UNL d   1      56.044   0.451  32.202  0.00  0.00     0.025 A 
ATOM     17  C   UNL d   1      55.432   0.680  32.706  0.00  0.00     0.002 A 
ATOM     18  C   UNL d   1      55.438   0.445  33.494  0.00  0.00     0.000 A 
ATOM     19  C   UNL d   1      56.057  -0.021  33.781  0.00  0.00     0.002 A 
ATOM     20  C   UNL d   1      56.668  -0.250  33.277  0.00  0.00     0.025 A 
BRANCH  18  21
ATOM     21  C   UNL d   1      54.809   0.681  34.012  0.00  0.00     0.000 C 
ATOM     22  C   UNL d   1      54.843   0.490  34.816  0.00  0.00     0.000 C 
ENDBRANCH  18  21
ENDBRANCH  14  15
ENDBRANCH  13  14
ENDBRANCH   1  13
TORSDOF 7
ENDMDL
