MODEL 1
REMARK VINA RESULT:      16.6      0.000      0.000
REMARK  1 active torsions:
REMARK  status: ('A' for Active; 'I' for Inactive)
REMARK    1  A    between atoms: C_2  and  C_1 
REMARK       I    between atoms: N_6  and  C_2 
ROOT
ATOM      1  C   UNL d   1     -51.386  25.258  33.321  0.00  0.00     0.057 A 
ATOM      2  C   UNL d   1     -51.063  24.500  33.325  0.00  0.00     0.005 A 
ATOM      3  C   UNL d   1     -51.564  23.835  33.325  0.00  0.00     0.001 A 
ATOM      4  C   UNL d   1     -52.206  25.357  33.318  0.00  0.00     0.011 A 
ATOM      5  C   UNL d   1     -52.380  23.939  33.322  0.00  0.00     0.006 A 
ATOM      6  C   UNL d   1     -52.705  24.695  33.318  0.00  0.00     0.035 A 
ATOM      7 BR   UNL d   1     -53.520  24.799  33.315  0.00  0.00    -0.049 Br
ATOM      8  C   UNL d   1     -50.300  24.191  33.328  0.00  0.00     0.000 C 
ATOM      9  C   UNL d   1     -51.055  23.188  33.328  0.00  0.00     0.000 C 
ATOM     10  C   UNL d   1     -52.880  23.280  33.322  0.00  0.00     0.001 C 
ENDROOT
BRANCH   1  11
ATOM     11  C   UNL d   1     -50.891  25.918  33.321  0.00  0.00     0.265 C 
ATOM     12  N   UNL d   1     -51.215  26.677  33.317  0.00  0.00    -0.272 N 
ATOM     13  C   UNL d   1     -52.016  26.862  33.312  0.00  0.00     0.083 A 
ATOM     14  C   UNL d   1     -50.790  27.386  33.316  0.00  0.00     0.083 A 
ATOM     15  C   UNL d   1     -52.091  27.682  33.308  0.00  0.00     0.021 A 
ATOM     16  C   UNL d   1     -51.332  28.006  33.311  0.00  0.00     0.021 A 
ATOM     17  O   UNL d   1     -50.073  25.820  33.326  0.00  0.00    -0.267 OA
ENDBRANCH   1  11
TORSDOF 1
ENDMDL
