MODEL 1
REMARK VINA RESULT:      -7.5      0.000      0.000
REMARK  5 active torsions:
REMARK  status: ('A' for Active; 'I' for Inactive)
REMARK    1  A    between atoms: N_2  and  C_1 
REMARK    2  A    between atoms: N_3  and  C_1 
REMARK       I    between atoms: C_4  and  N_2 
REMARK    3  A    between atoms: C_7  and  N_3 
REMARK    4  A    between atoms: C_8  and  C_4 
REMARK    5  A    between atoms: C_9  and  C_8 
ROOT
ATOM      1  C   UNL d   1      52.384  34.098  53.283  0.00  0.00     0.209 C 
ATOM      2  S   UNL d   1      52.472  34.348  52.485  0.00  0.00    -0.038 SA
ENDROOT
BRANCH   1   3
ATOM      3  N   UNL d   1      51.781  33.623  53.476  0.00  0.00    -0.180 NA
ATOM      4  C   UNL d   1      51.039  33.743  53.178  0.00  0.00     0.281 C 
ATOM      5  O   UNL d   1      50.406  33.239  53.385  0.00  0.00    -0.265 OA
BRANCH   4   6
ATOM      6  C   UNL d   1      50.896  34.363  52.666  0.00  0.00     0.063 C 
BRANCH   6   7
ATOM      7  C   UNL d   1      50.123  34.550  52.445  0.00  0.00     0.005 A 
ATOM      8  C   UNL d   1      49.849  34.316  51.708  0.00  0.00     0.000 A 
ATOM      9  C   UNL d   1      49.069  34.499  51.469  0.00  0.00     0.000 A 
ATOM     10  C   UNL d   1      48.581  34.917  51.989  0.00  0.00     0.000 A 
ATOM     11  C   UNL d   1      48.849  35.155  52.729  0.00  0.00     0.000 A 
ATOM     12  C   UNL d   1      49.634  34.974  52.974  0.00  0.00     0.000 A 
ENDBRANCH   6   7
ENDBRANCH   4   6
ENDBRANCH   1   3
BRANCH   1  13
ATOM     13  N   UNL d   1      52.916  34.348  53.837  0.00  0.00    -0.281 N 
ATOM     14  C   UNL d   1      52.932  35.165  54.180  0.00  0.00     0.101 C 
BRANCH  13  15
ATOM     15  C   UNL d   1      53.481  33.854  54.117  0.00  0.00     0.066 A 
ATOM     16  C   UNL d   1      53.952  33.397  53.617  0.00  0.00     0.018 A 
ATOM     17  C   UNL d   1      54.529  32.893  53.917  0.00  0.00     0.002 A 
ATOM     18  C   UNL d   1      54.650  32.834  54.750  0.00  0.00     0.000 A 
ATOM     19  C   UNL d   1      54.178  33.291  55.250  0.00  0.00     0.002 A 
ATOM     20  C   UNL d   1      53.595  33.800  54.929  0.00  0.00     0.018 A 
ENDBRANCH  13  15
ENDBRANCH   1  13
TORSDOF 5
ENDMDL
MODEL 2
REMARK VINA RESULT:      -7.2      2.737      4.085
REMARK  5 active torsions:
REMARK  status: ('A' for Active; 'I' for Inactive)
REMARK    1  A    between atoms: N_2  and  C_1 
REMARK    2  A    between atoms: N_3  and  C_1 
REMARK       I    between atoms: C_4  and  N_2 
REMARK    3  A    between atoms: C_7  and  N_3 
REMARK    4  A    between atoms: C_8  and  C_4 
REMARK    5  A    between atoms: C_9  and  C_8 
ROOT
ATOM      1  C   UNL d   1      53.846  32.970  53.757  0.00  0.00     0.209 C 
ATOM      2  S   UNL d   1      54.523  32.698  53.338  0.00  0.00    -0.038 SA
ENDROOT
BRANCH   1   3
ATOM      3  N   UNL d   1      53.127  32.739  53.522  0.00  0.00    -0.180 NA
ATOM      4  C   UNL d   1      52.959  31.960  53.384  0.00  0.00     0.281 C 
ATOM      5  O   UNL d   1      52.198  31.721  53.136  0.00  0.00    -0.265 OA
BRANCH   4   6
ATOM      6  C   UNL d   1      53.535  31.391  53.486  0.00  0.00     0.063 C 
BRANCH   6   7
ATOM      7  C   UNL d   1      53.329  30.594  53.534  0.00  0.00     0.005 A 
ATOM      8  C   UNL d   1      53.432  30.194  54.244  0.00  0.00     0.000 A 
ATOM      9  C   UNL d   1      53.228  29.386  54.309  0.00  0.00     0.000 A 
ATOM     10  C   UNL d   1      52.920  28.999  53.647  0.00  0.00     0.000 A 
ATOM     11  C   UNL d   1      52.814  29.392  52.933  0.00  0.00     0.000 A 
ATOM     12  C   UNL d   1      53.018  30.206  52.862  0.00  0.00     0.000 A 
ENDBRANCH   6   7
ENDBRANCH   4   6
ENDBRANCH   1   3
BRANCH   1  13
ATOM     13  N   UNL d   1      53.944  33.462  54.390  0.00  0.00    -0.281 N 
ATOM     14  C   UNL d   1      54.408  33.253  55.116  0.00  0.00     0.101 C 
BRANCH  13  15
ATOM     15  C   UNL d   1      53.615  34.192  54.399  0.00  0.00     0.066 A 
ATOM     16  C   UNL d   1      53.626  34.687  53.739  0.00  0.00     0.018 A 
ATOM     17  C   UNL d   1      53.285  35.434  53.760  0.00  0.00     0.002 A 
ATOM     18  C   UNL d   1      52.914  35.712  54.465  0.00  0.00     0.000 A 
ATOM     19  C   UNL d   1      52.903  35.217  55.126  0.00  0.00     0.002 A 
ATOM     20  C   UNL d   1      53.255  34.458  55.089  0.00  0.00     0.018 A 
ENDBRANCH  13  15
ENDBRANCH   1  13
TORSDOF 5
ENDMDL
MODEL 3
REMARK VINA RESULT:      -7.1      2.446      4.659
REMARK  5 active torsions:
REMARK  status: ('A' for Active; 'I' for Inactive)
REMARK    1  A    between atoms: N_2  and  C_1 
REMARK    2  A    between atoms: N_3  and  C_1 
REMARK       I    between atoms: C_4  and  N_2 
REMARK    3  A    between atoms: C_7  and  N_3 
REMARK    4  A    between atoms: C_8  and  C_4 
REMARK    5  A    between atoms: C_9  and  C_8 
ROOT
ATOM      1  C   UNL d   1      53.046  32.512  53.241  0.00  0.00     0.209 C 
ATOM      2  S   UNL d   1      53.886  32.484  53.264  0.00  0.00    -0.038 SA
ENDROOT
BRANCH   1   3
ATOM      3  N   UNL d   1      52.648  31.915  52.905  0.00  0.00    -0.180 NA
ATOM      4  C   UNL d   1      52.803  31.146  53.097  0.00  0.00     0.281 C 
ATOM      5  O   UNL d   1      52.380  30.520  52.740  0.00  0.00    -0.265 OA
BRANCH   4   6
ATOM      6  C   UNL d   1      53.380  30.966  53.645  0.00  0.00     0.063 C 
BRANCH   6   7
ATOM      7  C   UNL d   1      53.415  30.214  53.982  0.00  0.00     0.005 A 
ATOM      8  C   UNL d   1      53.035  30.076  54.697  0.00  0.00     0.000 A 
ATOM      9  C   UNL d   1      53.061  29.319  55.051  0.00  0.00     0.000 A 
ATOM     10  C   UNL d   1      53.474  28.714  54.668  0.00  0.00     0.000 A 
ATOM     11  C   UNL d   1      53.857  28.845  53.952  0.00  0.00     0.000 A 
ATOM     12  C   UNL d   1      53.834  29.605  53.591  0.00  0.00     0.000 A 
ENDBRANCH   6   7
ENDBRANCH   4   6
ENDBRANCH   1   3
BRANCH   1  13
ATOM     13  N   UNL d   1      52.662  33.146  53.561  0.00  0.00    -0.281 N 
ATOM     14  C   UNL d   1      52.833  33.478  54.365  0.00  0.00     0.101 C 
BRANCH  13  15
ATOM     15  C   UNL d   1      52.084  33.526  53.156  0.00  0.00     0.066 A 
ATOM     16  C   UNL d   1      52.241  33.966  52.476  0.00  0.00     0.018 A 
ATOM     17  C   UNL d   1      51.640  34.351  52.069  0.00  0.00     0.002 A 
ATOM     18  C   UNL d   1      50.843  34.302  52.342  0.00  0.00     0.000 A 
ATOM     19  C   UNL d   1      50.686  33.861  53.022  0.00  0.00     0.002 A 
ATOM     20  C   UNL d   1      51.310  33.474  53.426  0.00  0.00     0.018 A 
ENDBRANCH  13  15
ENDBRANCH   1  13
TORSDOF 5
ENDMDL
MODEL 4
REMARK VINA RESULT:      -7.0      0.995      4.554
REMARK  5 active torsions:
REMARK  status: ('A' for Active; 'I' for Inactive)
REMARK    1  A    between atoms: N_2  and  C_1 
REMARK    2  A    between atoms: N_3  and  C_1 
REMARK       I    between atoms: C_4  and  N_2 
REMARK    3  A    between atoms: C_7  and  N_3 
REMARK    4  A    between atoms: C_8  and  C_4 
REMARK    5  A    between atoms: C_9  and  C_8 
ROOT
ATOM      1  C   UNL d   1      51.684  34.243  52.966  0.00  0.00     0.209 C 
ATOM      2  S   UNL d   1      52.208  34.070  52.331  0.00  0.00    -0.038 SA
ENDROOT
BRANCH   1   3
ATOM      3  N   UNL d   1      51.918  34.738  53.538  0.00  0.00    -0.180 NA
ATOM      4  C   UNL d   1      52.611  34.622  53.938  0.00  0.00     0.281 C 
ATOM      5  O   UNL d   1      52.853  35.147  54.540  0.00  0.00    -0.265 OA
BRANCH   4   6
ATOM      6  C   UNL d   1      53.088  33.984  53.759  0.00  0.00     0.063 C 
BRANCH   6   7
ATOM      7  C   UNL d   1      53.700  33.766  54.267  0.00  0.00     0.005 A 
ATOM      8  C   UNL d   1      53.598  33.121  54.764  0.00  0.00     0.000 A 
ATOM      9  C   UNL d   1      54.209  32.888  55.286  0.00  0.00     0.000 A 
ATOM     10  C   UNL d   1      54.915  33.318  55.290  0.00  0.00     0.000 A 
ATOM     11  C   UNL d   1      55.024  33.965  54.795  0.00  0.00     0.000 A 
ATOM     12  C   UNL d   1      54.412  34.205  54.268  0.00  0.00     0.000 A 
ENDBRANCH   6   7
ENDBRANCH   4   6
ENDBRANCH   1   3
BRANCH   1  13
ATOM     13  N   UNL d   1      50.953  33.899  52.981  0.00  0.00    -0.281 N 
ATOM     14  C   UNL d   1      50.784  33.103  53.332  0.00  0.00     0.101 C 
BRANCH  13  15
ATOM     15  C   UNL d   1      50.317  34.272  52.668  0.00  0.00     0.066 A 
ATOM     16  C   UNL d   1      49.826  34.757  53.121  0.00  0.00     0.018 A 
ATOM     17  C   UNL d   1      49.175  35.134  52.789  0.00  0.00     0.002 A 
ATOM     18  C   UNL d   1      48.997  35.031  51.971  0.00  0.00     0.000 A 
ATOM     19  C   UNL d   1      49.488  34.546  51.518  0.00  0.00     0.002 A 
ATOM     20  C   UNL d   1      50.147  34.168  51.871  0.00  0.00     0.018 A 
ENDBRANCH  13  15
ENDBRANCH   1  13
TORSDOF 5
ENDMDL
