MODEL 1
REMARK VINA RESULT:      -5.5      0.000      0.000
REMARK  5 active torsions:
REMARK  status: ('A' for Active; 'I' for Inactive)
REMARK    1  A    between atoms: C_2  and  S_1 
REMARK    2  A    between atoms: N_3  and  C_14 
REMARK    3  A    between atoms: C_9  and  N_3 
REMARK    4  A    between atoms: N_8  and  C_7 
REMARK    5  A    between atoms: C_15  and  C_9 
ROOT
ATOM      1  N   UNL d   1     -41.152-123.013 -50.827  0.00  0.00    -0.244 NA
ENDROOT
BRANCH   1   2
ATOM      2  C   UNL d   1     -41.179-122.977 -51.656  0.00  0.00     0.082 A 
ATOM      3  C   UNL d   1     -41.158-123.683 -52.082  0.00  0.00     0.020 A 
ATOM      4  C   UNL d   1     -41.184-123.644 -52.905  0.00  0.00     0.015 A 
ATOM      5  C   UNL d   1     -41.230-122.928 -53.288  0.00  0.00     0.107 A 
ATOM      6  C   UNL d   1     -41.250-122.223 -52.862  0.00  0.00     0.015 A 
ATOM      7  C   UNL d   1     -41.224-122.260 -52.038  0.00  0.00     0.020 A 
BRANCH   5   8
ATOM      8  S   UNL d   1     -41.256-122.896 -54.121  0.00  0.00     0.302 S 
ATOM      9  O   UNL d   1     -41.282-122.067 -54.084  0.00  0.00    -0.197 OA
ATOM     10  O   UNL d   1     -41.283-122.851 -54.947  0.00  0.00    -0.197 OA
ATOM     11  N   UNL d   1     -41.230-123.716 -54.156  0.00  0.00    -0.043 N 
ENDBRANCH   5   8
ENDBRANCH   1   2
BRANCH   1  12
ATOM     12  C   UNL d   1     -41.768-123.336 -50.406  0.00  0.00     0.099 C 
BRANCH  12  13
ATOM     13  C   UNL d   1     -41.774-123.325 -49.579  0.00  0.00     0.019 A 
ATOM     14  C   UNL d   1     -41.125-123.621 -49.136  0.00  0.00     0.003 A 
ATOM     15  C   UNL d   1     -41.161-123.597 -48.316  0.00  0.00     0.018 A 
ATOM     16  C   UNL d   1     -41.804-123.295 -47.923  0.00  0.00     0.064 A 
ATOM     17  C   UNL d   1     -42.453-122.998 -48.366  0.00  0.00     0.018 A 
ATOM     18  C   UNL d   1     -42.447-123.010 -49.194  0.00  0.00     0.003 A 
BRANCH  16  19
ATOM     19  N   UNL d   1     -41.795-123.290 -47.099  0.00  0.00    -0.301 N 
ATOM     20  C   UNL d   1     -42.431-123.623 -46.676  0.00  0.00     0.100 C 
ATOM     21  C   UNL d   1     -41.156-122.956 -46.720  0.00  0.00     0.100 C 
ENDBRANCH  16  19
ENDBRANCH  12  13
ENDBRANCH   1  12
TORSDOF 5
ENDMDL
MODEL 2
REMARK VINA RESULT:      -5.0      2.713      5.316
REMARK  5 active torsions:
REMARK  status: ('A' for Active; 'I' for Inactive)
REMARK    1  A    between atoms: C_2  and  S_1 
REMARK    2  A    between atoms: N_3  and  C_14 
REMARK    3  A    between atoms: C_9  and  N_3 
REMARK    4  A    between atoms: N_8  and  C_7 
REMARK    5  A    between atoms: C_15  and  C_9 
ROOT
ATOM      1  N   UNL d   1     -41.786-123.499 -50.746  0.00  0.00    -0.244 NA
ENDROOT
BRANCH   1   2
ATOM      2  C   UNL d   1     -41.862-123.397 -49.926  0.00  0.00     0.082 A 
ATOM      3  C   UNL d   1     -42.546-123.037 -49.635  0.00  0.00     0.020 A 
ATOM      4  C   UNL d   1     -42.619-122.937 -48.820  0.00  0.00     0.015 A 
ATOM      5  C   UNL d   1     -42.033-123.186 -48.315  0.00  0.00     0.107 A 
ATOM      6  C   UNL d   1     -41.350-123.545 -48.606  0.00  0.00     0.015 A 
ATOM      7  C   UNL d   1     -41.276-123.646 -49.421  0.00  0.00     0.020 A 
BRANCH   5   8
ATOM      8  S   UNL d   1     -42.113-123.082 -47.491  0.00  0.00     0.302 S 
ATOM      9  O   UNL d   1     -42.532-122.378 -47.625  0.00  0.00    -0.197 OA
ATOM     10  O   UNL d   1     -42.199-122.968 -46.676  0.00  0.00    -0.197 OA
ATOM     11  N   UNL d   1     -41.698-123.778 -47.360  0.00  0.00    -0.043 N 
ENDBRANCH   5   8
ENDBRANCH   1   2
BRANCH   1  12
ATOM     12  C   UNL d   1     -41.285-123.026 -51.178  0.00  0.00     0.099 C 
BRANCH  12  13
ATOM     13  C   UNL d   1     -41.301-123.029 -52.005  0.00  0.00     0.019 A 
ATOM     14  C   UNL d   1     -41.172-123.736 -52.439  0.00  0.00     0.003 A 
ATOM     15  C   UNL d   1     -41.194-123.707 -53.259  0.00  0.00     0.018 A 
ATOM     16  C   UNL d   1     -41.335-123.015 -53.661  0.00  0.00     0.064 A 
ATOM     17  C   UNL d   1     -41.464-122.308 -53.227  0.00  0.00     0.018 A 
ATOM     18  C   UNL d   1     -41.449-122.305 -52.399  0.00  0.00     0.003 A 
BRANCH  16  19
ATOM     19  N   UNL d   1     -41.348-123.034 -54.485  0.00  0.00    -0.301 N 
ATOM     20  C   UNL d   1     -41.123-123.728 -54.887  0.00  0.00     0.100 C 
ATOM     21  C   UNL d   1     -41.583-122.364 -54.885  0.00  0.00     0.100 C 
ENDBRANCH  16  19
ENDBRANCH  12  13
ENDBRANCH   1  12
TORSDOF 5
ENDMDL
MODEL 3
REMARK VINA RESULT:      -4.4      2.686      5.395
REMARK  5 active torsions:
REMARK  status: ('A' for Active; 'I' for Inactive)
REMARK    1  A    between atoms: C_2  and  S_1 
REMARK    2  A    between atoms: N_3  and  C_14 
REMARK    3  A    between atoms: C_9  and  N_3 
REMARK    4  A    between atoms: N_8  and  C_7 
REMARK    5  A    between atoms: C_15  and  C_9 
ROOT
ATOM      1  N   UNL d   1     -41.897-122.246 -51.340  0.00  0.00    -0.244 NA
ENDROOT
BRANCH   1   2
ATOM      2  C   UNL d   1     -41.896-122.537 -50.562  0.00  0.00     0.082 A 
ATOM      3  C   UNL d   1     -41.179-122.781 -50.234  0.00  0.00     0.020 A 
ATOM      4  C   UNL d   1     -41.181-123.069 -49.461  0.00  0.00     0.015 A 
ATOM      5  C   UNL d   1     -41.871-123.111 -49.033  0.00  0.00     0.107 A 
ATOM      6  C   UNL d   1     -42.587-122.867 -49.361  0.00  0.00     0.015 A 
ATOM      7  C   UNL d   1     -42.586-122.579 -50.135  0.00  0.00     0.020 A 
BRANCH   5   8
ATOM      8  S   UNL d   1     -41.866-123.404 -48.252  0.00  0.00     0.302 S 
ATOM      9  O   UNL d   1     -42.566-122.986 -48.095  0.00  0.00    -0.197 OA
ATOM     10  O   UNL d   1     -41.871-123.688 -47.474  0.00  0.00    -0.197 OA
ATOM     11  N   UNL d   1     -41.174-123.817 -48.409  0.00  0.00    -0.043 N 
ENDBRANCH   5   8
ENDBRANCH   1   2
BRANCH   1  12
ATOM     12  C   UNL d   1     -41.445-122.600 -51.915  0.00  0.00     0.099 C 
BRANCH  12  13
ATOM     13  C   UNL d   1     -41.591-122.466 -52.718  0.00  0.00     0.019 A 
ATOM     14  C   UNL d   1     -41.973-121.764 -52.979  0.00  0.00     0.003 A 
ATOM     15  C   UNL d   1     -42.104-121.660 -53.782  0.00  0.00     0.018 A 
ATOM     16  C   UNL d   1     -41.876-122.214 -54.330  0.00  0.00     0.064 A 
ATOM     17  C   UNL d   1     -41.495-122.916 -54.070  0.00  0.00     0.018 A 
ATOM     18  C   UNL d   1     -41.348-123.050 -53.266  0.00  0.00     0.003 A 
BRANCH  16  19
ATOM     19  N   UNL d   1     -42.029-122.066 -55.127  0.00  0.00    -0.301 N 
ATOM     20  C   UNL d   1     -41.405-121.852 -55.635  0.00  0.00     0.100 C 
ATOM     21  C   UNL d   1     -42.796-122.135 -55.394  0.00  0.00     0.100 C 
ENDBRANCH  16  19
ENDBRANCH  12  13
ENDBRANCH   1  12
TORSDOF 5
ENDMDL
