MODEL 1
REMARK VINA RESULT:      -8.2      0.000      0.000
REMARK  4 active torsions:
REMARK  status: ('A' for Active; 'I' for Inactive)
REMARK    1  A    between atoms: C_2  and  C_1 
REMARK       I    between atoms: N_4  and  C_2 
REMARK    2  A    between atoms: C_5  and  N_4 
REMARK    3  A    between atoms: O_17  and  C_9 
REMARK    4  A    between atoms: O_18  and  C_12 
ROOT
ATOM      1  C   UNL d   1      54.216  32.349  53.261  0.00  0.00     0.353 C 
ATOM      2  N   UNL d   1      53.896  33.046  53.578  0.00  0.00    -0.361 NA
ATOM      3  O   UNL d   1      54.972  32.352  52.961  0.00  0.00    -0.249 OA
ENDROOT
BRANCH   1   4
ATOM      4  C   UNL d   1      53.770  31.645  53.245  0.00  0.00     0.195 A 
ATOM      5  O   UNL d   1      53.915  31.064  53.808  0.00  0.00    -0.297 OA
ATOM      6  C   UNL d   1      53.464  30.381  53.774  0.00  0.00     0.123 A 
ATOM      7  C   UNL d   1      53.603  29.774  54.349  0.00  0.00     0.027 A 
ATOM      8  C   UNL d   1      52.884  30.260  53.206  0.00  0.00     0.123 A 
ATOM      9  C   UNL d   1      53.155  29.102  54.310  0.00  0.00     0.002 A 
ATOM     10  C   UNL d   1      52.576  28.999  53.731  0.00  0.00     0.002 A 
ATOM     11  C   UNL d   1      52.436  29.567  53.182  0.00  0.00     0.027 A 
ATOM     12  O   UNL d   1      52.748  30.857  52.641  0.00  0.00    -0.301 OA
ATOM     13  C   UNL d   1      53.191  31.543  52.666  0.00  0.00     0.153 A 
ENDBRANCH   1   4
BRANCH   2  14
ATOM     14  C   UNL d   1      53.567  33.727  53.896  0.00  0.00     0.159 A 
ATOM     15  C   UNL d   1      52.929  34.091  53.537  0.00  0.00     0.059 A 
ATOM     16  C   UNL d   1      52.590  34.783  53.856  0.00  0.00     0.107 A 
ATOM     17  C   UNL d   1      52.927  35.104  54.569  0.00  0.00     0.082 A 
ATOM     18  C   UNL d   1      53.565  34.741  54.927  0.00  0.00     0.040 A 
ATOM     19 CL   UNL d   1      52.588  35.788  54.878  0.00  0.00    -0.080 Cl
ATOM     20  C   UNL d   1      53.895  34.048  54.597  0.00  0.00     0.125 A 
BRANCH  16  21
ATOM     21  O   UNL d   1      51.962  35.140  53.503  0.00  0.00    -0.327 OA
ATOM     22  C   UNL d   1      51.468  34.709  53.004  0.00  0.00     0.181 C 
ENDBRANCH  16  21
BRANCH  20  23
ATOM     23  O   UNL d   1      54.539  33.681  54.959  0.00  0.00    -0.326 OA
ATOM     24  C   UNL d   1      54.837  34.012  55.646  0.00  0.00     0.181 C 
ENDBRANCH  20  23
ENDBRANCH   2  14
TORSDOF 4
ENDMDL
MODEL 2
REMARK VINA RESULT:      -7.6      1.002      2.031
REMARK  4 active torsions:
REMARK  status: ('A' for Active; 'I' for Inactive)
REMARK    1  A    between atoms: C_2  and  C_1 
REMARK       I    between atoms: N_4  and  C_2 
REMARK    2  A    between atoms: C_5  and  N_4 
REMARK    3  A    between atoms: O_17  and  C_9 
REMARK    4  A    between atoms: O_18  and  C_12 
ROOT
ATOM      1  C   UNL d   1      52.781  31.700  52.864  0.00  0.00     0.353 C 
ATOM      2  N   UNL d   1      52.860  32.436  53.240  0.00  0.00    -0.361 NA
ATOM      3  O   UNL d   1      52.401  31.653  52.146  0.00  0.00    -0.249 OA
ENDROOT
BRANCH   1   4
ATOM      4  C   UNL d   1      53.086  31.008  53.215  0.00  0.00     0.195 A 
ATOM      5  O   UNL d   1      52.665  30.644  53.820  0.00  0.00    -0.297 OA
ATOM      6  C   UNL d   1      52.984  29.966  54.150  0.00  0.00     0.123 A 
ATOM      7  C   UNL d   1      52.561  29.581  54.775  0.00  0.00     0.027 A 
ATOM      8  C   UNL d   1      53.697  29.644  53.901  0.00  0.00     0.123 A 
ATOM      9  C   UNL d   1      52.881  28.911  55.097  0.00  0.00     0.002 A 
ATOM     10  C   UNL d   1      53.599  28.604  54.832  0.00  0.00     0.002 A 
ATOM     11  C   UNL d   1      54.008  28.960  54.242  0.00  0.00     0.027 A 
ATOM     12  O   UNL d   1      54.113  30.024  53.287  0.00  0.00    -0.301 OA
ATOM     13  C   UNL d   1      53.805  30.700  52.950  0.00  0.00     0.153 A 
ENDBRANCH   1   4
BRANCH   2  14
ATOM     14  C   UNL d   1      52.946  33.156  53.624  0.00  0.00     0.159 A 
ATOM     15  C   UNL d   1      53.583  33.295  54.117  0.00  0.00     0.059 A 
ATOM     16  C   UNL d   1      53.675  34.025  54.509  0.00  0.00     0.107 A 
ATOM     17  C   UNL d   1      53.085  34.626  54.384  0.00  0.00     0.082 A 
ATOM     18  C   UNL d   1      52.448  34.487  53.892  0.00  0.00     0.040 A 
ATOM     19 CL   UNL d   1      53.182  35.344  54.775  0.00  0.00    -0.080 Cl
ATOM     20  C   UNL d   1      52.368  33.752  53.505  0.00  0.00     0.125 A 
BRANCH  16  21
ATOM     21  O   UNL d   1      54.302  34.162  54.994  0.00  0.00    -0.327 OA
ATOM     22  C   UNL d   1      54.866  33.574  55.116  0.00  0.00     0.181 C 
ENDBRANCH  16  21
BRANCH  20  23
ATOM     23  O   UNL d   1      51.725  33.611  53.008  0.00  0.00    -0.326 OA
ATOM     24  C   UNL d   1      51.162  34.199  52.928  0.00  0.00     0.181 C 
ENDBRANCH  20  23
ENDBRANCH   2  14
TORSDOF 4
ENDMDL
MODEL 3
REMARK VINA RESULT:      -7.3      1.796      4.256
REMARK  4 active torsions:
REMARK  status: ('A' for Active; 'I' for Inactive)
REMARK    1  A    between atoms: C_2  and  C_1 
REMARK       I    between atoms: N_4  and  C_2 
REMARK    2  A    between atoms: C_5  and  N_4 
REMARK    3  A    between atoms: O_17  and  C_9 
REMARK    4  A    between atoms: O_18  and  C_12 
ROOT
ATOM      1  C   UNL d   1      52.474  34.278  53.003  0.00  0.00     0.353 C 
ATOM      2  N   UNL d   1      52.785  33.531  53.188  0.00  0.00    -0.361 NA
ATOM      3  O   UNL d   1      52.970  34.919  52.948  0.00  0.00    -0.249 OA
ENDROOT
BRANCH   1   4
ATOM      4  C   UNL d   1      51.656  34.377  52.871  0.00  0.00     0.195 A 
ATOM      5  O   UNL d   1      51.354  34.263  52.115  0.00  0.00    -0.297 OA
ATOM      6  C   UNL d   1      50.548  34.366  52.009  0.00  0.00     0.123 A 
ATOM      7  C   UNL d   1      50.223  34.252  51.235  0.00  0.00     0.027 A 
ATOM      8  C   UNL d   1      50.043  34.575  52.622  0.00  0.00     0.123 A 
ATOM      9  C   UNL d   1      49.427  34.355  51.136  0.00  0.00     0.002 A 
ATOM     10  C   UNL d   1      48.936  34.565  51.765  0.00  0.00     0.002 A 
ATOM     11  C   UNL d   1      49.233  34.676  52.502  0.00  0.00     0.027 A 
ATOM     12  O   UNL d   1      50.363  34.688  53.382  0.00  0.00    -0.301 OA
ATOM     13  C   UNL d   1      51.165  34.588  53.500  0.00  0.00     0.153 A 
ENDBRANCH   1   4
BRANCH   2  14
ATOM     14  C   UNL d   1      53.077  32.786  53.371  0.00  0.00     0.159 A 
ATOM     15  C   UNL d   1      52.800  32.121  52.986  0.00  0.00     0.059 A 
ATOM     16  C   UNL d   1      53.094  31.362  53.167  0.00  0.00     0.107 A 
ATOM     17  C   UNL d   1      53.694  31.296  53.768  0.00  0.00     0.082 A 
ATOM     18  C   UNL d   1      53.971  31.962  54.153  0.00  0.00     0.040 A 
ATOM     19 CL   UNL d   1      53.980  30.545  53.943  0.00  0.00    -0.080 Cl
ATOM     20  C   UNL d   1      53.668  32.716  53.962  0.00  0.00     0.125 A 
BRANCH  16  21
ATOM     21  O   UNL d   1      52.822  30.707  52.788  0.00  0.00    -0.327 OA
ATOM     22  C   UNL d   1      52.096  30.380  52.999  0.00  0.00     0.181 C 
ENDBRANCH  16  21
BRANCH  20  23
ATOM     23  O   UNL d   1      53.947  33.387  54.351  0.00  0.00    -0.326 OA
ATOM     24  C   UNL d   1      54.469  33.285  54.973  0.00  0.00     0.181 C 
ENDBRANCH  20  23
ENDBRANCH   2  14
TORSDOF 4
ENDMDL
MODEL 4
REMARK VINA RESULT:      -6.4      1.720      4.590
REMARK  4 active torsions:
REMARK  status: ('A' for Active; 'I' for Inactive)
REMARK    1  A    between atoms: C_2  and  C_1 
REMARK       I    between atoms: N_4  and  C_2 
REMARK    2  A    between atoms: C_5  and  N_4 
REMARK    3  A    between atoms: O_17  and  C_9 
REMARK    4  A    between atoms: O_18  and  C_12 
ROOT
ATOM      1  C   UNL d   1      54.422  32.497  53.624  0.00  0.00     0.353 C 
ATOM      2  N   UNL d   1      53.983  31.796  53.554  0.00  0.00    -0.361 NA
ATOM      3  O   UNL d   1      55.137  32.565  53.243  0.00  0.00    -0.249 OA
ENDROOT
BRANCH   1   4
ATOM      4  C   UNL d   1      54.137  33.133  54.083  0.00  0.00     0.195 A 
ATOM      5  O   UNL d   1      53.768  33.765  53.708  0.00  0.00    -0.297 OA
ATOM      6  C   UNL d   1      53.496  34.378  54.178  0.00  0.00     0.123 A 
ATOM      7  C   UNL d   1      53.114  35.036  53.805  0.00  0.00     0.027 A 
ATOM      8  C   UNL d   1      53.579  34.382  54.995  0.00  0.00     0.123 A 
ATOM      9  C   UNL d   1      52.847  35.639  54.274  0.00  0.00     0.002 A 
ATOM     10  C   UNL d   1      52.940  35.624  55.094  0.00  0.00     0.002 A 
ATOM     11  C   UNL d   1      53.301  35.006  55.458  0.00  0.00     0.027 A 
ATOM     12  O   UNL d   1      53.955  33.735  55.360  0.00  0.00    -0.301 OA
ATOM     13  C   UNL d   1      54.230  33.118  54.902  0.00  0.00     0.153 A 
ENDBRANCH   1   4
BRANCH   2  14
ATOM     14  C   UNL d   1      53.538  31.109  53.494  0.00  0.00     0.159 A 
ATOM     15  C   UNL d   1      53.742  30.439  53.913  0.00  0.00     0.059 A 
ATOM     16  C   UNL d   1      53.293  29.738  53.856  0.00  0.00     0.107 A 
ATOM     17  C   UNL d   1      52.611  29.739  53.347  0.00  0.00     0.082 A 
ATOM     18  C   UNL d   1      52.406  30.410  52.927  0.00  0.00     0.040 A 
ATOM     19 CL   UNL d   1      52.172  29.045  53.294  0.00  0.00    -0.080 Cl
ATOM     20  C   UNL d   1      52.865  31.104  52.994  0.00  0.00     0.125 A 
BRANCH  16  21
ATOM     21  O   UNL d   1      53.494  29.078  54.269  0.00  0.00    -0.327 OA
ATOM     22  C   UNL d   1      53.437  29.072  55.091  0.00  0.00     0.181 C 
ENDBRANCH  16  21
BRANCH  20  23
ATOM     23  O   UNL d   1      52.658  31.781  52.570  0.00  0.00    -0.326 OA
ATOM     24  C   UNL d   1      51.867  31.906  52.402  0.00  0.00     0.181 C 
ENDBRANCH  20  23
ENDBRANCH   2  14
TORSDOF 4
ENDMDL
MODEL 5
REMARK VINA RESULT:      -5.9      1.705      3.925
REMARK  4 active torsions:
REMARK  status: ('A' for Active; 'I' for Inactive)
REMARK    1  A    between atoms: C_2  and  C_1 
REMARK       I    between atoms: N_4  and  C_2 
REMARK    2  A    between atoms: C_5  and  N_4 
REMARK    3  A    between atoms: O_17  and  C_9 
REMARK    4  A    between atoms: O_18  and  C_12 
ROOT
ATOM      1  C   UNL d   1      51.610  32.758  53.264  0.00  0.00     0.353 C 
ATOM      2  N   UNL d   1      52.306  33.001  53.647  0.00  0.00    -0.361 NA
ATOM      3  O   UNL d   1      51.402  31.972  53.268  0.00  0.00    -0.249 OA
ENDROOT
BRANCH   1   4
ATOM      4  C   UNL d   1      51.123  33.312  52.876  0.00  0.00     0.195 A 
ATOM      5  O   UNL d   1      50.543  33.708  53.305  0.00  0.00    -0.297 OA
ATOM      6  C   UNL d   1      50.076  34.248  52.904  0.00  0.00     0.123 A 
ATOM      7  C   UNL d   1      49.475  34.663  53.334  0.00  0.00     0.027 A 
ATOM      8  C   UNL d   1      50.166  34.403  52.103  0.00  0.00     0.123 A 
ATOM      9  C   UNL d   1      49.017  35.195  52.932  0.00  0.00     0.002 A 
ATOM     10  C   UNL d   1      49.123  35.337  52.127  0.00  0.00     0.002 A 
ATOM     11  C   UNL d   1      49.688  34.949  51.710  0.00  0.00     0.027 A 
ATOM     12  O   UNL d   1      50.756  33.994  51.681  0.00  0.00    -0.301 OA
ATOM     13  C   UNL d   1      51.228  33.454  52.071  0.00  0.00     0.153 A 
ENDBRANCH   1   4
BRANCH   2  14
ATOM     14  C   UNL d   1      52.990  33.257  54.021  0.00  0.00     0.159 A 
ATOM     15  C   UNL d   1      53.026  33.994  54.371  0.00  0.00     0.059 A 
ATOM     16  C   UNL d   1      53.719  34.259  54.752  0.00  0.00     0.107 A 
ATOM     17  C   UNL d   1      54.393  33.738  54.767  0.00  0.00     0.082 A 
ATOM     18  C   UNL d   1      54.357  33.001  54.417  0.00  0.00     0.040 A 
ATOM     19 CL   UNL d   1      55.074  34.005  55.145  0.00  0.00    -0.080 Cl
ATOM     20  C   UNL d   1      53.657  32.749  54.039  0.00  0.00     0.125 A 
BRANCH  16  21
ATOM     21  O   UNL d   1      53.755  34.984  55.097  0.00  0.00    -0.327 OA
ATOM     22  C   UNL d   1      53.194  35.558  54.910  0.00  0.00     0.181 C 
ENDBRANCH  16  21
BRANCH  20  23
ATOM     23  O   UNL d   1      53.620  32.004  53.685  0.00  0.00    -0.326 OA
ATOM     24  C   UNL d   1      54.302  31.552  53.664  0.00  0.00     0.181 C 
ENDBRANCH  20  23
ENDBRANCH   2  14
TORSDOF 4
ENDMDL
