MODEL 1
REMARK VINA RESULT:      -2.9      0.000      0.000
REMARK  4 active torsions:
REMARK  status: ('A' for Active; 'I' for Inactive)
REMARK    1  A    between atoms: C_2  and  C_1 
REMARK       I    between atoms: N_7  and  C_1 
REMARK    2  A    between atoms: N_6  and  C_5 
REMARK    3  A    between atoms: C_12  and  N_7 
REMARK    4  A    between atoms: C_8  and  C_9 
ROOT
ATOM      1  C   UNL d   1      33.107  20.434 -23.158  0.00  0.00     0.021 A 
ATOM      2  C   UNL d   1      33.202  21.597 -22.334  0.00  0.00     0.085 A 
ATOM      3  C   UNL d   1      33.144  20.777 -22.409  0.00  0.00     0.021 A 
ATOM      4  C   UNL d   1      33.128  20.910 -23.832  0.00  0.00     0.002 A 
ATOM      5  C   UNL d   1      33.186  21.722 -23.752  0.00  0.00     0.002 A 
ATOM      6  C   UNL d   1      33.223  22.065 -23.003  0.00  0.00     0.019 A 
ENDROOT
BRANCH   1   7
ATOM      7  C   UNL d   1      33.048  19.606 -23.231  0.00  0.00     0.103 A 
ATOM      8  N   UNL d   1      32.799  19.156 -22.594  0.00  0.00    -0.147 NA
ATOM      9  N   UNL d   1      32.742  18.336 -22.670  0.00  0.00    -0.130 NA
ATOM     10  C   UNL d   1      32.935  17.974 -23.385  0.00  0.00     0.170 A 
ATOM     11  C   UNL d   1      33.186  18.435 -24.026  0.00  0.00     0.041 A 
ATOM     12  C   UNL d   1      33.241  19.243 -23.946  0.00  0.00     0.024 A 
BRANCH  10  13
ATOM     13  N   UNL d   1      32.880  17.162 -23.464  0.00  0.00    -0.284 N 
ATOM     14  C   UNL d   1      33.218  16.671 -22.893  0.00  0.00     0.108 A 
ATOM     15  C   UNL d   1      33.164  15.851 -22.969  0.00  0.00     0.142 A 
ATOM     16  O   UNL d   1      32.772  15.521 -23.616  0.00  0.00    -0.300 OA
ATOM     17  C   UNL d   1      32.434  16.012 -24.187  0.00  0.00     0.142 A 
ATOM     18  C   UNL d   1      32.488  16.833 -24.111  0.00  0.00     0.108 A 
ENDBRANCH  10  13
ENDBRANCH   1   7
BRANCH   2  19
ATOM     19  N   UNL d   1      33.239  21.940 -21.584  0.00  0.00    -0.208 NA
ATOM     20  C   UNL d   1      32.556  22.188 -21.209  0.00  0.00     0.280 C 
ATOM     21  O   UNL d   1      31.826  22.093 -21.584  0.00  0.00    -0.265 OA
BRANCH  20  22
ATOM     22  C   UNL d   1      32.593  22.529 -20.465  0.00  0.00     0.069 A 
ATOM     23  C   UNL d   1      32.232  23.249 -20.322  0.00  0.00     0.062 A 
ATOM     24 CL   UNL d   1      31.824  23.639 -20.935  0.00  0.00    -0.082 Cl
ATOM     25  C   UNL d   1      32.269  23.592 -19.572  0.00  0.00     0.012 A 
ATOM     26  C   UNL d   1      32.667  23.215 -18.966  0.00  0.00     0.001 A 
ATOM     27  C   UNL d   1      33.033  22.489 -19.105  0.00  0.00     0.000 A 
ATOM     28  C   UNL d   1      32.996  22.146 -19.854  0.00  0.00     0.006 A 
ENDBRANCH  20  22
ENDBRANCH   2  19
TORSDOF 4
ENDMDL
MODEL 2
REMARK VINA RESULT:      -2.2      0.894      1.060
REMARK  4 active torsions:
REMARK  status: ('A' for Active; 'I' for Inactive)
REMARK    1  A    between atoms: C_2  and  C_1 
REMARK       I    between atoms: N_7  and  C_1 
REMARK    2  A    between atoms: N_6  and  C_5 
REMARK    3  A    between atoms: C_12  and  N_7 
REMARK    4  A    between atoms: C_8  and  C_9 
ROOT
ATOM      1  C   UNL d   1      32.975  20.457 -23.632  0.00  0.00     0.021 A 
ATOM      2  C   UNL d   1      33.175  21.594 -22.789  0.00  0.00     0.085 A 
ATOM      3  C   UNL d   1      33.041  20.784 -22.877  0.00  0.00     0.021 A 
ATOM      4  C   UNL d   1      33.043  20.940 -24.298  0.00  0.00     0.002 A 
ATOM      5  C   UNL d   1      33.175  21.742 -24.206  0.00  0.00     0.002 A 
ATOM      6  C   UNL d   1      33.241  22.069 -23.451  0.00  0.00     0.019 A 
ENDROOT
BRANCH   1   7
ATOM      7  C   UNL d   1      32.841  19.639 -23.717  0.00  0.00     0.103 A 
ATOM      8  N   UNL d   1      32.695  19.324 -24.458  0.00  0.00    -0.147 NA
ATOM      9  N   UNL d   1      32.562  18.513 -24.538  0.00  0.00    -0.130 NA
ATOM     10  C   UNL d   1      32.577  18.025 -23.873  0.00  0.00     0.170 A 
ATOM     11  C   UNL d   1      32.725  18.351 -23.126  0.00  0.00     0.041 A 
ATOM     12  C   UNL d   1      32.856  19.151 -23.052  0.00  0.00     0.024 A 
BRANCH  10  13
ATOM     13  N   UNL d   1      32.445  17.222 -23.949  0.00  0.00    -0.284 N 
ATOM     14  C   UNL d   1      31.685  16.918 -23.842  0.00  0.00     0.108 A 
ATOM     15  C   UNL d   1      31.548  16.108 -23.917  0.00  0.00     0.142 A 
ATOM     16  O   UNL d   1      32.172  15.600 -24.100  0.00  0.00    -0.300 OA
ATOM     17  C   UNL d   1      32.933  15.903 -24.207  0.00  0.00     0.142 A 
ATOM     18  C   UNL d   1      33.069  16.714 -24.132  0.00  0.00     0.108 A 
ENDBRANCH  10  13
ENDBRANCH   1   7
BRANCH   2  19
ATOM     19  N   UNL d   1      33.241  21.921 -22.035  0.00  0.00    -0.208 NA
ATOM     20  C   UNL d   1      32.598  22.288 -21.686  0.00  0.00     0.280 C 
ATOM     21  O   UNL d   1      31.881  22.331 -22.094  0.00  0.00    -0.265 OA
BRANCH  20  22
ATOM     22  C   UNL d   1      32.664  22.613 -20.936  0.00  0.00     0.069 A 
ATOM     23  C   UNL d   1      32.260  22.282 -20.306  0.00  0.00     0.062 A 
ATOM     24 CL   UNL d   1      31.779  21.612 -20.425  0.00  0.00    -0.082 Cl
ATOM     25  C   UNL d   1      32.326  22.609 -19.552  0.00  0.00     0.012 A 
ATOM     26  C   UNL d   1      32.795  23.267 -19.427  0.00  0.00     0.001 A 
ATOM     27  C   UNL d   1      33.205  23.604 -20.059  0.00  0.00     0.000 A 
ATOM     28  C   UNL d   1      33.139  23.277 -20.814  0.00  0.00     0.006 A 
ENDBRANCH  20  22
ENDBRANCH   2  19
TORSDOF 4
ENDMDL
MODEL 3
REMARK VINA RESULT:      -1.7      2.158      2.734
REMARK  4 active torsions:
REMARK  status: ('A' for Active; 'I' for Inactive)
REMARK    1  A    between atoms: C_2  and  C_1 
REMARK       I    between atoms: N_7  and  C_1 
REMARK    2  A    between atoms: N_6  and  C_5 
REMARK    3  A    between atoms: C_12  and  N_7 
REMARK    4  A    between atoms: C_8  and  C_9 
ROOT
ATOM      1  C   UNL d   1      32.011  18.686 -23.856  0.00  0.00     0.021 A 
ATOM      2  C   UNL d   1      32.758  19.596 -23.047  0.00  0.00     0.085 A 
ATOM      3  C   UNL d   1      32.142  19.053 -23.129  0.00  0.00     0.021 A 
ATOM      4  C   UNL d   1      32.497  18.861 -24.501  0.00  0.00     0.002 A 
ATOM      5  C   UNL d   1      33.106  19.400 -24.414  0.00  0.00     0.002 A 
ATOM      6  C   UNL d   1      33.236  19.768 -23.687  0.00  0.00     0.019 A 
ENDROOT
BRANCH   1   7
ATOM      7  C   UNL d   1      31.388  18.138 -23.936  0.00  0.00     0.103 A 
ATOM      8  N   UNL d   1      31.488  17.366 -23.683  0.00  0.00    -0.147 NA
ATOM      9  N   UNL d   1      30.868  16.826 -23.764  0.00  0.00    -0.130 NA
ATOM     10  C   UNL d   1      30.153  17.066 -24.099  0.00  0.00     0.170 A 
ATOM     11  C   UNL d   1      30.060  17.849 -24.353  0.00  0.00     0.041 A 
ATOM     12  C   UNL d   1      30.674  18.377 -24.271  0.00  0.00     0.024 A 
BRANCH  10  13
ATOM     13  N   UNL d   1      29.538  16.535 -24.181  0.00  0.00    -0.284 N 
ATOM     14  C   UNL d   1      29.104  16.305 -23.518  0.00  0.00     0.108 A 
ATOM     15  C   UNL d   1      28.481  15.769 -23.596  0.00  0.00     0.142 A 
ATOM     16  O   UNL d   1      28.293  15.461 -24.338  0.00  0.00    -0.300 OA
ATOM     17  C   UNL d   1      28.727  15.690 -25.002  0.00  0.00     0.142 A 
ATOM     18  C   UNL d   1      29.350  16.227 -24.923  0.00  0.00     0.108 A 
ENDBRANCH  10  13
ENDBRANCH   1   7
BRANCH   2  19
ATOM     19  N   UNL d   1      32.888  19.963 -22.319  0.00  0.00    -0.208 NA
ATOM     20  C   UNL d   1      32.850  20.777 -22.255  0.00  0.00     0.280 C 
ATOM     21  O   UNL d   1      32.679  21.232 -22.923  0.00  0.00    -0.265 OA
BRANCH  20  22
ATOM     22  C   UNL d   1      32.980  21.142 -21.532  0.00  0.00     0.069 A 
ATOM     23  C   UNL d   1      33.043  21.957 -21.486  0.00  0.00     0.062 A 
ATOM     24 CL   UNL d   1      32.975  22.419 -22.176  0.00  0.00    -0.082 Cl
ATOM     25  C   UNL d   1      33.173  22.324 -20.759  0.00  0.00     0.012 A 
ATOM     26  C   UNL d   1      33.241  21.877 -20.078  0.00  0.00     0.001 A 
ATOM     27  C   UNL d   1      33.178  21.055 -20.119  0.00  0.00     0.000 A 
ATOM     28  C   UNL d   1      33.047  20.688 -20.846  0.00  0.00     0.006 A 
ENDBRANCH  20  22
ENDBRANCH   2  19
TORSDOF 4
ENDMDL
