MODEL 1
REMARK VINA RESULT:      -2.8      0.000      0.000
REMARK  7 active torsions:
REMARK  status: ('A' for Active; 'I' for Inactive)
REMARK    1  A    between atoms: N_10  and  C_1 
REMARK    2  A    between atoms: C_11  and  C_2 
REMARK    3  A    between atoms: C_7  and  S_14 
REMARK       I    between atoms: C_13  and  N_10 
REMARK    4  A    between atoms: O_18  and  C_11 
REMARK    5  A    between atoms: C_17  and  C_13 
REMARK    6  A    between atoms: S_14  and  C_17 
REMARK    7  A    between atoms: C_22  and  O_18 
ROOT
ATOM      1  C   UNL d   1      58.365  -0.690  29.653  0.00  0.00     0.119 A 
ATOM      2  C   UNL d   1      59.125  -0.753  29.333  0.00  0.00     0.088 A 
ATOM      3  S   UNL d   1      58.019  -1.421  29.652  0.00  0.00    -0.068 SA
ATOM      4  C   UNL d   1      59.243  -1.552  29.131  0.00  0.00     0.013 A 
ATOM      5  C   UNL d   1      58.558  -1.969  29.328  0.00  0.00     0.031 A 
ATOM      6  C   UNL d   1      59.948  -1.838  28.791  0.00  0.00     0.001 A 
ATOM      7  C   UNL d   1      58.402  -2.775  29.236  0.00  0.00     0.006 A 
ATOM      8  C   UNL d   1      60.126  -2.612  28.569  0.00  0.00     0.000 A 
ATOM      9  C   UNL d   1      58.900  -3.360  28.921  0.00  0.00     0.001 A 
ATOM     10  C   UNL d   1      59.659  -3.283  28.629  0.00  0.00     0.000 A 
ENDROOT
BRANCH   1  11
ATOM     11  N   UNL d   1      58.009   0.008  29.932  0.00  0.00    -0.201 NA
ATOM     12  C   UNL d   1      57.518  -0.016  30.603  0.00  0.00     0.286 C 
ATOM     13  O   UNL d   1      57.169   0.681  30.871  0.00  0.00    -0.265 OA
BRANCH  12  14
ATOM     14  C   UNL d   1      57.381  -0.725  30.997  0.00  0.00     0.100 C 
BRANCH  14  15
ATOM     15  S   UNL d   1      57.430  -0.759  31.821  0.00  0.00    -0.054 SA
BRANCH  15  16
ATOM     16  C   UNL d   1      56.758  -0.915  32.274  0.00  0.00     0.164 A 
ATOM     17  S   UNL d   1      56.125  -0.436  32.501  0.00  0.00    -0.039 SA
ATOM     18  C   UNL d   1      55.607  -0.903  32.959  0.00  0.00     0.134 A 
ATOM     19  C   UNL d   1      54.900  -0.647  33.302  0.00  0.00     0.030 C 
ATOM     20  N   UNL d   1      55.928  -1.660  33.008  0.00  0.00    -0.140 NA
ATOM     21  N   UNL d   1      56.636  -1.675  32.588  0.00  0.00    -0.134 NA
ENDBRANCH  15  16
ENDBRANCH  14  15
ENDBRANCH  12  14
ENDBRANCH   1  11
BRANCH   2  22
ATOM     22  C   UNL d   1      59.669  -0.141  29.231  0.00  0.00     0.302 C 
ATOM     23  O   UNL d   1      59.549   0.433  28.642  0.00  0.00    -0.259 OA
BRANCH  22  24
ATOM     24  O   UNL d   1      60.340  -0.099  29.717  0.00  0.00    -0.271 OA
BRANCH  24  25
ATOM     25  C   UNL d   1      60.615   0.632  29.980  0.00  0.00     0.126 C 
ATOM     26  C   UNL d   1      61.131   0.681  30.621  0.00  0.00     0.029 C 
ENDBRANCH  24  25
ENDBRANCH  22  24
ENDBRANCH   2  22
TORSDOF 7
ENDMDL
