MODEL 1
REMARK VINA RESULT:      52.7      0.000      0.000
REMARK  5 active torsions:
REMARK  status: ('A' for Active; 'I' for Inactive)
REMARK    1  A    between atoms: C_7  and  N_1 
REMARK    2  A    between atoms: C_2  and  C_6 
REMARK    3  A    between atoms: C_5  and  C_3 
REMARK    4  A    between atoms: N_8  and  C_5 
REMARK    5  A    between atoms: C_19  and  N_9 
ROOT
ATOM      1  C   UNL d   1      13.963  12.096  -2.008  0.00  0.00     0.102 A 
ATOM      2  C   UNL d   1      13.303  12.210  -3.170  0.00  0.00     0.126 A 
ATOM      3  O   UNL d   1      14.022  12.360  -2.792  0.00  0.00    -0.305 OA
ATOM      4  C   UNL d   1      13.199  11.782  -1.906  0.00  0.00     0.027 A 
ATOM      5  C   UNL d   1      12.801  11.854  -2.620  0.00  0.00     0.029 A 
ENDROOT
BRANCH   2   6
ATOM      6  C   UNL d   1      13.106  12.390  -3.991  0.00  0.00     0.143 C 
ATOM      7  S   UNL d   1      12.770  11.805  -4.466  0.00  0.00    -0.057 SA
BRANCH   6   8
ATOM      8  N   UNL d   1      13.264  13.166  -4.286  0.00  0.00    -0.291 N 
ATOM      9  C   UNL d   1      13.010  13.838  -3.890  0.00  0.00     0.100 A 
ATOM     10  C   UNL d   1      13.176  14.575  -4.198  0.00  0.00     0.100 A 
ATOM     11  N   UNL d   1      13.587  14.672  -4.887  0.00  0.00    -0.301 N 
ATOM     12  C   UNL d   1      13.858  13.995  -5.311  0.00  0.00     0.100 A 
ATOM     13  C   UNL d   1      13.693  13.237  -5.005  0.00  0.00     0.100 A 
BRANCH  11  14
ATOM     14  C   UNL d   1      13.745  15.432  -5.181  0.00  0.00     0.064 A 
ATOM     15  C   UNL d   1      14.311  15.914  -4.835  0.00  0.00     0.018 A 
ATOM     16  C   UNL d   1      14.458  16.666  -5.136  0.00  0.00     0.002 A 
ATOM     17  C   UNL d   1      14.028  16.933  -5.795  0.00  0.00     0.000 A 
ATOM     18  C   UNL d   1      13.463  16.451  -6.141  0.00  0.00     0.002 A 
ATOM     19  C   UNL d   1      13.326  15.701  -5.829  0.00  0.00     0.018 A 
ENDBRANCH  11  14
ENDBRANCH   6   8
ENDBRANCH   2   6
BRANCH   1  20
ATOM     20  C   UNL d   1      14.503  12.102  -1.377  0.00  0.00     0.045 A 
ATOM     21  C   UNL d   1      14.281  12.416  -0.641  0.00  0.00     0.129 A 
ATOM     22  C   UNL d   1      14.818  12.422  -0.015  0.00  0.00     0.024 A 
ATOM     23  C   UNL d   1      15.588  12.114  -0.111  0.00  0.00     0.002 A 
ATOM     24  C   UNL d   1      15.798  11.804  -0.848  0.00  0.00     0.000 A 
ATOM     25  C   UNL d   1      15.261  11.798  -1.475  0.00  0.00     0.004 A 
BRANCH  21  26
ATOM     26  N   UNL d   1      13.534  12.721  -0.530  0.00  0.00    -0.114 N 
ATOM     27  O   UNL d   1      13.268  13.448  -0.848  0.00  0.00    -0.532 OA
ATOM     28  O   UNL d   1      12.946  12.348  -0.087  0.00  0.00    -0.532 OA
ENDBRANCH  21  26
ENDBRANCH   1  20
TORSDOF 5
ENDMDL
MODEL 2
REMARK VINA RESULT:      55.6      1.120      1.620
REMARK  5 active torsions:
REMARK  status: ('A' for Active; 'I' for Inactive)
REMARK    1  A    between atoms: C_7  and  N_1 
REMARK    2  A    between atoms: C_2  and  C_6 
REMARK    3  A    between atoms: C_5  and  C_3 
REMARK    4  A    between atoms: N_8  and  C_5 
REMARK    5  A    between atoms: C_19  and  N_9 
ROOT
ATOM      1  C   UNL d   1      13.535  12.283  -2.323  0.00  0.00     0.102 A 
ATOM      2  C   UNL d   1      13.240  12.680  -3.570  0.00  0.00     0.126 A 
ATOM      3  O   UNL d   1      13.714  12.839  -2.913  0.00  0.00    -0.305 OA
ATOM      4  C   UNL d   1      12.945  11.779  -2.625  0.00  0.00     0.027 A 
ATOM      5  C   UNL d   1      12.769  12.027  -3.387  0.00  0.00     0.029 A 
ENDROOT
BRANCH   2   6
ATOM      6  C   UNL d   1      13.233  13.114  -4.316  0.00  0.00     0.143 C 
ATOM      7  S   UNL d   1      12.901  12.765  -4.986  0.00  0.00    -0.057 SA
BRANCH   6   8
ATOM      8  N   UNL d   1      13.569  13.889  -4.339  0.00  0.00    -0.291 N 
ATOM      9  C   UNL d   1      14.238  14.057  -4.782  0.00  0.00     0.100 A 
ATOM     10  C   UNL d   1      14.541  14.815  -4.785  0.00  0.00     0.100 A 
ATOM     11  N   UNL d   1      14.203  15.416  -4.362  0.00  0.00    -0.301 N 
ATOM     12  C   UNL d   1      13.514  15.266  -3.900  0.00  0.00     0.100 A 
ATOM     13  C   UNL d   1      13.197  14.495  -3.890  0.00  0.00     0.100 A 
BRANCH  11  14
ATOM     14  C   UNL d   1      14.528  16.179  -4.381  0.00  0.00     0.064 A 
ATOM     15  C   UNL d   1      15.002  16.456  -3.771  0.00  0.00     0.018 A 
ATOM     16  C   UNL d   1      15.319  17.215  -3.801  0.00  0.00     0.002 A 
ATOM     17  C   UNL d   1      15.155  17.700  -4.454  0.00  0.00     0.000 A 
ATOM     18  C   UNL d   1      14.682  17.424  -5.064  0.00  0.00     0.002 A 
ATOM     19  C   UNL d   1      14.372  16.662  -5.021  0.00  0.00     0.018 A 
ENDBRANCH  11  14
ENDBRANCH   6   8
ENDBRANCH   2   6
BRANCH   1  20
ATOM     20  C   UNL d   1      13.832  12.171  -1.556  0.00  0.00     0.045 A 
ATOM     21  C   UNL d   1      14.651  12.181  -1.420  0.00  0.00     0.129 A 
ATOM     22  C   UNL d   1      14.946  12.070  -0.658  0.00  0.00     0.024 A 
ATOM     23  C   UNL d   1      14.428  11.947  -0.014  0.00  0.00     0.002 A 
ATOM     24  C   UNL d   1      13.614  11.940  -0.162  0.00  0.00     0.000 A 
ATOM     25  C   UNL d   1      13.319  12.050  -0.924  0.00  0.00     0.004 A 
BRANCH  21  26
ATOM     26  N   UNL d   1      15.171  12.299  -2.036  0.00  0.00    -0.114 N 
ATOM     27  O   UNL d   1      15.250  11.787  -2.693  0.00  0.00    -0.532 OA
ATOM     28  O   UNL d   1      15.686  12.942  -2.087  0.00  0.00    -0.532 OA
ENDBRANCH  21  26
ENDBRANCH   1  20
TORSDOF 5
ENDMDL
