MODEL 1
REMARK VINA RESULT:      -2.7      0.000      0.000
REMARK  6 active torsions:
REMARK  status: ('A' for Active; 'I' for Inactive)
REMARK    1  A    between atoms: C_3  and  N_4 
REMARK       I    between atoms: N_4  and  C_6 
REMARK    2  A    between atoms: C_9  and  C_5 
REMARK    3  A    between atoms: C_6  and  C_16 
REMARK    4  A    between atoms: S_12  and  C_7 
REMARK    5  A    between atoms: O_20  and  C_8 
REMARK    6  A    between atoms: C_16  and  S_12 
ROOT
ATOM      1  S   UNL d   1      33.101  19.601 -21.648  0.00  0.00    -0.061 SA
ENDROOT
BRANCH   1   2
ATOM      2  C   UNL d   1      32.984  18.988 -22.191  0.00  0.00     0.133 A 
ATOM      3  N   UNL d   1      32.615  19.134 -22.914  0.00  0.00    -0.141 NA
ATOM      4  N   UNL d   1      32.498  18.521 -23.456  0.00  0.00    -0.146 NA
ATOM      5  C   UNL d   1      32.753  17.749 -23.271  0.00  0.00     0.121 A 
ATOM      6  C   UNL d   1      33.123  17.603 -22.547  0.00  0.00     0.025 A 
ATOM      7  C   UNL d   1      33.240  18.211 -22.006  0.00  0.00     0.029 A 
BRANCH   5   8
ATOM      8  C   UNL d   1      32.633  17.137 -23.820  0.00  0.00     0.101 A 
ATOM      9  N   UNL d   1      31.974  16.645 -23.753  0.00  0.00    -0.242 NA
ATOM     10  C   UNL d   1      31.865  16.051 -24.292  0.00  0.00     0.099 A 
ATOM     11  C   UNL d   1      32.410  15.934 -24.913  0.00  0.00     0.021 A 
ATOM     12  C   UNL d   1      33.064  16.426 -24.977  0.00  0.00     0.003 A 
ATOM     13  C   UNL d   1      33.184  17.033 -24.432  0.00  0.00     0.021 A 
ENDBRANCH   5   8
ENDBRANCH   1   2
BRANCH   1  14
ATOM     14  C   UNL d   1      32.502  20.136 -21.489  0.00  0.00     0.099 C 
BRANCH  14  15
ATOM     15  C   UNL d   1      32.680  20.843 -21.112  0.00  0.00     0.286 C 
ATOM     16  N   UNL d   1      32.305  21.537 -21.330  0.00  0.00    -0.206 NA
ATOM     17  O   UNL d   1      33.241  20.864 -20.506  0.00  0.00    -0.265 OA
BRANCH  16  18
ATOM     18  C   UNL d   1      32.485  22.255 -20.948  0.00  0.00     0.107 A 
ATOM     19  C   UNL d   1      32.539  22.952 -21.382  0.00  0.00     0.112 A 
ATOM     20  C   UNL d   1      32.716  23.655 -21.008  0.00  0.00     0.026 A 
ATOM     21  C   UNL d   1      32.842  23.675 -20.187  0.00  0.00     0.002 A 
ATOM     22  C   UNL d   1      32.789  22.975 -19.744  0.00  0.00     0.002 A 
ATOM     23  C   UNL d   1      32.610  22.268 -20.130  0.00  0.00     0.021 A 
ATOM     24  C   UNL d   1      32.913  22.992 -18.937  0.00  0.00     0.000 C 
BRANCH  19  25
ATOM     25  O   UNL d   1      32.435  23.015 -22.150  0.00  0.00    -0.327 OA
ATOM     26  C   UNL d   1      32.188  23.702 -22.512  0.00  0.00     0.181 C 
ENDBRANCH  19  25
ENDBRANCH  16  18
ENDBRANCH  14  15
ENDBRANCH   1  14
TORSDOF 6
ENDMDL
MODEL 2
REMARK VINA RESULT:      -2.1      1.677      6.150
REMARK  6 active torsions:
REMARK  status: ('A' for Active; 'I' for Inactive)
REMARK    1  A    between atoms: C_3  and  N_4 
REMARK       I    between atoms: N_4  and  C_6 
REMARK    2  A    between atoms: C_9  and  C_5 
REMARK    3  A    between atoms: C_6  and  C_16 
REMARK    4  A    between atoms: S_12  and  C_7 
REMARK    5  A    between atoms: O_20  and  C_8 
REMARK    6  A    between atoms: C_16  and  S_12 
ROOT
ATOM      1  S   UNL d   1      32.692  19.664 -22.977  0.00  0.00    -0.061 SA
ENDROOT
BRANCH   1   2
ATOM      2  C   UNL d   1      32.738  20.271 -22.416  0.00  0.00     0.133 A 
ATOM      3  N   UNL d   1      32.532  20.131 -21.629  0.00  0.00    -0.141 NA
ATOM      4  N   UNL d   1      32.579  20.738 -21.070  0.00  0.00    -0.146 NA
ATOM      5  C   UNL d   1      32.834  21.497 -21.302  0.00  0.00     0.121 A 
ATOM      6  C   UNL d   1      33.040  21.637 -22.089  0.00  0.00     0.025 A 
ATOM      7  C   UNL d   1      32.994  21.035 -22.648  0.00  0.00     0.029 A 
BRANCH   5   8
ATOM      8  C   UNL d   1      32.878  22.103 -20.735  0.00  0.00     0.101 A 
ATOM      9  N   UNL d   1      32.666  22.875 -20.936  0.00  0.00    -0.242 NA
ATOM     10  C   UNL d   1      32.713  23.458 -20.377  0.00  0.00     0.099 A 
ATOM     11  C   UNL d   1      32.972  23.287 -19.603  0.00  0.00     0.021 A 
ATOM     12  C   UNL d   1      33.182  22.518 -19.406  0.00  0.00     0.003 A 
ATOM     13  C   UNL d   1      33.138  21.917 -19.969  0.00  0.00     0.021 A 
ENDBRANCH   5   8
ENDBRANCH   1   2
BRANCH   1  14
ATOM     14  C   UNL d   1      32.883  18.895 -22.772  0.00  0.00     0.099 C 
BRANCH  14  15
ATOM     15  C   UNL d   1      32.767  18.290 -23.315  0.00  0.00     0.286 C 
ATOM     16  N   UNL d   1      32.187  17.726 -23.194  0.00  0.00    -0.206 NA
ATOM     17  O   UNL d   1      33.236  18.244 -23.994  0.00  0.00    -0.265 OA
BRANCH  16  18
ATOM     18  C   UNL d   1      32.070  17.112 -23.745  0.00  0.00     0.107 A 
ATOM     19  C   UNL d   1      31.313  16.944 -24.021  0.00  0.00     0.112 A 
ATOM     20  C   UNL d   1      31.198  16.344 -24.561  0.00  0.00     0.026 A 
ATOM     21  C   UNL d   1      31.841  15.897 -24.837  0.00  0.00     0.002 A 
ATOM     22  C   UNL d   1      32.607  16.062 -24.562  0.00  0.00     0.002 A 
ATOM     23  C   UNL d   1      32.715  16.671 -24.016  0.00  0.00     0.021 A 
ATOM     24  C   UNL d   1      33.241  15.624 -24.832  0.00  0.00     0.000 C 
BRANCH  19  25
ATOM     25  O   UNL d   1      30.663  17.316 -23.811  0.00  0.00    -0.327 OA
ATOM     26  C   UNL d   1      29.966  17.267 -24.230  0.00  0.00     0.181 C 
ENDBRANCH  19  25
ENDBRANCH  16  18
ENDBRANCH  14  15
ENDBRANCH   1  14
TORSDOF 6
ENDMDL
