MODEL 1
REMARK VINA RESULT:     -10.5      0.000      0.000
REMARK  5 active torsions:
REMARK  status: ('A' for Active; 'I' for Inactive)
REMARK    1  A    between atoms: N_5  and  C_1 
REMARK    2  A    between atoms: N_8  and  C_2 
REMARK    3  A    between atoms: C_26  and  N_4 
REMARK    4  A    between atoms: C_22  and  N_9 
REMARK    5  A    between atoms: C_21  and  C_22 
ROOT
ATOM      1  C   UNL d   1      52.974  34.295  53.958  0.00  0.00     0.199 A 
ATOM      2  C   UNL d   1      52.601  33.684  53.530  0.00  0.00     0.092 A 
ATOM      3  C   UNL d   1      53.692  34.163  54.339  0.00  0.00     0.288 A 
ATOM      4  N   UNL d   1      54.046  33.413  54.295  0.00  0.00    -0.272 N 
ATOM      5  C   UNL d   1      52.963  32.937  53.491  0.00  0.00     0.034 A 
ATOM      6  C   UNL d   1      53.684  32.803  53.873  0.00  0.00     0.068 A 
ATOM      7  O   UNL d   1      54.054  34.771  54.760  0.00  0.00    -0.265 OA
ATOM      8  C   UNL d   1      52.600  32.327  53.070  0.00  0.00     0.003 A 
ATOM      9  C   UNL d   1      54.039  32.061  53.832  0.00  0.00     0.018 A 
ATOM     10  C   UNL d   1      52.958  31.584  53.030  0.00  0.00     0.000 A 
ATOM     11  C   UNL d   1      53.676  31.451  53.411  0.00  0.00     0.002 A 
ENDROOT
BRANCH   2  12
ATOM     12  N   UNL d   1      51.890  33.811  53.151  0.00  0.00    -0.300 N 
ATOM     13  C   UNL d   1      51.189  33.569  53.512  0.00  0.00     0.100 A 
ATOM     14  C   UNL d   1      50.461  33.695  53.133  0.00  0.00     0.100 A 
ATOM     15  N   UNL d   1      50.436  34.061  52.394  0.00  0.00    -0.300 N 
ATOM     16  C   UNL d   1      51.141  34.304  52.031  0.00  0.00     0.100 A 
ATOM     17  C   UNL d   1      51.861  34.177  52.412  0.00  0.00     0.100 A 
BRANCH  15  18
ATOM     18  C   UNL d   1      49.717  34.186  52.016  0.00  0.00     0.080 C 
BRANCH  18  19
ATOM     19  C   UNL d   1      49.205  34.770  52.289  0.00  0.00     0.020 A 
ATOM     20  C   UNL d   1      48.634  35.084  51.787  0.00  0.00     0.028 A 
ATOM     21  C   UNL d   1      48.122  35.668  52.061  0.00  0.00     0.119 A 
ATOM     22  O   UNL d   1      47.508  36.078  51.696  0.00  0.00    -0.300 OA
ATOM     23  C   UNL d   1      48.183  35.939  52.838  0.00  0.00     0.119 A 
ATOM     24  C   UNL d   1      47.187  36.604  52.246  0.00  0.00     0.304 A 
ATOM     25  O   UNL d   1      47.604  36.519  52.955  0.00  0.00    -0.300 OA
ATOM     26  C   UNL d   1      48.758  35.623  53.342  0.00  0.00     0.026 A 
ATOM     27  C   UNL d   1      49.269  35.038  53.067  0.00  0.00     0.004 A 
ENDBRANCH  18  19
ENDBRANCH  15  18
ENDBRANCH   2  12
BRANCH   1  28
ATOM     28  N   UNL d   1      52.613  35.041  53.997  0.00  0.00    -0.107 N 
ATOM     29  O   UNL d   1      52.766  35.602  53.413  0.00  0.00    -0.531 OA
ATOM     30  O   UNL d   1      52.100  35.224  54.620  0.00  0.00    -0.531 OA
ENDBRANCH   1  28
BRANCH   4  31
ATOM     31  C   UNL d   1      54.764  33.280  54.675  0.00  0.00     0.083 C 
ATOM     32  C   UNL d   1      54.844  33.443  55.486  0.00  0.00     0.021 C 
ENDBRANCH   4  31
TORSDOF 5
ENDMDL
MODEL 2
REMARK VINA RESULT:      -9.9      1.200      1.824
REMARK  5 active torsions:
REMARK  status: ('A' for Active; 'I' for Inactive)
REMARK    1  A    between atoms: N_5  and  C_1 
REMARK    2  A    between atoms: N_8  and  C_2 
REMARK    3  A    between atoms: C_26  and  N_4 
REMARK    4  A    between atoms: C_22  and  N_9 
REMARK    5  A    between atoms: C_21  and  C_22 
ROOT
ATOM      1  C   UNL d   1      52.743  32.894  53.440  0.00  0.00     0.199 A 
ATOM      2  C   UNL d   1      52.374  33.640  53.472  0.00  0.00     0.092 A 
ATOM      3  C   UNL d   1      53.435  32.749  53.863  0.00  0.00     0.288 A 
ATOM      4  N   UNL d   1      53.767  33.355  54.324  0.00  0.00    -0.272 N 
ATOM      5  C   UNL d   1      52.713  34.241  53.936  0.00  0.00     0.034 A 
ATOM      6  C   UNL d   1      53.407  34.097  54.360  0.00  0.00     0.068 A 
ATOM      7  O   UNL d   1      53.794  32.008  53.826  0.00  0.00    -0.265 OA
ATOM      8  C   UNL d   1      52.354  34.982  53.973  0.00  0.00     0.003 A 
ATOM      9  C   UNL d   1      53.740  34.695  54.819  0.00  0.00     0.018 A 
ATOM     10  C   UNL d   1      52.689  35.580  54.433  0.00  0.00     0.000 A 
ATOM     11  C   UNL d   1      53.381  35.436  54.856  0.00  0.00     0.002 A 
ENDROOT
BRANCH   2  12
ATOM     12  N   UNL d   1      51.688  33.788  53.055  0.00  0.00    -0.300 N 
ATOM     13  C   UNL d   1      50.962  33.569  53.378  0.00  0.00     0.100 A 
ATOM     14  C   UNL d   1      50.260  33.715  52.960  0.00  0.00     0.100 A 
ATOM     15  N   UNL d   1      50.286  34.081  52.221  0.00  0.00    -0.300 N 
ATOM     16  C   UNL d   1      51.016  34.301  51.896  0.00  0.00     0.100 A 
ATOM     17  C   UNL d   1      51.711  34.153  52.316  0.00  0.00     0.100 A 
BRANCH  15  18
ATOM     18  C   UNL d   1      49.592  34.227  51.804  0.00  0.00     0.080 C 
BRANCH  18  19
ATOM     19  C   UNL d   1      49.061  34.794  52.078  0.00  0.00     0.020 A 
ATOM     20  C   UNL d   1      48.427  35.024  51.606  0.00  0.00     0.028 A 
ATOM     21  C   UNL d   1      47.896  35.590  51.880  0.00  0.00     0.119 A 
ATOM     22  O   UNL d   1      47.224  35.924  51.541  0.00  0.00    -0.300 OA
ATOM     23  C   UNL d   1      47.999  35.927  52.626  0.00  0.00     0.119 A 
ATOM     24  C   UNL d   1      46.908  36.469  52.077  0.00  0.00     0.304 A 
ATOM     25  O   UNL d   1      47.388  36.472  52.750  0.00  0.00    -0.300 OA
ATOM     26  C   UNL d   1      48.637  35.695  53.099  0.00  0.00     0.026 A 
ATOM     27  C   UNL d   1      49.168  35.128  52.824  0.00  0.00     0.004 A 
ENDBRANCH  18  19
ENDBRANCH  15  18
ENDBRANCH   2  12
BRANCH   1  28
ATOM     28  N   UNL d   1      52.405  32.293  52.977  0.00  0.00    -0.107 N 
ATOM     29  O   UNL d   1      52.634  32.205  52.191  0.00  0.00    -0.531 OA
ATOM     30  O   UNL d   1      51.840  31.785  53.302  0.00  0.00    -0.531 OA
ENDBRANCH   1  28
BRANCH   4  31
ATOM     31  C   UNL d   1      54.459  33.211  54.746  0.00  0.00     0.083 C 
ATOM     32  C   UNL d   1      54.439  32.749  55.436  0.00  0.00     0.021 C 
ENDBRANCH   4  31
TORSDOF 5
ENDMDL
