MODEL 1
REMARK VINA RESULT:      39.2      0.000      0.000
REMARK  10 active torsions:
REMARK  status: ('A' for Active; 'I' for Inactive)
REMARK    1  A    between atoms: N_3  and  C_1 
REMARK    2  A    between atoms: C_16  and  N_2 
REMARK       I    between atoms: C_7  and  N_3 
REMARK    3  A    between atoms: C_18  and  C_7 
REMARK    4  A    between atoms: C_10  and  C_20 
REMARK       I    between atoms: N_11  and  C_10 
REMARK    5  A    between atoms: C_19  and  N_11 
REMARK    6  A    between atoms: S_14  and  C_18 
REMARK    7  A    between atoms: C_20  and  S_14 
REMARK    8  A    between atoms: O_21  and  C_15 
REMARK    9  A    between atoms: C_23  and  C_16 
REMARK   10  A    between atoms: O_22  and  C_23 
ROOT
ATOM      1  C   UNL d   1      44.594 -16.445  37.945  0.00  0.00     0.182 A 
ATOM      2  N   UNL d   1      44.176 -15.948  37.430  0.00  0.00    -0.283 N 
ATOM      3  S   UNL d   1      45.390 -16.198  37.949  0.00  0.00    -0.048 SA
ATOM      4  C   UNL d   1      45.457 -15.547  37.434  0.00  0.00     0.050 A 
ATOM      5  C   UNL d   1      44.708 -15.393  37.113  0.00  0.00     0.072 A 
ATOM      6  C   UNL d   1      46.112 -15.082  37.222  0.00  0.00     0.032 A 
ATOM      7  C   UNL d   1      44.614 -14.773  36.581  0.00  0.00     0.020 A 
ATOM      8  C   UNL d   1      45.999 -14.464  36.687  0.00  0.00     0.095 A 
ATOM      9  C   UNL d   1      45.251 -14.310  36.367  0.00  0.00     0.026 A 
ENDROOT
BRANCH   1  10
ATOM     10  N   UNL d   1      44.278 -17.077  38.380  0.00  0.00    -0.183 NA
ATOM     11  C   UNL d   1      44.907 -17.346  38.852  0.00  0.00     0.287 C 
ATOM     12  O   UNL d   1      45.649 -16.975  38.806  0.00  0.00    -0.265 OA
BRANCH  11  13
ATOM     13  C   UNL d   1      44.801 -17.977  39.367  0.00  0.00     0.098 C 
BRANCH  13  14
ATOM     14  S   UNL d   1      45.272 -18.051  40.049  0.00  0.00    -0.076 SA
BRANCH  14  15
ATOM     15  C   UNL d   1      44.941 -18.336  40.753  0.00  0.00     0.098 C 
BRANCH  15  16
ATOM     16  C   UNL d   1      45.422 -18.506  41.402  0.00  0.00     0.286 C 
ATOM     17  N   UNL d   1      45.196 -19.087  41.943  0.00  0.00    -0.208 NA
ATOM     18  O   UNL d   1      46.134 -18.089  41.505  0.00  0.00    -0.265 OA
BRANCH  17  19
ATOM     19  C   UNL d   1      45.684 -19.254  42.594  0.00  0.00     0.085 A 
ATOM     20  C   UNL d   1      46.041 -18.640  43.003  0.00  0.00     0.019 A 
ATOM     21  C   UNL d   1      46.524 -18.808  43.647  0.00  0.00     0.002 A 
ATOM     22  C   UNL d   1      46.647 -19.599  43.880  0.00  0.00     0.000 A 
ATOM     23  C   UNL d   1      46.280 -20.209  43.459  0.00  0.00     0.002 A 
ATOM     24  C   UNL d   1      45.797 -20.041  42.814  0.00  0.00     0.019 A 
ENDBRANCH  17  19
ENDBRANCH  15  16
ENDBRANCH  14  15
ENDBRANCH  13  14
ENDBRANCH  11  13
ENDBRANCH   1  10
BRANCH   2  25
ATOM     25  C   UNL d   1      43.374 -16.001  37.265  0.00  0.00     0.108 C 
BRANCH  25  26
ATOM     26  C   UNL d   1      43.072 -15.730  36.551  0.00  0.00     0.135 C 
BRANCH  26  27
ATOM     27  O   UNL d   1      42.253 -15.683  36.445  0.00  0.00    -0.325 OA
ATOM     28  C   UNL d   1      41.799 -16.368  36.378  0.00  0.00     0.182 C 
ENDBRANCH  26  27
ENDBRANCH  25  26
ENDBRANCH   2  25
BRANCH   8  29
ATOM     29  O   UNL d   1      46.646 -13.989  36.466  0.00  0.00    -0.328 OA
ATOM     30  C   UNL d   1      46.606 -13.175  36.549  0.00  0.00     0.181 C 
ENDBRANCH   8  29
TORSDOF 10
ENDMDL
