MODEL 1
REMARK VINA RESULT:      -2.7      0.000      0.000
REMARK  6 active torsions:
REMARK  status: ('A' for Active; 'I' for Inactive)
REMARK    1  A    between atoms: C_2  and  C_1 
REMARK    2  A    between atoms: C_4  and  C_1 
REMARK    3  A    between atoms: C_6  and  C_2 
REMARK    4  A    between atoms: O_12  and  C_3 
REMARK    5  A    between atoms: C_8  and  C_4 
REMARK    6  A    between atoms: O_13  and  C_10 
ROOT
ATOM      1  C   UNL d   1      33.240  20.626 -22.791  0.00  0.00     0.096 A 
ATOM      2  C   UNL d   1      33.240  21.163 -22.165  0.00  0.00     0.048 A 
ATOM      3  C   UNL d   1      33.240  19.816 -22.638  0.00  0.00     0.022 A 
ATOM      4  C   UNL d   1      33.240  19.538 -21.859  0.00  0.00     0.004 A 
ATOM      5  C   UNL d   1      33.240  20.889 -21.385  0.00  0.00     0.096 A 
ATOM      6  C   UNL d   1      33.240  20.075 -21.232  0.00  0.00     0.024 A 
ENDROOT
BRANCH   3   7
ATOM      7  C   UNL d   1      33.240  19.280 -23.264  0.00  0.00     0.005 C 
BRANCH   7   8
ATOM      8  C   UNL d   1      32.845  18.559 -23.189  0.00  0.00     0.042 C 
BRANCH   8   9
ATOM      9  C   UNL d   1      32.685  18.095 -23.848  0.00  0.00     0.196 C 
ATOM     10  O   UNL d   1      33.069  18.248 -24.564  0.00  0.00    -0.287 OA
BRANCH   9  11
ATOM     11  C   UNL d   1      32.144  17.477 -23.801  0.00  0.00     0.039 A 
ATOM     12  C   UNL d   1      32.370  16.748 -23.491  0.00  0.00     0.003 A 
ATOM     13  C   UNL d   1      31.812  16.133 -23.450  0.00  0.00     0.000 A 
ATOM     14  C   UNL d   1      31.038  16.246 -23.715  0.00  0.00     0.000 A 
ATOM     15  C   UNL d   1      30.814  16.982 -24.027  0.00  0.00     0.000 A 
ATOM     16  C   UNL d   1      31.362  17.592 -24.069  0.00  0.00     0.003 A 
ENDBRANCH   9  11
ENDBRANCH   8   9
ENDBRANCH   7   8
ENDBRANCH   3   7
BRANCH   1  17
ATOM     17  O   UNL d   1      33.240  20.900 -23.572  0.00  0.00    -0.328 OA
ATOM     18  C   UNL d   1      33.200  21.710 -23.725  0.00  0.00     0.181 C 
ENDBRANCH   1  17
BRANCH   5  19
ATOM     19  O   UNL d   1      33.240  21.426 -20.758  0.00  0.00    -0.328 OA
ATOM     20  C   UNL d   1      32.527  21.722 -20.466  0.00  0.00     0.181 C 
ENDBRANCH   5  19
TORSDOF 6
ENDMDL
MODEL 2
REMARK VINA RESULT:      -2.6      1.108      1.883
REMARK  6 active torsions:
REMARK  status: ('A' for Active; 'I' for Inactive)
REMARK    1  A    between atoms: C_2  and  C_1 
REMARK    2  A    between atoms: C_4  and  C_1 
REMARK    3  A    between atoms: C_6  and  C_2 
REMARK    4  A    between atoms: O_12  and  C_3 
REMARK    5  A    between atoms: C_8  and  C_4 
REMARK    6  A    between atoms: O_13  and  C_10 
ROOT
ATOM      1  C   UNL d   1      33.052  20.979 -21.442  0.00  0.00     0.096 A 
ATOM      2  C   UNL d   1      33.055  21.803 -21.396  0.00  0.00     0.048 A 
ATOM      3  C   UNL d   1      33.143  20.608 -22.173  0.00  0.00     0.022 A 
ATOM      4  C   UNL d   1      33.237  21.058 -22.861  0.00  0.00     0.004 A 
ATOM      5  C   UNL d   1      33.149  22.256 -22.081  0.00  0.00     0.096 A 
ATOM      6  C   UNL d   1      33.241  21.882 -22.815  0.00  0.00     0.024 A 
ENDROOT
BRANCH   3   7
ATOM      7  C   UNL d   1      33.139  19.786 -22.219  0.00  0.00     0.005 C 
BRANCH   7   8
ATOM      8  C   UNL d   1      32.941  19.414 -22.929  0.00  0.00     0.042 C 
BRANCH   8   9
ATOM      9  C   UNL d   1      32.886  18.595 -22.975  0.00  0.00     0.196 C 
ATOM     10  O   UNL d   1      33.241  18.124 -22.395  0.00  0.00    -0.287 OA
BRANCH   9  11
ATOM     11  C   UNL d   1      32.480  18.239 -23.595  0.00  0.00     0.039 A 
ATOM     12  C   UNL d   1      31.819  17.772 -23.446  0.00  0.00     0.003 A 
ATOM     13  C   UNL d   1      31.417  17.418 -24.083  0.00  0.00     0.000 A 
ATOM     14  C   UNL d   1      31.676  17.532 -24.860  0.00  0.00     0.000 A 
ATOM     15  C   UNL d   1      32.343  18.004 -25.006  0.00  0.00     0.000 A 
ATOM     16  C   UNL d   1      32.741  18.354 -24.380  0.00  0.00     0.003 A 
ENDBRANCH   9  11
ENDBRANCH   8   9
ENDBRANCH   7   8
ENDBRANCH   3   7
BRANCH   1  17
ATOM     17  O   UNL d   1      32.957  20.526 -20.757  0.00  0.00    -0.328 OA
ATOM     18  C   UNL d   1      33.233  20.810 -20.033  0.00  0.00     0.181 C 
ENDBRANCH   1  17
BRANCH   5  19
ATOM     19  O   UNL d   1      33.153  23.080 -22.035  0.00  0.00    -0.328 OA
ATOM     20  C   UNL d   1      32.455  23.505 -22.158  0.00  0.00     0.181 C 
ENDBRANCH   5  19
TORSDOF 6
ENDMDL
MODEL 3
REMARK VINA RESULT:      -2.6      0.771      1.109
REMARK  6 active torsions:
REMARK  status: ('A' for Active; 'I' for Inactive)
REMARK    1  A    between atoms: C_2  and  C_1 
REMARK    2  A    between atoms: C_4  and  C_1 
REMARK    3  A    between atoms: C_6  and  C_2 
REMARK    4  A    between atoms: O_12  and  C_3 
REMARK    5  A    between atoms: C_8  and  C_4 
REMARK    6  A    between atoms: O_13  and  C_10 
ROOT
ATOM      1  C   UNL d   1      33.137  21.638 -22.372  0.00  0.00     0.096 A 
ATOM      2  C   UNL d   1      33.051  22.147 -21.729  0.00  0.00     0.048 A 
ATOM      3  C   UNL d   1      33.154  20.822 -22.252  0.00  0.00     0.022 A 
ATOM      4  C   UNL d   1      33.085  20.511 -21.489  0.00  0.00     0.004 A 
ATOM      5  C   UNL d   1      32.981  21.840 -20.964  0.00  0.00     0.096 A 
ATOM      6  C   UNL d   1      32.998  21.020 -20.845  0.00  0.00     0.024 A 
ENDROOT
BRANCH   3   7
ATOM      7  C   UNL d   1      33.241  20.314 -22.895  0.00  0.00     0.005 C 
BRANCH   7   8
ATOM      8  C   UNL d   1      32.884  19.570 -22.882  0.00  0.00     0.042 C 
BRANCH   8   9
ATOM      9  C   UNL d   1      32.935  19.066 -23.530  0.00  0.00     0.196 C 
ATOM     10  O   UNL d   1      33.223  19.350 -24.252  0.00  0.00    -0.287 OA
BRANCH   9  11
ATOM     11  C   UNL d   1      32.702  18.280 -23.466  0.00  0.00     0.039 A 
ATOM     12  C   UNL d   1      33.223  17.713 -23.176  0.00  0.00     0.003 A 
ATOM     13  C   UNL d   1      32.973  16.922 -23.117  0.00  0.00     0.000 A 
ATOM     14  C   UNL d   1      32.210  16.703 -23.346  0.00  0.00     0.000 A 
ATOM     15  C   UNL d   1      31.687  17.277 -23.639  0.00  0.00     0.000 A 
ATOM     16  C   UNL d   1      31.931  18.058 -23.698  0.00  0.00     0.003 A 
ENDBRANCH   9  11
ENDBRANCH   8   9
ENDBRANCH   7   8
ENDBRANCH   3   7
BRANCH   1  17
ATOM     17  O   UNL d   1      33.207  21.945 -23.137  0.00  0.00    -0.328 OA
ATOM     18  C   UNL d   1      33.185  22.761 -23.258  0.00  0.00     0.181 C 
ENDBRANCH   1  17
BRANCH   5  19
ATOM     19  O   UNL d   1      32.894  22.348 -20.320  0.00  0.00    -0.328 OA
ATOM     20  C   UNL d   1      32.525  22.084 -19.630  0.00  0.00     0.181 C 
ENDBRANCH   5  19
TORSDOF 6
ENDMDL
MODEL 4
REMARK VINA RESULT:      -2.4      1.452      2.526
REMARK  6 active torsions:
REMARK  status: ('A' for Active; 'I' for Inactive)
REMARK    1  A    between atoms: C_2  and  C_1 
REMARK    2  A    between atoms: C_4  and  C_1 
REMARK    3  A    between atoms: C_6  and  C_2 
REMARK    4  A    between atoms: O_12  and  C_3 
REMARK    5  A    between atoms: C_8  and  C_4 
REMARK    6  A    between atoms: O_13  and  C_10 
ROOT
ATOM      1  C   UNL d   1      32.602  22.706 -21.380  0.00  0.00     0.096 A 
ATOM      2  C   UNL d   1      32.510  23.095 -20.658  0.00  0.00     0.048 A 
ATOM      3  C   UNL d   1      32.915  21.943 -21.398  0.00  0.00     0.022 A 
ATOM      4  C   UNL d   1      33.136  21.565 -20.696  0.00  0.00     0.004 A 
ATOM      5  C   UNL d   1      32.730  22.721 -19.955  0.00  0.00     0.096 A 
ATOM      6  C   UNL d   1      33.044  21.954 -19.974  0.00  0.00     0.024 A 
ENDROOT
BRANCH   3   7
ATOM      7  C   UNL d   1      33.007  21.554 -22.119  0.00  0.00     0.005 C 
BRANCH   7   8
ATOM      8  C   UNL d   1      33.063  20.731 -22.139  0.00  0.00     0.042 C 
BRANCH   8   9
ATOM      9  C   UNL d   1      33.125  20.329 -22.853  0.00  0.00     0.196 C 
ATOM     10  O   UNL d   1      33.240  20.751 -23.555  0.00  0.00    -0.287 OA
BRANCH   9  11
ATOM     11  C   UNL d   1      33.074  19.509 -22.875  0.00  0.00     0.039 A 
ATOM     12  C   UNL d   1      33.238  19.062 -22.203  0.00  0.00     0.003 A 
ATOM     13  C   UNL d   1      33.182  18.233 -22.241  0.00  0.00     0.000 A 
ATOM     14  C   UNL d   1      32.964  17.857 -22.943  0.00  0.00     0.000 A 
ATOM     15  C   UNL d   1      32.798  18.310 -23.619  0.00  0.00     0.000 A 
ATOM     16  C   UNL d   1      32.853  19.128 -23.585  0.00  0.00     0.003 A 
ENDBRANCH   9  11
ENDBRANCH   8   9
ENDBRANCH   7   8
ENDBRANCH   3   7
BRANCH   1  17
ATOM     17  O   UNL d   1      32.382  23.080 -22.083  0.00  0.00    -0.328 OA
ATOM     18  C   UNL d   1      31.838  23.700 -22.069  0.00  0.00     0.181 C 
ENDBRANCH   1  17
BRANCH   5  19
ATOM     19  O   UNL d   1      32.638  23.109 -19.232  0.00  0.00    -0.328 OA
ATOM     20  C   UNL d   1      33.133  22.927 -18.597  0.00  0.00     0.181 C 
ENDBRANCH   5  19
TORSDOF 6
ENDMDL
MODEL 5
REMARK VINA RESULT:      -0.5      2.014      4.803
REMARK  6 active torsions:
REMARK  status: ('A' for Active; 'I' for Inactive)
REMARK    1  A    between atoms: C_2  and  C_1 
REMARK    2  A    between atoms: C_4  and  C_1 
REMARK    3  A    between atoms: C_6  and  C_2 
REMARK    4  A    between atoms: O_12  and  C_3 
REMARK    5  A    between atoms: C_8  and  C_4 
REMARK    6  A    between atoms: O_13  and  C_10 
ROOT
ATOM      1  C   UNL d   1      29.494  17.110 -24.512  0.00  0.00     0.096 A 
ATOM      2  C   UNL d   1      28.816  16.684 -24.313  0.00  0.00     0.048 A 
ATOM      3  C   UNL d   1      30.239  16.804 -24.333  0.00  0.00     0.022 A 
ATOM      4  C   UNL d   1      30.310  16.071 -23.956  0.00  0.00     0.004 A 
ATOM      5  C   UNL d   1      28.884  15.951 -23.936  0.00  0.00     0.096 A 
ATOM      6  C   UNL d   1      29.633  15.645 -23.757  0.00  0.00     0.024 A 
ENDROOT
BRANCH   3   7
ATOM      7  C   UNL d   1      30.916  17.230 -24.531  0.00  0.00     0.005 C 
BRANCH   7   8
ATOM      8  C   UNL d   1      31.542  17.282 -23.995  0.00  0.00     0.042 C 
BRANCH   8   9
ATOM      9  C   UNL d   1      32.225  17.697 -24.183  0.00  0.00     0.196 C 
ATOM     10  O   UNL d   1      32.577  17.598 -24.926  0.00  0.00    -0.287 OA
BRANCH   9  11
ATOM     11  C   UNL d   1      32.564  18.212 -23.638  0.00  0.00     0.039 A 
ATOM     12  C   UNL d   1      32.893  17.922 -22.941  0.00  0.00     0.003 A 
ATOM     13  C   UNL d   1      33.231  18.454 -22.399  0.00  0.00     0.000 A 
ATOM     14  C   UNL d   1      33.241  19.266 -22.554  0.00  0.00     0.000 A 
ATOM     15  C   UNL d   1      32.909  19.554 -23.258  0.00  0.00     0.000 A 
ATOM     16  C   UNL d   1      32.574  19.032 -23.795  0.00  0.00     0.003 A 
ENDBRANCH   9  11
ENDBRANCH   8   9
ENDBRANCH   7   8
ENDBRANCH   3   7
BRANCH   1  17
ATOM     17  O   UNL d   1      29.427  17.843 -24.889  0.00  0.00    -0.328 OA
ATOM     18  C   UNL d   1      28.690  18.206 -24.957  0.00  0.00     0.181 C 
ENDBRANCH   1  17
BRANCH   5  19
ATOM     19  O   UNL d   1      28.206  15.524 -23.737  0.00  0.00    -0.328 OA
ATOM     20  C   UNL d   1      27.946  15.500 -22.953  0.00  0.00     0.181 C 
ENDBRANCH   5  19
TORSDOF 6
ENDMDL
