MODEL 1
REMARK VINA RESULT:      -4.7      0.000      0.000
REMARK  7 active torsions:
REMARK  status: ('A' for Active; 'I' for Inactive)
REMARK    1  A    between atoms: N_6  and  C_1 
REMARK    2  A    between atoms: C_10  and  C_2 
REMARK       I    between atoms: C_8  and  N_6 
REMARK       I    between atoms: C_9  and  N_7 
REMARK    3  A    between atoms: C_12  and  C_8 
REMARK    4  A    between atoms: O_22  and  C_9 
REMARK    5  A    between atoms: O_23  and  C_10 
REMARK    6  A    between atoms: C_24  and  O_22 
REMARK    7  A    between atoms: C_25  and  O_23 
ROOT
ATOM      1  C   UNL d   1     -47.839  12.881  22.889  0.00  0.00     0.119 A 
ATOM      2  C   UNL d   1     -48.010  12.077  22.972  0.00  0.00     0.088 A 
ATOM      3  C   UNL d   1     -46.699  12.238  23.134  0.00  0.00     0.049 A 
ATOM      4  C   UNL d   1     -47.293  11.685  23.125  0.00  0.00     0.016 A 
ATOM      5  S   UNL d   1     -47.019  12.981  22.990  0.00  0.00    -0.066 SA
ATOM      6  N   UNL d   1     -45.744  11.205  23.405  0.00  0.00    -0.251 N 
ATOM      7  C   UNL d   1     -44.967  10.962  23.546  0.00  0.00     0.378 C 
ATOM      8  C   UNL d   1     -45.906  11.997  23.277  0.00  0.00     0.091 A 
ATOM      9  C   UNL d   1     -47.134  10.877  23.254  0.00  0.00     0.020 A 
ATOM     10  C   UNL d   1     -46.353  10.649  23.394  0.00  0.00     0.085 A 
ATOM     11  O   UNL d   1     -44.358  11.517  23.557  0.00  0.00    -0.237 OA
ENDROOT
BRANCH   1  12
ATOM     12  N   UNL d   1     -48.388  13.487  22.732  0.00  0.00    -0.201 NA
ATOM     13  C   UNL d   1     -48.178  14.267  22.862  0.00  0.00     0.286 C 
ATOM     14  O   UNL d   1     -47.430  14.465  23.148  0.00  0.00    -0.265 OA
BRANCH  13  15
ATOM     15  C   UNL d   1     -48.723  14.867  22.707  0.00  0.00     0.087 A 
ATOM     16  S   UNL d   1     -48.730  15.371  22.051  0.00  0.00    -0.082 SA
ATOM     17  C   UNL d   1     -49.376  15.886  22.125  0.00  0.00     0.036 A 
ATOM     18  C   UNL d   1     -49.754  15.695  22.818  0.00  0.00     0.008 A 
ATOM     19  C   UNL d   1     -49.363  15.073  23.181  0.00  0.00     0.012 A 
ENDBRANCH  13  15
ENDBRANCH   1  12
BRANCH   2  20
ATOM     20  C   UNL d   1     -48.759  11.737  22.913  0.00  0.00     0.302 C 
ATOM     21  O   UNL d   1     -48.873  11.140  22.353  0.00  0.00    -0.259 OA
BRANCH  20  22
ATOM     22  O   UNL d   1     -49.378  11.995  23.409  0.00  0.00    -0.271 OA
BRANCH  22  23
ATOM     23  C   UNL d   1     -50.025  11.505  23.546  0.00  0.00     0.126 C 
ATOM     24  C   UNL d   1     -50.781  11.829  23.647  0.00  0.00     0.029 C 
ENDBRANCH  22  23
ENDBRANCH  20  22
ENDBRANCH   2  20
BRANCH   7  25
ATOM     25  O   UNL d   1     -44.801  10.166  23.675  0.00  0.00    -0.257 OA
BRANCH  25  26
ATOM     26  C   UNL d   1     -44.021   9.897  23.694  0.00  0.00     0.128 C 
ATOM     27  C   UNL d   1     -43.850   9.091  23.649  0.00  0.00     0.029 C 
ENDBRANCH  25  26
ENDBRANCH   7  25
TORSDOF 7
ENDMDL
MODEL 2
REMARK VINA RESULT:      -4.4      1.736      3.132
REMARK  7 active torsions:
REMARK  status: ('A' for Active; 'I' for Inactive)
REMARK    1  A    between atoms: N_6  and  C_1 
REMARK    2  A    between atoms: C_10  and  C_2 
REMARK       I    between atoms: C_8  and  N_6 
REMARK       I    between atoms: C_9  and  N_7 
REMARK    3  A    between atoms: C_12  and  C_8 
REMARK    4  A    between atoms: O_22  and  C_9 
REMARK    5  A    between atoms: O_23  and  C_10 
REMARK    6  A    between atoms: C_24  and  O_22 
REMARK    7  A    between atoms: C_25  and  O_23 
ROOT
ATOM      1  C   UNL d   1     -47.695  12.930  22.857  0.00  0.00     0.119 A 
ATOM      2  C   UNL d   1     -47.338  13.667  22.750  0.00  0.00     0.088 A 
ATOM      3  C   UNL d   1     -46.422  12.729  22.526  0.00  0.00     0.049 A 
ATOM      4  C   UNL d   1     -46.545  13.531  22.544  0.00  0.00     0.016 A 
ATOM      5  S   UNL d   1     -47.122  12.344  22.717  0.00  0.00    -0.066 SA
ATOM      6  N   UNL d   1     -45.053  12.949  22.162  0.00  0.00    -0.251 N 
ATOM      7  C   UNL d   1     -44.304  12.658  21.971  0.00  0.00     0.378 C 
ATOM      8  C   UNL d   1     -45.662  12.427  22.332  0.00  0.00     0.091 A 
ATOM      9  C   UNL d   1     -45.930  14.067  22.372  0.00  0.00     0.020 A 
ATOM     10  C   UNL d   1     -45.186  13.763  22.182  0.00  0.00     0.085 A 
ATOM     11  O   UNL d   1     -44.171  11.845  21.951  0.00  0.00    -0.237 OA
ENDROOT
BRANCH   1  12
ATOM     12  N   UNL d   1     -48.490  12.795  23.068  0.00  0.00    -0.201 NA
ATOM     13  C   UNL d   1     -48.901  12.178  22.721  0.00  0.00     0.286 C 
ATOM     14  O   UNL d   1     -48.541  11.685  22.165  0.00  0.00    -0.265 OA
BRANCH  13  15
ATOM     15  C   UNL d   1     -49.687  12.044  22.930  0.00  0.00     0.087 A 
ATOM     16  S   UNL d   1     -50.335  11.999  22.419  0.00  0.00    -0.082 SA
ATOM     17  C   UNL d   1     -51.016  11.858  22.870  0.00  0.00     0.036 A 
ATOM     18  C   UNL d   1     -50.782  11.817  23.647  0.00  0.00     0.008 A 
ATOM     19  C   UNL d   1     -49.971  11.930  23.695  0.00  0.00     0.012 A 
ENDBRANCH  13  15
ENDBRANCH   1  12
BRANCH   2  20
ATOM     20  C   UNL d   1     -47.711  14.398  22.834  0.00  0.00     0.302 C 
ATOM     21  O   UNL d   1     -47.661  14.779  23.566  0.00  0.00    -0.259 OA
BRANCH  20  22
ATOM     22  O   UNL d   1     -48.124  14.736  22.193  0.00  0.00    -0.271 OA
BRANCH  22  23
ATOM     23  C   UNL d   1     -48.399  15.510  22.244  0.00  0.00     0.126 C 
ATOM     24  C   UNL d   1     -49.131  15.717  21.915  0.00  0.00     0.029 C 
ENDBRANCH  22  23
ENDBRANCH  20  22
ENDBRANCH   2  20
BRANCH   7  25
ATOM     25  O   UNL d   1     -43.691  13.180  21.800  0.00  0.00    -0.257 OA
BRANCH  25  26
ATOM     26  C   UNL d   1     -43.032  12.929  21.373  0.00  0.00     0.128 C 
ATOM     27  C   UNL d   1     -42.339  13.377  21.360  0.00  0.00     0.029 C 
ENDBRANCH  25  26
ENDBRANCH   7  25
TORSDOF 7
ENDMDL
MODEL 3
REMARK VINA RESULT:      -3.9      1.295      2.539
REMARK  7 active torsions:
REMARK  status: ('A' for Active; 'I' for Inactive)
REMARK    1  A    between atoms: N_6  and  C_1 
REMARK    2  A    between atoms: C_10  and  C_2 
REMARK       I    between atoms: C_8  and  N_6 
REMARK       I    between atoms: C_9  and  N_7 
REMARK    3  A    between atoms: C_12  and  C_8 
REMARK    4  A    between atoms: O_22  and  C_9 
REMARK    5  A    between atoms: O_23  and  C_10 
REMARK    6  A    between atoms: C_24  and  O_22 
REMARK    7  A    between atoms: C_25  and  O_23 
ROOT
ATOM      1  C   UNL d   1     -47.661  12.530  22.978  0.00  0.00     0.119 A 
ATOM      2  C   UNL d   1     -47.023  12.975  22.702  0.00  0.00     0.088 A 
ATOM      3  C   UNL d   1     -46.552  11.813  23.150  0.00  0.00     0.049 A 
ATOM      4  C   UNL d   1     -46.336  12.520  22.813  0.00  0.00     0.016 A 
ATOM      5  S   UNL d   1     -47.367  11.804  23.258  0.00  0.00    -0.066 SA
ATOM      6  N   UNL d   1     -45.181  11.398  23.156  0.00  0.00    -0.251 N 
ATOM      7  C   UNL d   1     -44.599  10.837  23.327  0.00  0.00     0.378 C 
ATOM      8  C   UNL d   1     -45.966  11.238  23.326  0.00  0.00     0.091 A 
ATOM      9  C   UNL d   1     -45.539  12.689  22.637  0.00  0.00     0.020 A 
ATOM     10  C   UNL d   1     -44.969  12.119  22.814  0.00  0.00     0.085 A 
ATOM     11  O   UNL d   1     -44.811  10.118  23.668  0.00  0.00    -0.237 OA
ENDROOT
BRANCH   1  12
ATOM     12  N   UNL d   1     -48.461  12.765  22.978  0.00  0.00    -0.201 NA
ATOM     13  C   UNL d   1     -49.048  12.198  23.037  0.00  0.00     0.286 C 
ATOM     14  O   UNL d   1     -48.863  11.395  23.098  0.00  0.00    -0.265 OA
BRANCH  13  15
ATOM     15  C   UNL d   1     -49.840  12.430  23.037  0.00  0.00     0.087 A 
ATOM     16  S   UNL d   1     -50.304  12.606  23.698  0.00  0.00    -0.082 SA
ATOM     17  C   UNL d   1     -51.064  12.813  23.436  0.00  0.00     0.036 A 
ATOM     18  C   UNL d   1     -51.057  12.763  22.625  0.00  0.00     0.008 A 
ATOM     19  C   UNL d   1     -50.314  12.529  22.371  0.00  0.00     0.012 A 
ENDBRANCH  13  15
ENDBRANCH   1  12
BRANCH   2  20
ATOM     20  C   UNL d   1     -47.070  13.731  22.378  0.00  0.00     0.302 C 
ATOM     21  O   UNL d   1     -47.099  13.802  21.554  0.00  0.00    -0.259 OA
BRANCH  20  22
ATOM     22  O   UNL d   1     -47.086  14.402  22.874  0.00  0.00    -0.271 OA
BRANCH  22  23
ATOM     23  C   UNL d   1     -47.322  15.130  22.572  0.00  0.00     0.126 C 
ATOM     24  C   UNL d   1     -47.429  15.778  23.078  0.00  0.00     0.029 C 
ENDBRANCH  22  23
ENDBRANCH  20  22
ENDBRANCH   2  20
BRANCH   7  25
ATOM     25  O   UNL d   1     -43.811  10.996  23.156  0.00  0.00    -0.257 OA
BRANCH  25  26
ATOM     26  C   UNL d   1     -43.236  10.410  23.241  0.00  0.00     0.128 C 
ATOM     27  C   UNL d   1     -42.499  10.584  23.570  0.00  0.00     0.029 C 
ENDBRANCH  25  26
ENDBRANCH   7  25
TORSDOF 7
ENDMDL
MODEL 4
REMARK VINA RESULT:      -3.7      8.885     10.360
REMARK  7 active torsions:
REMARK  status: ('A' for Active; 'I' for Inactive)
REMARK    1  A    between atoms: N_6  and  C_1 
REMARK    2  A    between atoms: C_10  and  C_2 
REMARK       I    between atoms: C_8  and  N_6 
REMARK       I    between atoms: C_9  and  N_7 
REMARK    3  A    between atoms: C_12  and  C_8 
REMARK    4  A    between atoms: O_22  and  C_9 
REMARK    5  A    between atoms: O_23  and  C_10 
REMARK    6  A    between atoms: C_24  and  O_22 
REMARK    7  A    between atoms: C_25  and  O_23 
ROOT
ATOM      1  C   UNL d   1     -38.620  14.132  18.160  0.00  0.00     0.119 A 
ATOM      2  C   UNL d   1     -39.118  14.604  18.621  0.00  0.00     0.088 A 
ATOM      3  C   UNL d   1     -38.504  13.741  19.428  0.00  0.00     0.049 A 
ATOM      4  C   UNL d   1     -39.039  14.352  19.409  0.00  0.00     0.016 A 
ATOM      5  S   UNL d   1     -38.237  13.594  18.665  0.00  0.00    -0.066 SA
ATOM      6  N   UNL d   1     -38.672  13.640  20.847  0.00  0.00    -0.251 N 
ATOM      7  C   UNL d   1     -38.488  13.284  21.570  0.00  0.00     0.378 C 
ATOM      8  C   UNL d   1     -38.314  13.375  20.160  0.00  0.00     0.091 A 
ATOM      9  C   UNL d   1     -39.406  14.627  20.105  0.00  0.00     0.020 A 
ATOM     10  C   UNL d   1     -39.214  14.261  20.820  0.00  0.00     0.085 A 
ATOM     11  O   UNL d   1     -37.947  12.664  21.597  0.00  0.00    -0.237 OA
ENDROOT
BRANCH   1  12
ATOM     12  N   UNL d   1     -38.518  14.186  17.335  0.00  0.00    -0.201 NA
ATOM     13  C   UNL d   1     -38.368  13.507  16.902  0.00  0.00     0.286 C 
ATOM     14  O   UNL d   1     -38.316  12.769  17.269  0.00  0.00    -0.265 OA
BRANCH  13  15
ATOM     15  C   UNL d   1     -38.267  13.560  16.085  0.00  0.00     0.087 A 
ATOM     16  S   UNL d   1     -38.009  12.960  15.579  0.00  0.00    -0.082 SA
ATOM     17  C   UNL d   1     -37.991  13.260  14.806  0.00  0.00     0.036 A 
ATOM     18  C   UNL d   1     -38.235  14.034  14.845  0.00  0.00     0.008 A 
ATOM     19  C   UNL d   1     -38.407  14.227  15.623  0.00  0.00     0.012 A 
ENDBRANCH  13  15
ENDBRANCH   1  12
BRANCH   2  20
ATOM     20  C   UNL d   1     -39.601  15.210  18.339  0.00  0.00     0.302 C 
ATOM     21  O   UNL d   1     -39.245  15.921  18.115  0.00  0.00    -0.259 OA
BRANCH  20  22
ATOM     22  O   UNL d   1     -40.426  15.099  18.286  0.00  0.00    -0.271 OA
BRANCH  22  23
ATOM     23  C   UNL d   1     -40.891  15.660  17.903  0.00  0.00     0.126 C 
ATOM     24  C   UNL d   1     -41.630  15.448  17.590  0.00  0.00     0.029 C 
ENDBRANCH  22  23
ENDBRANCH  20  22
ENDBRANCH   2  20
BRANCH   7  25
ATOM     25  O   UNL d   1     -38.847  13.549  22.262  0.00  0.00    -0.257 OA
BRANCH  25  26
ATOM     26  C   UNL d   1     -38.551  13.327  22.999  0.00  0.00     0.128 C 
ATOM     27  C   UNL d   1     -38.903  13.596  23.695  0.00  0.00     0.029 C 
ENDBRANCH  25  26
ENDBRANCH   7  25
TORSDOF 7
ENDMDL
MODEL 5
REMARK VINA RESULT:      -3.5      8.196     10.164
REMARK  7 active torsions:
REMARK  status: ('A' for Active; 'I' for Inactive)
REMARK    1  A    between atoms: N_6  and  C_1 
REMARK    2  A    between atoms: C_10  and  C_2 
REMARK       I    between atoms: C_8  and  N_6 
REMARK       I    between atoms: C_9  and  N_7 
REMARK    3  A    between atoms: C_12  and  C_8 
REMARK    4  A    between atoms: O_22  and  C_9 
REMARK    5  A    between atoms: O_23  and  C_10 
REMARK    6  A    between atoms: C_24  and  O_22 
REMARK    7  A    between atoms: C_25  and  O_23 
ROOT
ATOM      1  C   UNL d   1     -38.766  14.111  20.411  0.00  0.00     0.119 A 
ATOM      2  C   UNL d   1     -39.139  14.705  19.975  0.00  0.00     0.088 A 
ATOM      3  C   UNL d   1     -38.570  13.861  19.118  0.00  0.00     0.049 A 
ATOM      4  C   UNL d   1     -39.011  14.540  19.171  0.00  0.00     0.016 A 
ATOM      5  S   UNL d   1     -38.410  13.584  19.875  0.00  0.00    -0.066 SA
ATOM      6  N   UNL d   1     -38.595  13.957  17.688  0.00  0.00    -0.251 N 
ATOM      7  C   UNL d   1     -38.387  13.665  16.944  0.00  0.00     0.378 C 
ATOM      8  C   UNL d   1     -38.355  13.559  18.364  0.00  0.00     0.091 A 
ATOM      9  C   UNL d   1     -39.258  14.949  18.488  0.00  0.00     0.020 A 
ATOM     10  C   UNL d   1     -39.043  14.647  17.750  0.00  0.00     0.085 A 
ATOM     11  O   UNL d   1     -37.939  12.976  16.882  0.00  0.00    -0.237 OA
ENDROOT
BRANCH   1  12
ATOM     12  N   UNL d   1     -38.747  14.049  21.241  0.00  0.00    -0.201 NA
ATOM     13  C   UNL d   1     -38.590  13.325  21.589  0.00  0.00     0.286 C 
ATOM     14  O   UNL d   1     -38.448  12.653  21.131  0.00  0.00    -0.265 OA
BRANCH  13  15
ATOM     15  C   UNL d   1     -38.571  13.263  22.412  0.00  0.00     0.087 A 
ATOM     16  S   UNL d   1     -37.953  12.965  22.872  0.00  0.00    -0.082 SA
ATOM     17  C   UNL d   1     -38.176  13.010  23.670  0.00  0.00     0.036 A 
ATOM     18  C   UNL d   1     -38.921  13.332  23.690  0.00  0.00     0.008 A 
ATOM     19  C   UNL d   1     -39.172  13.491  22.927  0.00  0.00     0.012 A 
ENDBRANCH  13  15
ENDBRANCH   1  12
BRANCH   2  20
ATOM     20  C   UNL d   1     -39.558  15.341  20.291  0.00  0.00     0.302 C 
ATOM     21  O   UNL d   1     -39.140  15.910  20.720  0.00  0.00    -0.259 OA
BRANCH  20  22
ATOM     22  O   UNL d   1     -40.382  15.400  20.175  0.00  0.00    -0.271 OA
BRANCH  22  23
ATOM     23  C   UNL d   1     -40.829  15.898  20.654  0.00  0.00     0.126 C 
ATOM     24  C   UNL d   1     -41.657  15.860  20.640  0.00  0.00     0.029 C 
ENDBRANCH  22  23
ENDBRANCH  20  22
ENDBRANCH   2  20
BRANCH   7  25
ATOM     25  O   UNL d   1     -38.627  14.063  16.265  0.00  0.00    -0.257 OA
BRANCH  25  26
ATOM     26  C   UNL d   1     -38.104  14.174  15.636  0.00  0.00     0.128 C 
ATOM     27  C   UNL d   1     -38.332  14.596  14.965  0.00  0.00     0.029 C 
ENDBRANCH  25  26
ENDBRANCH   7  25
TORSDOF 7
ENDMDL
