MODEL 1
REMARK VINA RESULT:     144.4      0.000      0.000
REMARK  5 active torsions:
REMARK  status: ('A' for Active; 'I' for Inactive)
REMARK    1  A    between atoms: N_9  and  C_2 
REMARK    2  A    between atoms: N_11  and  C_6 
REMARK    3  A    between atoms: C_16  and  N_11 
REMARK    4  A    between atoms: C_15  and  N_12 
REMARK    5  A    between atoms: C_24  and  C_15 
ROOT
ATOM      1  N   UNL d   1      57.973  38.734  54.248  0.00  0.00    -0.041 NA
ATOM      2  C   UNL d   1      58.711  38.615  54.478  0.00  0.00     0.738 A 
ATOM      3  C   UNL d   1      57.488  39.153  54.696  0.00  0.00     0.187 A 
ATOM      4  N   UNL d   1      58.966  38.917  55.159  0.00  0.00    -0.041 NA
ATOM      5  C   UNL d   1      57.740  39.457  55.379  0.00  0.00     0.094 A 
ATOM      6  C   UNL d   1      58.484  39.340  55.615  0.00  0.00     0.185 A 
ATOM      7  N   UNL d   1      56.251  39.698  54.918  0.00  0.00    -0.162 NA
ATOM      8  N   UNL d   1      56.744  39.271  54.460  0.00  0.00    -0.208 N 
ATOM      9  C   UNL d   1      56.506  40.001  55.599  0.00  0.00     0.127 A 
ATOM     10  C   UNL d   1      56.490  38.970  53.782  0.00  0.00     0.123 C 
ENDROOT
BRANCH   2  11
ATOM     11  N   UNL d   1      59.229  38.170  54.005  0.00  0.00    -0.134 N 
ATOM     12  C   UNL d   1      59.887  38.538  53.656  0.00  0.00     0.117 A 
ATOM     13  C   UNL d   1      60.409  38.092  53.180  0.00  0.00     0.100 A 
ATOM     14  N   UNL d   1      60.271  37.293  53.058  0.00  0.00    -0.300 N 
ATOM     15  C   UNL d   1      59.613  36.925  53.408  0.00  0.00     0.100 A 
ATOM     16  C   UNL d   1      59.095  37.357  53.877  0.00  0.00     0.117 A 
BRANCH  14  17
ATOM     17  C   UNL d   1      60.783  36.842  52.588  0.00  0.00     0.080 C 
BRANCH  17  18
ATOM     18  C   UNL d   1      61.475  36.788  52.140  0.00  0.00     0.018 A 
ATOM     19  C   UNL d   1      61.938  36.099  52.167  0.00  0.00     0.002 A 
ATOM     20  C   UNL d   1      62.622  36.055  51.719  0.00  0.00     0.000 A 
ATOM     21  C   UNL d   1      62.861  36.684  51.240  0.00  0.00     0.000 A 
ATOM     22  C   UNL d   1      62.397  37.373  51.213  0.00  0.00     0.000 A 
ATOM     23  C   UNL d   1      61.701  37.423  51.666  0.00  0.00     0.002 A 
ENDBRANCH  17  18
ENDBRANCH  14  17
ENDBRANCH   2  11
BRANCH   6  24
ATOM     24  N   UNL d   1      58.757  39.650  56.322  0.00  0.00    -0.226 NA
BRANCH  24  25
ATOM     25  C   UNL d   1      59.269  40.292  56.323  0.00  0.00     0.083 A 
ATOM     26  C   UNL d   1      58.970  41.058  56.326  0.00  0.00     0.021 A 
ATOM     27  C   UNL d   1      59.488  41.710  56.328  0.00  0.00     0.031 A 
ATOM     28  C   UNL d   1      60.301  41.593  56.326  0.00  0.00     0.140 A 
ATOM     29  C   UNL d   1      60.610  40.821  56.323  0.00  0.00     0.031 A 
ATOM     30  F   UNL d   1      60.807  42.240  56.328  0.00  0.00    -0.204 F 
ATOM     31  C   UNL d   1      60.093  40.179  56.322  0.00  0.00     0.021 A 
ENDBRANCH  24  25
ENDBRANCH   6  24
TORSDOF 5
ENDMDL
