MODEL 1
REMARK VINA RESULT:      -8.2      0.000      0.000
REMARK  3 active torsions:
REMARK  status: ('A' for Active; 'I' for Inactive)
REMARK    1  A    between atoms: N_10  and  C_3 
REMARK    2  A    between atoms: C_11  and  C_5 
REMARK    3  A    between atoms: C_13  and  N_10 
ROOT
ATOM      1  N   UNL d   1      52.194  34.171  53.517  0.00  0.00    -0.184 N 
ATOM      2  C   UNL d   1      52.892  33.896  53.892  0.00  0.00     0.168 A 
ATOM      3  C   UNL d   1      51.730  33.645  53.078  0.00  0.00     0.217 A 
ATOM      4  N   UNL d   1      52.437  35.475  54.022  0.00  0.00    -0.162 NA
ATOM      5  C   UNL d   1      53.344  34.408  54.321  0.00  0.00     0.055 A 
ATOM      6  N   UNL d   1      53.101  33.104  53.815  0.00  0.00    -0.227 NA
ATOM      7  C   UNL d   1      51.951  32.867  53.011  0.00  0.00     0.066 A 
ATOM      8  C   UNL d   1      53.124  35.204  54.391  0.00  0.00     0.104 A 
ATOM      9  C   UNL d   1      52.647  32.583  53.383  0.00  0.00     0.087 A 
ATOM     10  C   UNL d   1      51.618  32.234  52.628  0.00  0.00     0.006 A 
ATOM     11  C   UNL d   1      53.588  35.717  54.828  0.00  0.00     0.023 C 
ATOM     12  C   UNL d   1      52.725  31.784  53.220  0.00  0.00     0.019 A 
ATOM     13  C   UNL d   1      52.078  31.569  52.746  0.00  0.00     0.002 A 
ENDROOT
BRANCH   3  14
ATOM     14  N   UNL d   1      51.025  33.919  52.698  0.00  0.00    -0.383 NA
BRANCH  14  15
ATOM     15  C   UNL d   1      50.323  34.196  52.320  0.00  0.00     0.134 A 
ATOM     16  C   UNL d   1      49.696  34.508  52.791  0.00  0.00     0.032 A 
ATOM     17  C   UNL d   1      48.995  34.786  52.423  0.00  0.00     0.003 A 
ATOM     18  C   UNL d   1      48.912  34.754  51.575  0.00  0.00     0.000 A 
ATOM     19  C   UNL d   1      49.546  34.441  51.117  0.00  0.00     0.003 A 
ATOM     20  C   UNL d   1      50.251  34.161  51.487  0.00  0.00     0.032 A 
ENDBRANCH  14  15
ENDBRANCH   3  14
BRANCH   5  21
ATOM     21  C   UNL d   1      54.027  34.139  54.688  0.00  0.00     0.004 A 
ATOM     22  C   UNL d   1      53.994  33.836  55.451  0.00  0.00     0.000 A 
ATOM     23  C   UNL d   1      54.673  33.567  55.820  0.00  0.00     0.000 A 
ATOM     24  C   UNL d   1      55.395  33.599  55.423  0.00  0.00     0.000 A 
ATOM     25  C   UNL d   1      55.437  33.896  54.670  0.00  0.00     0.000 A 
ATOM     26  C   UNL d   1      54.745  34.169  54.299  0.00  0.00     0.000 A 
ENDBRANCH   5  21
TORSDOF 3
ENDMDL
MODEL 2
REMARK VINA RESULT:      -6.6     10.105     11.391
REMARK  3 active torsions:
REMARK  status: ('A' for Active; 'I' for Inactive)
REMARK    1  A    between atoms: N_10  and  C_3 
REMARK    2  A    between atoms: C_11  and  C_5 
REMARK    3  A    between atoms: C_13  and  N_10 
ROOT
ATOM      1  N   UNL d   1      44.755  28.863  59.613  0.00  0.00    -0.184 N 
ATOM      2  C   UNL d   1      44.866  28.534  58.849  0.00  0.00     0.168 A 
ATOM      3  C   UNL d   1      44.769  29.685  59.709  0.00  0.00     0.217 A 
ATOM      4  N   UNL d   1      44.619  27.560  60.156  0.00  0.00    -0.162 NA
ATOM      5  C   UNL d   1      44.853  27.732  58.754  0.00  0.00     0.055 A 
ATOM      6  N   UNL d   1      44.988  29.037  58.210  0.00  0.00    -0.227 NA
ATOM      7  C   UNL d   1      44.891  30.168  59.069  0.00  0.00     0.066 A 
ATOM      8  C   UNL d   1      44.729  27.235  59.404  0.00  0.00     0.104 A 
ATOM      9  C   UNL d   1      45.003  29.847  58.302  0.00  0.00     0.087 A 
ATOM     10  C   UNL d   1      44.933  30.975  58.991  0.00  0.00     0.006 A 
ATOM     11  C   UNL d   1      44.716  26.424  59.299  0.00  0.00     0.023 C 
ATOM     12  C   UNL d   1      45.111  30.463  57.773  0.00  0.00     0.019 A 
ATOM     13  C   UNL d   1      45.067  31.168  58.209  0.00  0.00     0.002 A 
ENDROOT
BRANCH   3  14
ATOM     14  N   UNL d   1      44.657  30.021  60.479  0.00  0.00    -0.383 NA
BRANCH  14  15
ATOM     15  C   UNL d   1      44.543  30.353  61.246  0.00  0.00     0.134 A 
ATOM     16  C   UNL d   1      44.548  29.846  61.920  0.00  0.00     0.032 A 
ATOM     17  C   UNL d   1      44.435  30.169  62.687  0.00  0.00     0.003 A 
ATOM     18  C   UNL d   1      44.317  31.006  62.788  0.00  0.00     0.000 A 
ATOM     19  C   UNL d   1      44.315  31.501  62.107  0.00  0.00     0.003 A 
ATOM     20  C   UNL d   1      44.428  31.177  61.336  0.00  0.00     0.032 A 
ENDBRANCH  14  15
ENDBRANCH   3  14
BRANCH   5  21
ATOM     21  C   UNL d   1      44.962  27.410  58.007  0.00  0.00     0.004 A 
ATOM     22  C   UNL d   1      45.720  27.289  57.716  0.00  0.00     0.000 A 
ATOM     23  C   UNL d   1      45.833  26.968  56.972  0.00  0.00     0.000 A 
ATOM     24  C   UNL d   1      45.180  26.764  56.511  0.00  0.00     0.000 A 
ATOM     25  C   UNL d   1      44.428  26.879  56.791  0.00  0.00     0.000 A 
ATOM     26  C   UNL d   1      44.318  27.206  57.547  0.00  0.00     0.000 A 
ENDBRANCH   5  21
TORSDOF 3
ENDMDL
MODEL 3
REMARK VINA RESULT:      -6.1      1.982      3.594
REMARK  3 active torsions:
REMARK  status: ('A' for Active; 'I' for Inactive)
REMARK    1  A    between atoms: N_10  and  C_3 
REMARK    2  A    between atoms: C_11  and  C_5 
REMARK    3  A    between atoms: C_13  and  N_10 
ROOT
ATOM      1  N   UNL d   1      52.490  31.603  53.441  0.00  0.00    -0.184 N 
ATOM      2  C   UNL d   1      52.972  31.028  53.817  0.00  0.00     0.168 A 
ATOM      3  C   UNL d   1      52.618  32.406  53.591  0.00  0.00     0.217 A 
ATOM      4  N   UNL d   1      51.773  30.570  52.783  0.00  0.00    -0.162 NA
ATOM      5  C   UNL d   1      52.848  30.244  53.671  0.00  0.00     0.055 A 
ATOM      6  N   UNL d   1      53.566  31.278  54.329  0.00  0.00    -0.227 NA
ATOM      7  C   UNL d   1      53.207  32.636  54.099  0.00  0.00     0.066 A 
ATOM      8  C   UNL d   1      52.248  30.004  53.153  0.00  0.00     0.104 A 
ATOM      9  C   UNL d   1      53.694  32.069  54.479  0.00  0.00     0.087 A 
ATOM     10  C   UNL d   1      53.460  33.365  54.350  0.00  0.00     0.006 A 
ATOM     11  C   UNL d   1      52.129  29.208  53.011  0.00  0.00     0.023 C 
ATOM     12  C   UNL d   1      54.234  32.462  54.954  0.00  0.00     0.019 A 
ATOM     13  C   UNL d   1      54.084  33.274  54.870  0.00  0.00     0.002 A 
ENDROOT
BRANCH   3  14
ATOM     14  N   UNL d   1      52.133  32.989  53.213  0.00  0.00    -0.383 NA
BRANCH  14  15
ATOM     15  C   UNL d   1      51.647  33.567  52.836  0.00  0.00     0.134 A 
ATOM     16  C   UNL d   1      50.905  33.773  53.183  0.00  0.00     0.032 A 
ATOM     17  C   UNL d   1      50.417  34.346  52.814  0.00  0.00     0.003 A 
ATOM     18  C   UNL d   1      50.664  34.722  52.091  0.00  0.00     0.000 A 
ATOM     19  C   UNL d   1      51.406  34.507  51.756  0.00  0.00     0.003 A 
ATOM     20  C   UNL d   1      51.899  33.930  52.126  0.00  0.00     0.032 A 
ENDBRANCH  14  15
ENDBRANCH   3  14
BRANCH   5  21
ATOM     21  C   UNL d   1      53.320  29.682  54.039  0.00  0.00     0.004 A 
ATOM     22  C   UNL d   1      53.081  29.341  54.746  0.00  0.00     0.000 A 
ATOM     23  C   UNL d   1      53.549  28.781  55.116  0.00  0.00     0.000 A 
ATOM     24  C   UNL d   1      54.266  28.557  54.775  0.00  0.00     0.000 A 
ATOM     25  C   UNL d   1      54.510  28.889  54.077  0.00  0.00     0.000 A 
ATOM     26  C   UNL d   1      54.032  29.458  53.705  0.00  0.00     0.000 A 
ENDBRANCH   5  21
TORSDOF 3
ENDMDL
MODEL 4
REMARK VINA RESULT:      -6.1      1.359      3.573
REMARK  3 active torsions:
REMARK  status: ('A' for Active; 'I' for Inactive)
REMARK    1  A    between atoms: N_10  and  C_3 
REMARK    2  A    between atoms: C_11  and  C_5 
REMARK    3  A    between atoms: C_13  and  N_10 
ROOT
ATOM      1  N   UNL d   1      53.255  32.639  54.114  0.00  0.00    -0.184 N 
ATOM      2  C   UNL d   1      53.101  33.463  54.160  0.00  0.00     0.168 A 
ATOM      3  C   UNL d   1      52.703  32.140  53.752  0.00  0.00     0.217 A 
ATOM      4  N   UNL d   1      54.491  32.833  54.783  0.00  0.00    -0.162 NA
ATOM      5  C   UNL d   1      53.639  33.951  54.512  0.00  0.00     0.055 A 
ATOM      6  N   UNL d   1      52.402  33.758  53.842  0.00  0.00    -0.227 NA
ATOM      7  C   UNL d   1      52.018  32.446  53.444  0.00  0.00     0.066 A 
ATOM      8  C   UNL d   1      54.340  33.643  54.828  0.00  0.00     0.104 A 
ATOM      9  C   UNL d   1      51.856  33.268  53.486  0.00  0.00     0.087 A 
ATOM     10  C   UNL d   1      51.387  32.104  53.065  0.00  0.00     0.006 A 
ATOM     11  C   UNL d   1      54.879  34.145  55.183  0.00  0.00     0.023 C 
ATOM     12  C   UNL d   1      51.131  33.411  53.132  0.00  0.00     0.019 A 
ATOM     13  C   UNL d   1      50.840  32.679  52.870  0.00  0.00     0.002 A 
ENDROOT
BRANCH   3  14
ATOM     14  N   UNL d   1      52.855  31.308  53.704  0.00  0.00    -0.383 NA
BRANCH  14  15
ATOM     15  C   UNL d   1      53.008  30.479  53.659  0.00  0.00     0.134 A 
ATOM     16  C   UNL d   1      53.089  30.035  54.372  0.00  0.00     0.032 A 
ATOM     17  C   UNL d   1      53.241  29.211  54.336  0.00  0.00     0.003 A 
ATOM     18  C   UNL d   1      53.316  28.819  53.583  0.00  0.00     0.000 A 
ATOM     19  C   UNL d   1      53.233  29.275  52.879  0.00  0.00     0.003 A 
ATOM     20  C   UNL d   1      53.080  30.104  52.915  0.00  0.00     0.032 A 
ENDBRANCH  14  15
ENDBRANCH   3  14
BRANCH   5  21
ATOM     21  C   UNL d   1      53.488  34.757  54.557  0.00  0.00     0.004 A 
ATOM     22  C   UNL d   1      53.709  35.253  53.941  0.00  0.00     0.000 A 
ATOM     23  C   UNL d   1      53.561  36.057  53.982  0.00  0.00     0.000 A 
ATOM     24  C   UNL d   1      53.187  36.371  54.647  0.00  0.00     0.000 A 
ATOM     25  C   UNL d   1      52.966  35.888  55.259  0.00  0.00     0.000 A 
ATOM     26  C   UNL d   1      53.118  35.072  55.214  0.00  0.00     0.000 A 
ENDBRANCH   5  21
TORSDOF 3
ENDMDL
