MODEL 1
REMARK VINA RESULT:      -7.5      0.000      0.000
REMARK  2 active torsions:
REMARK  status: ('A' for Active; 'I' for Inactive)
REMARK    1  A    between atoms: O_3  and  C_1 
REMARK    2  A    between atoms: C_2  and  O_3 
REMARK       I    between atoms: N_7  and  C_2 
ROOT
ATOM      1  C   UNL d   1     -48.841  12.483  22.729  0.00  0.00     0.129 A 
ATOM      2  C   UNL d   1     -49.536  12.810  22.427  0.00  0.00     0.105 A 
ATOM      3  C   UNL d   1     -50.264  12.619  22.744  0.00  0.00     0.026 A 
ATOM      4  C   UNL d   1     -48.901  11.951  23.369  0.00  0.00     0.059 A 
ATOM      5  C   UNL d   1     -50.314  12.097  23.371  0.00  0.00     0.037 A 
ATOM      6  C   UNL d   1     -49.619  11.763  23.682  0.00  0.00     0.015 A 
ATOM      7  N   UNL d   1     -49.481  13.340  21.790  0.00  0.00    -0.242 NA
ATOM      8 BR   UNL d   1     -48.234  11.604  23.698  0.00  0.00    -0.047 Br
ATOM      9 BR   UNL d   1     -51.064  11.901  23.698  0.00  0.00    -0.049 Br
ATOM     10  C   UNL d   1     -50.945  12.951  22.435  0.00  0.00     0.004 A 
ATOM     11  C   UNL d   1     -50.167  13.676  21.477  0.00  0.00     0.099 A 
ATOM     12  C   UNL d   1     -50.902  13.483  21.797  0.00  0.00     0.021 A 
ENDROOT
BRANCH   1  13
ATOM     13  O   UNL d   1     -48.103  12.675  22.408  0.00  0.00    -0.257 OA
BRANCH  13  14
ATOM     14  C   UNL d   1     -47.651  13.210  22.780  0.00  0.00     0.378 C 
ATOM     15  N   UNL d   1     -46.828  13.297  22.542  0.00  0.00    -0.252 N 
ATOM     16  C   UNL d   1     -46.521  12.843  21.951  0.00  0.00     0.085 A 
ATOM     17  C   UNL d   1     -46.345  13.861  22.931  0.00  0.00     0.085 A 
ATOM     18  C   UNL d   1     -45.724  12.927  21.721  0.00  0.00     0.019 A 
ATOM     19  C   UNL d   1     -45.238  13.465  22.082  0.00  0.00     0.003 A 
ATOM     20  C   UNL d   1     -45.567  13.943  22.706  0.00  0.00     0.019 A 
ATOM     21  O   UNL d   1     -47.953  13.668  23.371  0.00  0.00    -0.237 OA
ENDBRANCH  13  14
ENDBRANCH   1  13
TORSDOF 2
ENDMDL
MODEL 2
REMARK VINA RESULT:      -7.4      1.629      1.986
REMARK  2 active torsions:
REMARK  status: ('A' for Active; 'I' for Inactive)
REMARK    1  A    between atoms: O_3  and  C_1 
REMARK    2  A    between atoms: C_2  and  O_3 
REMARK       I    between atoms: N_7  and  C_2 
ROOT
ATOM      1  C   UNL d   1     -48.672  13.582  22.069  0.00  0.00     0.129 A 
ATOM      2  C   UNL d   1     -49.032  14.238  22.417  0.00  0.00     0.105 A 
ATOM      3  C   UNL d   1     -49.815  14.416  22.269  0.00  0.00     0.026 A 
ATOM      4  C   UNL d   1     -49.129  13.104  21.560  0.00  0.00     0.059 A 
ATOM      5  C   UNL d   1     -50.256  13.943  21.769  0.00  0.00     0.037 A 
ATOM      6  C   UNL d   1     -49.902  13.280  21.414  0.00  0.00     0.015 A 
ATOM      7  N   UNL d   1     -48.581  14.717  22.924  0.00  0.00    -0.242 NA
ATOM      8 BR   UNL d   1     -48.808  12.443  21.195  0.00  0.00    -0.047 Br
ATOM      9 BR   UNL d   1     -51.063  14.127  21.617  0.00  0.00    -0.049 Br
ATOM     10  C   UNL d   1     -50.160  15.070  22.620  0.00  0.00     0.004 A 
ATOM     11  C   UNL d   1     -48.927  15.376  23.279  0.00  0.00     0.099 A 
ATOM     12  C   UNL d   1     -49.718  15.556  23.130  0.00  0.00     0.021 A 
ENDROOT
BRANCH   1  13
ATOM     13  O   UNL d   1     -47.879  13.401  22.219  0.00  0.00    -0.257 OA
BRANCH  13  14
ATOM     14  C   UNL d   1     -47.708  12.815  22.725  0.00  0.00     0.378 C 
ATOM     15  N   UNL d   1     -46.883  12.602  22.853  0.00  0.00    -0.252 N 
ATOM     16  C   UNL d   1     -46.293  12.992  22.465  0.00  0.00     0.085 A 
ATOM     17  C   UNL d   1     -46.696  11.984  23.387  0.00  0.00     0.085 A 
ATOM     18  C   UNL d   1     -45.495  12.786  22.589  0.00  0.00     0.019 A 
ATOM     19  C   UNL d   1     -45.291  12.191  23.101  0.00  0.00     0.003 A 
ATOM     20  C   UNL d   1     -45.917  11.783  23.508  0.00  0.00     0.019 A 
ATOM     21  O   UNL d   1     -48.294  12.422  23.116  0.00  0.00    -0.237 OA
ENDBRANCH  13  14
ENDBRANCH   1  13
TORSDOF 2
ENDMDL
MODEL 3
REMARK VINA RESULT:      -6.9      1.565      1.844
REMARK  2 active torsions:
REMARK  status: ('A' for Active; 'I' for Inactive)
REMARK    1  A    between atoms: O_3  and  C_1 
REMARK    2  A    between atoms: C_2  and  O_3 
REMARK       I    between atoms: N_7  and  C_2 
ROOT
ATOM      1  C   UNL d   1     -48.754  14.135  22.277  0.00  0.00     0.129 A 
ATOM      2  C   UNL d   1     -49.419  13.716  22.023  0.00  0.00     0.105 A 
ATOM      3  C   UNL d   1     -50.170  14.023  22.115  0.00  0.00     0.026 A 
ATOM      4  C   UNL d   1     -48.869  14.881  22.631  0.00  0.00     0.059 A 
ATOM      5  C   UNL d   1     -50.275  14.755  22.463  0.00  0.00     0.037 A 
ATOM      6  C   UNL d   1     -49.611  15.183  22.722  0.00  0.00     0.015 A 
ATOM      7  N   UNL d   1     -49.309  12.972  21.670  0.00  0.00    -0.242 NA
ATOM      8 BR   UNL d   1     -48.235  15.328  22.897  0.00  0.00    -0.047 Br
ATOM      9 BR   UNL d   1     -51.048  15.071  22.558  0.00  0.00    -0.049 Br
ATOM     10  C   UNL d   1     -50.821  13.598  21.859  0.00  0.00     0.004 A 
ATOM     11  C   UNL d   1     -49.964  12.542  21.411  0.00  0.00     0.099 A 
ATOM     12  C   UNL d   1     -50.723  12.852  21.504  0.00  0.00     0.021 A 
ENDROOT
BRANCH   1  13
ATOM     13  O   UNL d   1     -47.993  13.824  22.184  0.00  0.00    -0.257 OA
BRANCH  13  14
ATOM     14  C   UNL d   1     -47.660  13.436  22.790  0.00  0.00     0.378 C 
ATOM     15  N   UNL d   1     -46.849  13.157  22.711  0.00  0.00    -0.252 N 
ATOM     16  C   UNL d   1     -46.434  13.288  22.032  0.00  0.00     0.085 A 
ATOM     17  C   UNL d   1     -46.492  12.747  23.348  0.00  0.00     0.085 A 
ATOM     18  C   UNL d   1     -45.649  13.018  21.956  0.00  0.00     0.019 A 
ATOM     19  C   UNL d   1     -45.283  12.618  22.559  0.00  0.00     0.003 A 
ATOM     20  C   UNL d   1     -45.726  12.483  23.274  0.00  0.00     0.019 A 
ATOM     21  O   UNL d   1     -48.071  13.303  23.471  0.00  0.00    -0.237 OA
ENDBRANCH  13  14
ENDBRANCH   1  13
TORSDOF 2
ENDMDL
MODEL 4
REMARK VINA RESULT:      -6.4      8.793     10.802
REMARK  2 active torsions:
REMARK  status: ('A' for Active; 'I' for Inactive)
REMARK    1  A    between atoms: O_3  and  C_1 
REMARK    2  A    between atoms: C_2  and  O_3 
REMARK       I    between atoms: N_7  and  C_2 
ROOT
ATOM      1  C   UNL d   1     -39.540  14.420  17.658  0.00  0.00     0.129 A 
ATOM      2  C   UNL d   1     -39.003  13.797  17.588  0.00  0.00     0.105 A 
ATOM      3  C   UNL d   1     -38.592  13.671  16.894  0.00  0.00     0.026 A 
ATOM      4  C   UNL d   1     -39.652  14.920  17.000  0.00  0.00     0.059 A 
ATOM      5  C   UNL d   1     -38.708  14.166  16.253  0.00  0.00     0.037 A 
ATOM      6  C   UNL d   1     -39.247  14.796  16.315  0.00  0.00     0.015 A 
ATOM      7  N   UNL d   1     -38.888  13.296  18.241  0.00  0.00    -0.242 NA
ATOM      8 BR   UNL d   1     -40.177  15.551  17.030  0.00  0.00    -0.047 Br
ATOM      9 BR   UNL d   1     -38.285  14.036  15.538  0.00  0.00    -0.049 Br
ATOM     10  C   UNL d   1     -38.063  13.050  16.837  0.00  0.00     0.004 A 
ATOM     11  C   UNL d   1     -38.355  12.669  18.186  0.00  0.00     0.099 A 
ATOM     12  C   UNL d   1     -37.940  12.542  17.485  0.00  0.00     0.021 A 
ENDROOT
BRANCH   1  13
ATOM     13  O   UNL d   1     -39.956  14.548  18.362  0.00  0.00    -0.257 OA
BRANCH  13  14
ATOM     14  C   UNL d   1     -39.721  15.129  18.847  0.00  0.00     0.378 C 
ATOM     15  N   UNL d   1     -40.114  15.222  19.607  0.00  0.00    -0.252 N 
ATOM     16  C   UNL d   1     -40.713  14.726  19.824  0.00  0.00     0.085 A 
ATOM     17  C   UNL d   1     -39.870  15.834  20.125  0.00  0.00     0.085 A 
ATOM     18  C   UNL d   1     -41.094  14.816  20.559  0.00  0.00     0.019 A 
ATOM     19  C   UNL d   1     -40.874  15.401  21.076  0.00  0.00     0.003 A 
ATOM     20  C   UNL d   1     -40.242  15.922  20.843  0.00  0.00     0.019 A 
ATOM     21  O   UNL d   1     -39.123  15.627  18.636  0.00  0.00    -0.237 OA
ENDBRANCH  13  14
ENDBRANCH   1  13
TORSDOF 2
ENDMDL
MODEL 5
REMARK VINA RESULT:      -6.0      9.259      9.949
REMARK  2 active torsions:
REMARK  status: ('A' for Active; 'I' for Inactive)
REMARK    1  A    between atoms: O_3  and  C_1 
REMARK    2  A    between atoms: C_2  and  O_3 
REMARK       I    between atoms: N_7  and  C_2 
ROOT
ATOM      1  C   UNL d   1     -40.134  14.863  19.220  0.00  0.00     0.129 A 
ATOM      2  C   UNL d   1     -39.848  14.494  18.538  0.00  0.00     0.105 A 
ATOM      3  C   UNL d   1     -40.046  14.770  17.795  0.00  0.00     0.026 A 
ATOM      4  C   UNL d   1     -40.630  15.527  19.130  0.00  0.00     0.059 A 
ATOM      5  C   UNL d   1     -40.533  15.422  17.716  0.00  0.00     0.037 A 
ATOM      6  C   UNL d   1     -40.825  15.800  18.397  0.00  0.00     0.015 A 
ATOM      7  N   UNL d   1     -39.354  13.832  18.623  0.00  0.00    -0.242 NA
ATOM      8 BR   UNL d   1     -40.934  15.922  19.782  0.00  0.00    -0.047 Br
ATOM      9 BR   UNL d   1     -40.736  15.706  16.951  0.00  0.00    -0.049 Br
ATOM     10  C   UNL d   1     -39.756  14.395  17.128  0.00  0.00     0.004 A 
ATOM     11  C   UNL d   1     -39.061  13.453  17.951  0.00  0.00     0.099 A 
ATOM     12  C   UNL d   1     -39.260  13.731  17.201  0.00  0.00     0.021 A 
ENDROOT
BRANCH   1  13
ATOM     13  O   UNL d   1     -39.934  14.583  19.972  0.00  0.00    -0.257 OA
BRANCH  13  14
ATOM     14  C   UNL d   1     -39.374  14.963  20.387  0.00  0.00     0.378 C 
ATOM     15  N   UNL d   1     -39.139  14.649  21.153  0.00  0.00    -0.252 N 
ATOM     16  C   UNL d   1     -39.480  13.980  21.446  0.00  0.00     0.085 A 
ATOM     17  C   UNL d   1     -38.548  15.046  21.596  0.00  0.00     0.085 A 
ATOM     18  C   UNL d   1     -39.252  13.676  22.187  0.00  0.00     0.019 A 
ATOM     19  C   UNL d   1     -38.683  14.043  22.633  0.00  0.00     0.003 A 
ATOM     20  C   UNL d   1     -38.325  14.750  22.320  0.00  0.00     0.019 A 
ATOM     21  O   UNL d   1     -39.030  15.633  20.099  0.00  0.00    -0.237 OA
ENDBRANCH  13  14
ENDBRANCH   1  13
TORSDOF 2
ENDMDL
MODEL 6
REMARK VINA RESULT:      -5.6      2.011      2.615
REMARK  2 active torsions:
REMARK  status: ('A' for Active; 'I' for Inactive)
REMARK    1  A    between atoms: O_3  and  C_1 
REMARK    2  A    between atoms: C_2  and  O_3 
REMARK       I    between atoms: N_7  and  C_2 
ROOT
ATOM      1  C   UNL d   1     -47.194  12.904  23.012  0.00  0.00     0.129 A 
ATOM      2  C   UNL d   1     -47.906  12.633  22.694  0.00  0.00     0.105 A 
ATOM      3  C   UNL d   1     -48.473  13.156  22.423  0.00  0.00     0.026 A 
ATOM      4  C   UNL d   1     -47.067  13.728  23.050  0.00  0.00     0.059 A 
ATOM      5  C   UNL d   1     -48.340  13.961  22.464  0.00  0.00     0.037 A 
ATOM      6  C   UNL d   1     -47.626  14.243  22.782  0.00  0.00     0.015 A 
ATOM      7  N   UNL d   1     -48.038  11.814  22.655  0.00  0.00    -0.242 NA
ATOM      8 BR   UNL d   1     -46.373  14.037  23.358  0.00  0.00    -0.047 Br
ATOM      9 BR   UNL d   1     -48.924  14.499  22.184  0.00  0.00    -0.049 Br
ATOM     10  C   UNL d   1     -49.174  12.874  22.111  0.00  0.00     0.004 A 
ATOM     11  C   UNL d   1     -48.745  11.528  22.340  0.00  0.00     0.099 A 
ATOM     12  C   UNL d   1     -49.317  12.056  22.066  0.00  0.00     0.021 A 
ENDROOT
BRANCH   1  13
ATOM     13  O   UNL d   1     -46.621  12.375  23.287  0.00  0.00    -0.257 OA
BRANCH  13  14
ATOM     14  C   UNL d   1     -45.908  12.368  22.939  0.00  0.00     0.378 C 
ATOM     15  N   UNL d   1     -45.382  11.700  23.081  0.00  0.00    -0.252 N 
ATOM     16  C   UNL d   1     -45.610  11.092  23.558  0.00  0.00     0.085 A 
ATOM     17  C   UNL d   1     -44.628  11.687  22.717  0.00  0.00     0.085 A 
ATOM     18  C   UNL d   1     -45.102  10.446  23.695  0.00  0.00     0.019 A 
ATOM     19  C   UNL d   1     -44.368  10.411  23.353  0.00  0.00     0.003 A 
ATOM     20  C   UNL d   1     -44.131  11.056  22.850  0.00  0.00     0.019 A 
ATOM     21  O   UNL d   1     -45.675  12.974  22.461  0.00  0.00    -0.237 OA
ENDBRANCH  13  14
ENDBRANCH   1  13
TORSDOF 2
ENDMDL
MODEL 7
REMARK VINA RESULT:      -5.6      9.110     10.527
REMARK  2 active torsions:
REMARK  status: ('A' for Active; 'I' for Inactive)
REMARK    1  A    between atoms: O_3  and  C_1 
REMARK    2  A    between atoms: C_2  and  O_3 
REMARK       I    between atoms: N_7  and  C_2 
ROOT
ATOM      1  C   UNL d   1     -39.848  14.708  18.751  0.00  0.00     0.129 A 
ATOM      2  C   UNL d   1     -39.507  14.560  19.487  0.00  0.00     0.105 A 
ATOM      3  C   UNL d   1     -39.863  14.816  20.177  0.00  0.00     0.026 A 
ATOM      4  C   UNL d   1     -40.569  15.126  18.727  0.00  0.00     0.059 A 
ATOM      5  C   UNL d   1     -40.570  15.225  20.145  0.00  0.00     0.037 A 
ATOM      6  C   UNL d   1     -40.922  15.378  19.407  0.00  0.00     0.015 A 
ATOM      7  N   UNL d   1     -38.788  14.144  19.516  0.00  0.00    -0.242 NA
ATOM      8 BR   UNL d   1     -40.941  15.293  18.015  0.00  0.00    -0.047 Br
ATOM      9 BR   UNL d   1     -40.938  15.488  20.854  0.00  0.00    -0.049 Br
ATOM     10  C   UNL d   1     -39.514  14.662  20.900  0.00  0.00     0.004 A 
ATOM     11  C   UNL d   1     -38.434  13.989  20.245  0.00  0.00     0.099 A 
ATOM     12  C   UNL d   1     -38.795  14.246  20.941  0.00  0.00     0.021 A 
ENDROOT
BRANCH   1  13
ATOM     13  O   UNL d   1     -39.487  14.449  18.053  0.00  0.00    -0.257 OA
BRANCH  13  14
ATOM     14  C   UNL d   1     -39.114  14.978  17.595  0.00  0.00     0.378 C 
ATOM     15  N   UNL d   1     -38.714  14.705  16.883  0.00  0.00    -0.252 N 
ATOM     16  C   UNL d   1     -38.717  13.923  16.684  0.00  0.00     0.085 A 
ATOM     17  C   UNL d   1     -38.318  15.259  16.396  0.00  0.00     0.085 A 
ATOM     18  C   UNL d   1     -38.330  13.659  15.996  0.00  0.00     0.019 A 
ATOM     19  C   UNL d   1     -37.941  14.177  15.509  0.00  0.00     0.003 A 
ATOM     20  C   UNL d   1     -37.939  15.001  15.723  0.00  0.00     0.019 A 
ATOM     21  O   UNL d   1     -39.107  15.761  17.789  0.00  0.00    -0.237 OA
ENDBRANCH  13  14
ENDBRANCH   1  13
TORSDOF 2
ENDMDL
