MODEL 1
REMARK VINA RESULT:      -8.2      0.000      0.000
REMARK  4 active torsions:
REMARK  status: ('A' for Active; 'I' for Inactive)
REMARK    1  A    between atoms: C_2  and  S_1 
REMARK    2  A    between atoms: C_5  and  S_1 
REMARK    3  A    between atoms: C_7  and  C_5 
REMARK       I    between atoms: N_11  and  C_7 
REMARK    4  A    between atoms: C_14  and  N_11 
ROOT
ATOM      1  S   UNL d   1      52.268  33.881  53.450  0.00  0.00     0.217 S 
ATOM      2  O   UNL d   1      52.712  34.171  52.810  0.00  0.00    -0.217 OA
ATOM      3  O   UNL d   1      51.824  33.591  54.093  0.00  0.00    -0.217 OA
ENDROOT
BRANCH   1   4
ATOM      4  C   UNL d   1      52.832  34.175  53.978  0.00  0.00     0.109 A 
ATOM      5  C   UNL d   1      52.866  34.944  54.273  0.00  0.00     0.110 A 
ATOM      6  N   UNL d   1      53.511  34.997  54.778  0.00  0.00    -0.243 NA
ATOM      7  C   UNL d   1      53.880  34.257  54.796  0.00  0.00     0.082 A 
ATOM      8  C   UNL d   1      53.457  33.756  54.301  0.00  0.00     0.030 A 
ATOM      9  C   UNL d   1      54.545  33.982  55.199  0.00  0.00     0.019 A 
ATOM     10  C   UNL d   1      53.696  32.971  54.205  0.00  0.00     0.002 A 
ATOM     11  C   UNL d   1      54.360  32.695  54.608  0.00  0.00     0.000 A 
ATOM     12  C   UNL d   1      54.780  33.198  55.101  0.00  0.00     0.002 A 
ENDBRANCH   1   4
BRANCH   1  13
ATOM     13  C   UNL d   1      51.692  33.580  52.920  0.00  0.00     0.161 C 
BRANCH  13  14
ATOM     14  C   UNL d   1      51.100  34.085  52.637  0.00  0.00     0.291 C 
ATOM     15  N   UNL d   1      50.309  33.882  52.759  0.00  0.00    -0.207 NA
ATOM     16  O   UNL d   1      51.290  34.775  52.242  0.00  0.00    -0.264 OA
BRANCH  15  17
ATOM     17  C   UNL d   1      49.713  34.383  52.478  0.00  0.00     0.085 A 
ATOM     18  C   UNL d   1      49.445  34.323  51.701  0.00  0.00     0.019 A 
ATOM     19  C   UNL d   1      48.849  34.826  51.424  0.00  0.00     0.002 A 
ATOM     20  C   UNL d   1      48.517  35.397  51.927  0.00  0.00     0.000 A 
ATOM     21  C   UNL d   1      48.789  35.454  52.705  0.00  0.00     0.002 A 
ATOM     22  C   UNL d   1      49.383  34.949  52.977  0.00  0.00     0.019 A 
ENDBRANCH  15  17
ENDBRANCH  13  14
ENDBRANCH   1  13
TORSDOF 4
ENDMDL
MODEL 2
REMARK VINA RESULT:      -7.9      1.021      4.674
REMARK  4 active torsions:
REMARK  status: ('A' for Active; 'I' for Inactive)
REMARK    1  A    between atoms: C_2  and  S_1 
REMARK    2  A    between atoms: C_5  and  S_1 
REMARK    3  A    between atoms: C_7  and  C_5 
REMARK       I    between atoms: N_11  and  C_7 
REMARK    4  A    between atoms: C_14  and  N_11 
ROOT
ATOM      1  S   UNL d   1      51.108  33.842  52.707  0.00  0.00     0.217 S 
ATOM      2  O   UNL d   1      51.484  34.415  52.239  0.00  0.00    -0.217 OA
ATOM      3  O   UNL d   1      50.729  33.266  53.177  0.00  0.00    -0.217 OA
ENDROOT
BRANCH   1   4
ATOM      4  C   UNL d   1      50.444  34.330  52.776  0.00  0.00     0.109 A 
ATOM      5  C   UNL d   1      50.245  34.787  53.433  0.00  0.00     0.110 A 
ATOM      6  N   UNL d   1      49.545  35.184  53.265  0.00  0.00    -0.243 NA
ATOM      7  C   UNL d   1      49.310  34.971  52.501  0.00  0.00     0.082 A 
ATOM      8  C   UNL d   1      49.868  34.445  52.206  0.00  0.00     0.030 A 
ATOM      9  C   UNL d   1      48.660  35.192  52.043  0.00  0.00     0.019 A 
ATOM     10  C   UNL d   1      49.780  34.134  51.446  0.00  0.00     0.002 A 
ATOM     11  C   UNL d   1      49.131  34.354  50.987  0.00  0.00     0.000 A 
ATOM     12  C   UNL d   1      48.577  34.879  51.285  0.00  0.00     0.002 A 
ENDBRANCH   1   4
BRANCH   1  13
ATOM     13  C   UNL d   1      51.778  33.341  52.641  0.00  0.00     0.161 C 
BRANCH  13  14
ATOM     14  C   UNL d   1      52.450  33.503  53.096  0.00  0.00     0.291 C 
ATOM     15  N   UNL d   1      52.841  32.879  53.470  0.00  0.00    -0.207 NA
ATOM     16  O   UNL d   1      52.727  34.269  53.178  0.00  0.00    -0.264 OA
BRANCH  15  17
ATOM     17  C   UNL d   1      53.513  33.036  53.926  0.00  0.00     0.085 A 
ATOM     18  C   UNL d   1      53.443  33.257  54.717  0.00  0.00     0.019 A 
ATOM     19  C   UNL d   1      54.118  33.413  55.169  0.00  0.00     0.002 A 
ATOM     20  C   UNL d   1      54.872  33.349  54.830  0.00  0.00     0.000 A 
ATOM     21  C   UNL d   1      54.939  33.127  54.036  0.00  0.00     0.002 A 
ATOM     22  C   UNL d   1      54.262  32.972  53.589  0.00  0.00     0.019 A 
ENDBRANCH  15  17
ENDBRANCH  13  14
ENDBRANCH   1  13
TORSDOF 4
ENDMDL
MODEL 3
REMARK VINA RESULT:      -7.5      2.502      4.518
REMARK  4 active torsions:
REMARK  status: ('A' for Active; 'I' for Inactive)
REMARK    1  A    between atoms: C_2  and  S_1 
REMARK    2  A    between atoms: C_5  and  S_1 
REMARK    3  A    between atoms: C_7  and  C_5 
REMARK       I    between atoms: N_11  and  C_7 
REMARK    4  A    between atoms: C_14  and  N_11 
ROOT
ATOM      1  S   UNL d   1      53.453  32.607  53.727  0.00  0.00     0.217 S 
ATOM      2  O   UNL d   1      54.218  32.669  53.408  0.00  0.00    -0.217 OA
ATOM      3  O   UNL d   1      52.686  32.546  54.047  0.00  0.00    -0.217 OA
ENDROOT
BRANCH   1   4
ATOM      4  C   UNL d   1      53.583  33.288  54.177  0.00  0.00     0.109 A 
ATOM      5  C   UNL d   1      54.069  33.347  54.840  0.00  0.00     0.110 A 
ATOM      6  N   UNL d   1      54.036  34.120  55.114  0.00  0.00    -0.243 NA
ATOM      7  C   UNL d   1      53.527  34.543  54.619  0.00  0.00     0.082 A 
ATOM      8  C   UNL d   1      53.251  34.025  54.043  0.00  0.00     0.030 A 
ATOM      9  C   UNL d   1      53.283  35.332  54.622  0.00  0.00     0.019 A 
ATOM     10  C   UNL d   1      52.726  34.292  53.464  0.00  0.00     0.002 A 
ATOM     11  C   UNL d   1      52.482  35.080  53.466  0.00  0.00     0.000 A 
ATOM     12  C   UNL d   1      52.759  35.594  54.042  0.00  0.00     0.002 A 
ENDBRANCH   1   4
BRANCH   1  13
ATOM     13  C   UNL d   1      53.316  31.915  53.273  0.00  0.00     0.161 C 
BRANCH  13  14
ATOM     14  C   UNL d   1      53.514  31.177  53.591  0.00  0.00     0.291 C 
ATOM     15  N   UNL d   1      52.914  30.628  53.735  0.00  0.00    -0.207 NA
ATOM     16  O   UNL d   1      54.292  30.989  53.762  0.00  0.00    -0.264 OA
BRANCH  15  17
ATOM     17  C   UNL d   1      53.108  29.889  54.053  0.00  0.00     0.085 A 
ATOM     18  C   UNL d   1      53.366  29.276  53.565  0.00  0.00     0.019 A 
ATOM     19  C   UNL d   1      53.559  28.539  53.887  0.00  0.00     0.002 A 
ATOM     20  C   UNL d   1      53.494  28.409  54.704  0.00  0.00     0.000 A 
ATOM     21  C   UNL d   1      53.234  29.026  55.190  0.00  0.00     0.002 A 
ATOM     22  C   UNL d   1      53.043  29.761  54.864  0.00  0.00     0.019 A 
ENDBRANCH  15  17
ENDBRANCH  13  14
ENDBRANCH   1  13
TORSDOF 4
ENDMDL
