MODEL 1
REMARK VINA RESULT:      -2.2      0.000      0.000
REMARK  2 active torsions:
REMARK  status: ('A' for Active; 'I' for Inactive)
REMARK    1  A    between atoms: C_6  and  N_2 
REMARK    2  A    between atoms: C_4  and  C_6 
ROOT
ATOM      1  C   UNL d   1      29.078  16.200 -23.711  0.00  0.00     0.206 A 
ATOM      2  N   UNL d   1      29.804  16.432 -24.019  0.00  0.00    -0.277 N 
ATOM      3  N   UNL d   1      28.516  16.765 -23.938  0.00  0.00    -0.215 NA
ATOM      4  C   UNL d   1      28.905  17.344 -24.386  0.00  0.00     0.120 A 
ATOM      5  C   UNL d   1      29.702  17.138 -24.436  0.00  0.00     0.103 A 
ATOM      6  S   UNL d   1      28.932  15.526 -23.258  0.00  0.00    -0.038 SA
ENDROOT
BRANCH   2   7
ATOM      7  C   UNL d   1      30.520  16.027 -23.927  0.00  0.00     0.107 C 
BRANCH   7   8
ATOM      8  C   UNL d   1      31.234  16.442 -23.945  0.00  0.00     0.118 A 
ATOM      9  O   UNL d   1      31.560  16.881 -23.322  0.00  0.00    -0.304 OA
ATOM     10  C   UNL d   1      32.270  17.199 -23.581  0.00  0.00     0.123 A 
ATOM     11  C   UNL d   1      32.390  16.960 -24.362  0.00  0.00     0.029 A 
ATOM     12  C   UNL d   1      31.748  16.493 -24.584  0.00  0.00     0.028 A 
ENDBRANCH   7   8
ENDBRANCH   2   7
TORSDOF 2
ENDMDL
MODEL 2
REMARK VINA RESULT:      -2.1      1.630      2.968
REMARK  2 active torsions:
REMARK  status: ('A' for Active; 'I' for Inactive)
REMARK    1  A    between atoms: C_6  and  N_2 
REMARK    2  A    between atoms: C_4  and  C_6 
ROOT
ATOM      1  C   UNL d   1      31.029  17.122 -24.513  0.00  0.00     0.206 A 
ATOM      2  N   UNL d   1      30.403  16.634 -24.301  0.00  0.00    -0.277 N 
ATOM      3  N   UNL d   1      31.677  16.923 -24.035  0.00  0.00    -0.215 NA
ATOM      4  C   UNL d   1      31.441  16.309 -23.530  0.00  0.00     0.120 A 
ATOM      5  C   UNL d   1      30.652  16.130 -23.695  0.00  0.00     0.103 A 
ATOM      6  S   UNL d   1      31.018  17.705 -25.096  0.00  0.00    -0.038 SA
ENDROOT
BRANCH   2   7
ATOM      7  C   UNL d   1      29.647  16.642 -24.638  0.00  0.00     0.107 C 
BRANCH   7   8
ATOM      8  C   UNL d   1      28.996  16.388 -24.198  0.00  0.00     0.118 A 
ATOM      9  O   UNL d   1      28.564  16.843 -23.656  0.00  0.00    -0.304 OA
ATOM     10  C   UNL d   1      27.968  16.371 -23.348  0.00  0.00     0.123 A 
ATOM     11  C   UNL d   1      28.025  15.624 -23.695  0.00  0.00     0.029 A 
ATOM     12  C   UNL d   1      28.660  15.638 -24.219  0.00  0.00     0.028 A 
ENDBRANCH   7   8
ENDBRANCH   2   7
TORSDOF 2
ENDMDL
MODEL 3
REMARK VINA RESULT:      -2.0      1.917      2.642
REMARK  2 active torsions:
REMARK  status: ('A' for Active; 'I' for Inactive)
REMARK    1  A    between atoms: C_6  and  N_2 
REMARK    2  A    between atoms: C_4  and  C_6 
ROOT
ATOM      1  C   UNL d   1      32.041  16.131 -23.632  0.00  0.00     0.206 A 
ATOM      2  N   UNL d   1      32.236  16.928 -23.680  0.00  0.00    -0.277 N 
ATOM      3  N   UNL d   1      31.246  16.052 -23.853  0.00  0.00    -0.215 NA
ATOM      4  C   UNL d   1      30.957  16.808 -24.037  0.00  0.00     0.120 A 
ATOM      5  C   UNL d   1      31.570  17.349 -23.929  0.00  0.00     0.103 A 
ATOM      6  S   UNL d   1      32.544  15.517 -23.405  0.00  0.00    -0.038 SA
ENDROOT
BRANCH   2   7
ATOM      7  C   UNL d   1      32.976  17.257 -23.508  0.00  0.00     0.107 C 
BRANCH   7   8
ATOM      8  C   UNL d   1      33.034  18.051 -23.290  0.00  0.00     0.118 A 
ATOM      9  O   UNL d   1      32.893  18.362 -22.534  0.00  0.00    -0.304 OA
ATOM     10  C   UNL d   1      33.015  19.173 -22.569  0.00  0.00     0.123 A 
ATOM     11  C   UNL d   1      33.230  19.369 -23.341  0.00  0.00     0.029 A 
ATOM     12  C   UNL d   1      33.241  18.675 -23.784  0.00  0.00     0.028 A 
ENDBRANCH   7   8
ENDBRANCH   2   7
TORSDOF 2
ENDMDL
MODEL 4
REMARK VINA RESULT:      -1.9      2.297      3.180
REMARK  2 active torsions:
REMARK  status: ('A' for Active; 'I' for Inactive)
REMARK    1  A    between atoms: C_6  and  N_2 
REMARK    2  A    between atoms: C_4  and  C_6 
ROOT
ATOM      1  C   UNL d   1      32.614  18.419 -24.309  0.00  0.00     0.206 A 
ATOM      2  N   UNL d   1      32.401  17.697 -23.977  0.00  0.00    -0.277 N 
ATOM      3  N   UNL d   1      32.947  18.883 -23.709  0.00  0.00    -0.215 NA
ATOM      4  C   UNL d   1      32.936  18.440 -23.008  0.00  0.00     0.120 A 
ATOM      5  C   UNL d   1      32.598  17.705 -23.175  0.00  0.00     0.103 A 
ATOM      6  S   UNL d   1      32.514  18.643 -25.097  0.00  0.00    -0.038 SA
ENDROOT
BRANCH   2   7
ATOM      7  C   UNL d   1      32.048  17.065 -24.379  0.00  0.00     0.107 C 
BRANCH   7   8
ATOM      8  C   UNL d   1      31.562  16.537 -23.971  0.00  0.00     0.118 A 
ATOM      9  O   UNL d   1      30.768  16.661 -23.768  0.00  0.00    -0.304 OA
ATOM     10  C   UNL d   1      30.503  15.995 -23.368  0.00  0.00     0.123 A 
ATOM     11  C   UNL d   1      31.127  15.457 -23.320  0.00  0.00     0.029 A 
ATOM     12  C   UNL d   1      31.779  15.794 -23.693  0.00  0.00     0.028 A 
ENDBRANCH   7   8
ENDBRANCH   2   7
TORSDOF 2
ENDMDL
