MODEL 1
REMARK VINA RESULT:      -6.7      0.000      0.000
REMARK  4 active torsions:
REMARK  status: ('A' for Active; 'I' for Inactive)
REMARK    1  A    between atoms: N_7  and  S_1 
REMARK    2  A    between atoms: C_11  and  S_1 
REMARK    3  A    between atoms: C_14  and  N_7 
REMARK    4  A    between atoms: C_13  and  C_14 
ROOT
ATOM      1  N   UNL d   1     -39.042  15.235  22.720  0.00  0.00    -0.304 N 
ATOM      2  C   UNL d   1     -38.772  14.479  22.929  0.00  0.00     0.064 A 
ATOM      3  C   UNL d   1     -39.436  15.171  21.994  0.00  0.00     0.064 A 
ATOM      4  C   UNL d   1     -39.409  14.381  21.758  0.00  0.00     0.018 A 
ATOM      5  C   UNL d   1     -39.001  13.959  22.334  0.00  0.00     0.019 A 
ATOM      6  C   UNL d   1     -39.814  15.733  21.524  0.00  0.00     0.018 A 
ATOM      7  C   UNL d   1     -39.762  14.150  21.044  0.00  0.00     0.003 A 
ATOM      8  C   UNL d   1     -40.139  14.712  20.575  0.00  0.00     0.020 A 
ATOM      9  C   UNL d   1     -40.165  15.505  20.815  0.00  0.00     0.003 A 
ATOM     10  C   UNL d   1     -38.939  15.922  23.152  0.00  0.00     0.099 C 
ATOM     11  C   UNL d   1     -38.351  14.294  23.614  0.00  0.00     0.019 C 
ENDROOT
BRANCH   8  12
ATOM     12  C   UNL d   1     -40.490  14.476  19.863  0.00  0.00     0.112 C 
BRANCH  12  13
ATOM     13  N   UNL d   1     -40.020  14.378  19.187  0.00  0.00    -0.157 NA
BRANCH  13  14
ATOM     14  S   UNL d   1     -40.371  14.208  18.461  0.00  0.00     0.285 S 
ATOM     15  O   UNL d   1     -40.887  13.970  17.863  0.00  0.00    -0.198 OA
ATOM     16  O   UNL d   1     -40.932  13.980  19.028  0.00  0.00    -0.198 OA
BRANCH  14  17
ATOM     17  C   UNL d   1     -39.968  14.364  17.758  0.00  0.00     0.105 A 
ATOM     18  C   UNL d   1     -39.375  13.856  17.516  0.00  0.00     0.013 A 
ATOM     19  C   UNL d   1     -38.969  14.011  16.811  0.00  0.00     0.001 A 
ATOM     20  C   UNL d   1     -39.167  14.677  16.359  0.00  0.00     0.000 A 
ATOM     21  C   UNL d   1     -39.767  15.181  16.613  0.00  0.00     0.001 A 
ATOM     22  C   UNL d   1     -40.168  15.027  17.311  0.00  0.00     0.013 A 
ENDBRANCH  14  17
ENDBRANCH  13  14
ENDBRANCH  12  13
ENDBRANCH   8  12
TORSDOF 4
ENDMDL
MODEL 2
REMARK VINA RESULT:      -6.6      8.039      8.975
REMARK  4 active torsions:
REMARK  status: ('A' for Active; 'I' for Inactive)
REMARK    1  A    between atoms: N_7  and  S_1 
REMARK    2  A    between atoms: C_11  and  S_1 
REMARK    3  A    between atoms: C_14  and  N_7 
REMARK    4  A    between atoms: C_13  and  C_14 
ROOT
ATOM      1  N   UNL d   1     -44.874  12.215  22.613  0.00  0.00    -0.304 N 
ATOM      2  C   UNL d   1     -44.486  12.668  22.036  0.00  0.00     0.064 A 
ATOM      3  C   UNL d   1     -45.583  12.599  22.803  0.00  0.00     0.064 A 
ATOM      4  C   UNL d   1     -45.631  13.284  22.346  0.00  0.00     0.018 A 
ATOM      5  C   UNL d   1     -44.958  13.324  21.876  0.00  0.00     0.019 A 
ATOM      6  C   UNL d   1     -46.184  12.408  23.333  0.00  0.00     0.018 A 
ATOM      7  C   UNL d   1     -46.289  13.784  22.419  0.00  0.00     0.003 A 
ATOM      8  C   UNL d   1     -46.889  13.593  22.949  0.00  0.00     0.020 A 
ATOM      9  C   UNL d   1     -46.837  12.904  23.406  0.00  0.00     0.003 A 
ATOM     10  C   UNL d   1     -44.604  11.513  22.937  0.00  0.00     0.099 C 
ATOM     11  C   UNL d   1     -43.760  12.485  21.691  0.00  0.00     0.019 C 
ENDROOT
BRANCH   8  12
ATOM     12  C   UNL d   1     -47.544  14.096  23.018  0.00  0.00     0.112 C 
BRANCH  12  13
ATOM     13  N   UNL d   1     -48.190  14.000  22.507  0.00  0.00    -0.157 NA
BRANCH  13  14
ATOM     14  S   UNL d   1     -48.893  14.406  22.650  0.00  0.00     0.285 S 
ATOM     15  O   UNL d   1     -49.458  14.969  22.858  0.00  0.00    -0.198 OA
ATOM     16  O   UNL d   1     -48.293  14.933  22.873  0.00  0.00    -0.198 OA
BRANCH  14  17
ATOM     17  C   UNL d   1     -49.619  14.047  22.490  0.00  0.00     0.105 A 
ATOM     18  C   UNL d   1     -50.108  13.839  23.111  0.00  0.00     0.013 A 
ATOM     19  C   UNL d   1     -50.836  13.480  22.953  0.00  0.00     0.001 A 
ATOM     20  C   UNL d   1     -51.064  13.335  22.169  0.00  0.00     0.000 A 
ATOM     21  C   UNL d   1     -50.562  13.549  21.551  0.00  0.00     0.001 A 
ATOM     22  C   UNL d   1     -49.841  13.905  21.709  0.00  0.00     0.013 A 
ENDBRANCH  14  17
ENDBRANCH  13  14
ENDBRANCH  12  13
ENDBRANCH   8  12
TORSDOF 4
ENDMDL
MODEL 3
REMARK VINA RESULT:      -6.1      1.170      4.729
REMARK  4 active torsions:
REMARK  status: ('A' for Active; 'I' for Inactive)
REMARK    1  A    between atoms: N_7  and  S_1 
REMARK    2  A    between atoms: C_11  and  S_1 
REMARK    3  A    between atoms: C_14  and  N_7 
REMARK    4  A    between atoms: C_13  and  C_14 
ROOT
ATOM      1  N   UNL d   1     -38.671  14.715  16.198  0.00  0.00    -0.304 N 
ATOM      2  C   UNL d   1     -38.400  13.934  16.121  0.00  0.00     0.064 A 
ATOM      3  C   UNL d   1     -39.111  14.762  16.898  0.00  0.00     0.064 A 
ATOM      4  C   UNL d   1     -39.112  14.016  17.250  0.00  0.00     0.018 A 
ATOM      5  C   UNL d   1     -38.675  13.510  16.771  0.00  0.00     0.019 A 
ATOM      6  C   UNL d   1     -39.508  15.391  17.255  0.00  0.00     0.018 A 
ATOM      7  C   UNL d   1     -39.513  13.896  17.966  0.00  0.00     0.003 A 
ATOM      8  C   UNL d   1     -39.910  14.524  18.321  0.00  0.00     0.020 A 
ATOM      9  C   UNL d   1     -39.907  15.272  17.965  0.00  0.00     0.003 A 
ATOM     10  C   UNL d   1     -38.529  15.329  15.677  0.00  0.00     0.099 C 
ATOM     11  C   UNL d   1     -37.940  13.646  15.500  0.00  0.00     0.019 C 
ENDROOT
BRANCH   8  12
ATOM     12  C   UNL d   1     -40.309  14.399  19.035  0.00  0.00     0.112 C 
BRANCH  12  13
ATOM     13  N   UNL d   1     -40.045  14.779  19.725  0.00  0.00    -0.157 NA
BRANCH  13  14
ATOM     14  S   UNL d   1     -40.354  14.565  20.458  0.00  0.00     0.285 S 
ATOM     15  O   UNL d   1     -40.830  14.279  21.068  0.00  0.00    -0.198 OA
ATOM     16  O   UNL d   1     -40.926  14.324  19.907  0.00  0.00    -0.198 OA
BRANCH  14  17
ATOM     17  C   UNL d   1     -39.930  14.721  21.149  0.00  0.00     0.105 A 
ATOM     18  C   UNL d   1     -39.557  14.106  21.536  0.00  0.00     0.013 A 
ATOM     19  C   UNL d   1     -39.131  14.260  22.228  0.00  0.00     0.001 A 
ATOM     20  C   UNL d   1     -39.087  15.034  22.523  0.00  0.00     0.000 A 
ATOM     21  C   UNL d   1     -39.468  15.645  22.123  0.00  0.00     0.001 A 
ATOM     22  C   UNL d   1     -39.889  15.492  21.438  0.00  0.00     0.013 A 
ENDBRANCH  14  17
ENDBRANCH  13  14
ENDBRANCH  12  13
ENDBRANCH   8  12
TORSDOF 4
ENDMDL
MODEL 4
REMARK VINA RESULT:      -5.9      8.318      9.370
REMARK  4 active torsions:
REMARK  status: ('A' for Active; 'I' for Inactive)
REMARK    1  A    between atoms: N_7  and  S_1 
REMARK    2  A    between atoms: C_11  and  S_1 
REMARK    3  A    between atoms: C_14  and  N_7 
REMARK    4  A    between atoms: C_13  and  C_14 
ROOT
ATOM      1  N   UNL d   1     -50.460  13.921  22.032  0.00  0.00    -0.304 N 
ATOM      2  C   UNL d   1     -50.481  14.573  22.544  0.00  0.00     0.064 A 
ATOM      3  C   UNL d   1     -49.783  13.478  22.213  0.00  0.00     0.064 A 
ATOM      4  C   UNL d   1     -49.391  13.855  22.833  0.00  0.00     0.018 A 
ATOM      5  C   UNL d   1     -49.821  14.526  23.034  0.00  0.00     0.019 A 
ATOM      6  C   UNL d   1     -49.481  12.783  21.890  0.00  0.00     0.018 A 
ATOM      7  C   UNL d   1     -48.688  13.534  23.134  0.00  0.00     0.003 A 
ATOM      8  C   UNL d   1     -48.386  12.840  22.811  0.00  0.00     0.020 A 
ATOM      9  C   UNL d   1     -48.783  12.463  22.188  0.00  0.00     0.003 A 
ATOM     10  C   UNL d   1     -51.008  13.745  21.451  0.00  0.00     0.099 C 
ATOM     11  C   UNL d   1     -51.064  15.157  22.552  0.00  0.00     0.019 C 
ENDROOT
BRANCH   8  12
ATOM     12  C   UNL d   1     -47.684  12.523  23.115  0.00  0.00     0.112 C 
BRANCH  12  13
ATOM     13  N   UNL d   1     -46.954  12.813  22.847  0.00  0.00    -0.157 NA
BRANCH  13  14
ATOM     14  S   UNL d   1     -46.252  12.477  23.118  0.00  0.00     0.285 S 
ATOM     15  O   UNL d   1     -45.681  12.065  23.548  0.00  0.00    -0.198 OA
ATOM     16  O   UNL d   1     -46.827  12.243  23.669  0.00  0.00    -0.198 OA
BRANCH  14  17
ATOM     17  C   UNL d   1     -45.548  12.593  22.702  0.00  0.00     0.105 A 
ATOM     18  C   UNL d   1     -45.434  13.293  22.298  0.00  0.00     0.013 A 
ATOM     19  C   UNL d   1     -44.729  13.412  21.880  0.00  0.00     0.001 A 
ATOM     20  C   UNL d   1     -44.148  12.821  21.875  0.00  0.00     0.000 A 
ATOM     21  C   UNL d   1     -44.276  12.118  22.287  0.00  0.00     0.001 A 
ATOM     22  C   UNL d   1     -44.973  12.002  22.700  0.00  0.00     0.013 A 
ENDBRANCH  14  17
ENDBRANCH  13  14
ENDBRANCH  12  13
ENDBRANCH   8  12
TORSDOF 4
ENDMDL
MODEL 5
REMARK VINA RESULT:      -5.1      9.072      9.875
REMARK  4 active torsions:
REMARK  status: ('A' for Active; 'I' for Inactive)
REMARK    1  A    between atoms: N_7  and  S_1 
REMARK    2  A    between atoms: C_11  and  S_1 
REMARK    3  A    between atoms: C_14  and  N_7 
REMARK    4  A    between atoms: C_13  and  C_14 
ROOT
ATOM      1  N   UNL d   1     -45.575  11.831  22.990  0.00  0.00    -0.304 N 
ATOM      2  C   UNL d   1     -45.460  11.126  23.411  0.00  0.00     0.064 A 
ATOM      3  C   UNL d   1     -46.391  11.964  22.937  0.00  0.00     0.064 A 
ATOM      4  C   UNL d   1     -46.776  11.344  23.323  0.00  0.00     0.018 A 
ATOM      5  C   UNL d   1     -46.202  10.832  23.613  0.00  0.00     0.019 A 
ATOM      6  C   UNL d   1     -46.826  12.570  22.586  0.00  0.00     0.018 A 
ATOM      7  C   UNL d   1     -47.604  11.330  23.359  0.00  0.00     0.003 A 
ATOM      8  C   UNL d   1     -48.038  11.935  23.009  0.00  0.00     0.020 A 
ATOM      9  C   UNL d   1     -47.649  12.556  22.622  0.00  0.00     0.003 A 
ATOM     10  C   UNL d   1     -44.989  12.311  22.682  0.00  0.00     0.099 C 
ATOM     11  C   UNL d   1     -44.728  10.789  23.590  0.00  0.00     0.019 C 
ENDROOT
BRANCH   8  12
ATOM     12  C   UNL d   1     -48.865  11.916  23.047  0.00  0.00     0.112 C 
BRANCH  12  13
ATOM     13  N   UNL d   1     -49.283  12.609  23.229  0.00  0.00    -0.157 NA
BRANCH  13  14
ATOM     14  S   UNL d   1     -50.096  12.647  23.100  0.00  0.00     0.285 S 
ATOM     15  O   UNL d   1     -50.907  12.499  23.087  0.00  0.00    -0.198 OA
ATOM     16  O   UNL d   1     -49.982  11.955  23.544  0.00  0.00    -0.198 OA
BRANCH  14  17
ATOM     17  C   UNL d   1     -50.420  13.273  22.670  0.00  0.00     0.105 A 
ATOM     18  C   UNL d   1     -50.460  13.219  21.856  0.00  0.00     0.013 A 
ATOM     19  C   UNL d   1     -50.784  13.845  21.422  0.00  0.00     0.001 A 
ATOM     20  C   UNL d   1     -51.064  14.519  21.816  0.00  0.00     0.000 A 
ATOM     21  C   UNL d   1     -51.018  14.561  22.637  0.00  0.00     0.001 A 
ATOM     22  C   UNL d   1     -50.697  13.940  23.065  0.00  0.00     0.013 A 
ENDBRANCH  14  17
ENDBRANCH  13  14
ENDBRANCH  12  13
ENDBRANCH   8  12
TORSDOF 4
ENDMDL
