MODEL 1
REMARK VINA RESULT:      37.6      0.000      0.000
REMARK  4 active torsions:
REMARK  status: ('A' for Active; 'I' for Inactive)
REMARK    1  A    between atoms: C_5  and  N_1 
REMARK    2  A    between atoms: C_6  and  C_5 
REMARK       I    between atoms: N_9  and  C_6 
REMARK    3  A    between atoms: C_13  and  N_9 
REMARK    4  A    between atoms: O_19  and  C_14 
ROOT
ATOM      1  C   UNL d   1     -57.100 -99.415 -44.893  0.00  0.00     0.297 C 
ATOM      2  N   UNL d   1     -56.287 -99.496 -45.009  0.00  0.00    -0.207 NA
ATOM      3  O   UNL d   1     -57.517 -99.993 -44.478  0.00  0.00    -0.264 OA
ENDROOT
BRANCH   1   4
ATOM      4  C   UNL d   1     -57.494 -98.759 -45.191  0.00  0.00     0.148 C 
BRANCH   4   5
ATOM      5  N   UNL d   1     -58.316 -98.768 -45.263  0.00  0.00    -0.235 N 
ATOM      6  C   UNL d   1     -58.664 -98.769 -46.020  0.00  0.00     0.273 A 
ATOM      7  C   UNL d   1     -59.486 -98.778 -46.092  0.00  0.00     0.086 A 
ATOM      8  O   UNL d   1     -58.181 -98.761 -46.696  0.00  0.00    -0.266 OA
ATOM      9  C   UNL d   1     -59.839 -98.779 -46.841  0.00  0.00     0.012 C 
ATOM     10  S   UNL d   1     -59.961 -98.786 -45.407  0.00  0.00    -0.077 SA
ATOM     11  C   UNL d   1     -59.611 -98.785 -44.668  0.00  0.00     0.097 A 
ATOM     12  C   UNL d   1     -58.789 -98.776 -44.596  0.00  0.00     0.274 A 
ATOM     13  O   UNL d   1     -58.432 -98.775 -43.838  0.00  0.00    -0.266 OA
ENDBRANCH   4   5
ENDBRANCH   1   4
BRANCH   2  14
ATOM     14  C   UNL d   1     -55.892-100.156 -44.709  0.00  0.00     0.085 A 
ATOM     15  C   UNL d   1     -56.287-100.866 -44.629  0.00  0.00     0.021 A 
ATOM     16  C   UNL d   1     -55.908-101.519 -44.335  0.00  0.00     0.026 A 
ATOM     17  C   UNL d   1     -55.107-101.465 -44.113  0.00  0.00     0.094 A 
ATOM     18  C   UNL d   1     -54.711-100.756 -44.194  0.00  0.00     0.026 A 
ATOM     19  C   UNL d   1     -55.113-100.092 -44.497  0.00  0.00     0.021 A 
BRANCH  17  20
ATOM     20  O   UNL d   1     -54.715-102.140 -43.810  0.00  0.00    -0.328 OA
ATOM     21  C   UNL d   1     -54.736-102.857 -44.218  0.00  0.00     0.181 C 
ENDBRANCH  17  20
ENDBRANCH   2  14
TORSDOF 4
ENDMDL
