MODEL 1
REMARK VINA RESULT:      46.6      0.000      0.000
REMARK  3 active torsions:
REMARK  status: ('A' for Active; 'I' for Inactive)
REMARK    1  A    between atoms: N_10  and  C_3 
REMARK    2  A    between atoms: C_11  and  C_4 
REMARK    3  A    between atoms: C_12  and  N_10 
ROOT
ATOM      1  C   UNL d   1     -54.769-101.413 -42.315  0.00  0.00     0.167 A 
ATOM      2  N   UNL d   1     -54.751-102.107 -41.862  0.00  0.00    -0.195 N 
ATOM      3  C   UNL d   1     -54.733-102.059 -41.042  0.00  0.00     0.167 A 
ATOM      4  C   UNL d   1     -54.784-101.633 -43.101  0.00  0.00     0.057 A 
ATOM      5  N   UNL d   1     -54.754-102.739 -42.379  0.00  0.00    -0.161 NA
ATOM      6  N   UNL d   1     -54.770-100.683 -41.940  0.00  0.00    -0.227 NA
ATOM      7  C   UNL d   1     -54.734-101.318 -40.670  0.00  0.00     0.058 A 
ATOM      8  C   UNL d   1     -54.774-102.458 -43.135  0.00  0.00     0.124 A 
ATOM      9  C   UNL d   1     -54.752-100.639 -41.113  0.00  0.00     0.086 A 
ATOM     10  C   UNL d   1     -54.753 -99.905 -40.726  0.00  0.00     0.021 C 
ENDROOT
BRANCH   3  11
ATOM     11  N   UNL d   1     -54.715-102.752 -40.589  0.00  0.00    -0.227 NA
BRANCH  11  12
ATOM     12  C   UNL d   1     -55.087-102.771 -39.857  0.00  0.00     0.083 A 
ATOM     13  C   UNL d   1     -54.794-102.708 -39.088  0.00  0.00     0.019 A 
ATOM     14  C   UNL d   1     -55.432-102.767 -38.570  0.00  0.00     0.002 A 
ATOM     15  C   UNL d   1     -56.115-102.867 -39.006  0.00  0.00     0.002 A 
ATOM     16  C   UNL d   1     -55.912-102.871 -39.809  0.00  0.00     0.019 A 
ENDBRANCH  11  12
ENDBRANCH   3  11
BRANCH   4  17
ATOM     17  C   UNL d   1     -54.804-101.059 -43.696  0.00  0.00     0.004 A 
ATOM     18  C   UNL d   1     -54.718-100.270 -43.506  0.00  0.00     0.000 A 
ATOM     19  C   UNL d   1     -54.737 -99.692 -44.099  0.00  0.00     0.000 A 
ATOM     20  C   UNL d   1     -54.845 -99.924 -44.889  0.00  0.00     0.000 A 
ATOM     21  C   UNL d   1     -54.931-100.722 -45.074  0.00  0.00     0.000 A 
ATOM     22  C   UNL d   1     -54.911-101.284 -44.481  0.00  0.00     0.000 A 
ENDBRANCH   4  17
TORSDOF 3
ENDMDL
