MODEL 1
REMARK VINA RESULT:      -7.6      0.000      0.000
REMARK  3 active torsions:
REMARK  status: ('A' for Active; 'I' for Inactive)
REMARK    1  A    between atoms: N_9  and  C_2 
REMARK    2  A    between atoms: C_11  and  N_9 
REMARK    3  A    between atoms: O_14  and  C_13 
ROOT
ATOM      1  C   UNL d   1     -49.199  14.759  22.716  0.00  0.00     0.154 A 
ATOM      2  C   UNL d   1     -48.525  14.316  22.564  0.00  0.00     0.185 A 
ATOM      3  C   UNL d   1     -49.876  14.654  22.257  0.00  0.00     0.186 A 
ATOM      4  N   UNL d   1     -49.359  15.339  23.280  0.00  0.00    -0.218 NA
ATOM      5  N   UNL d   1     -50.453  15.170  22.539  0.00  0.00    -0.203 NA
ATOM      6  N   UNL d   1     -48.526  13.764  21.950  0.00  0.00    -0.203 NA
ATOM      7  N   UNL d   1     -49.880  14.106  21.646  0.00  0.00    -0.203 NA
ATOM      8  C   UNL d   1     -50.139  15.590  23.164  0.00  0.00     0.201 A 
ATOM      9  C   UNL d   1     -49.203  13.659  21.491  0.00  0.00     0.202 A 
ENDROOT
BRANCH   2  10
ATOM     10  N   UNL d   1     -47.847  14.421  23.023  0.00  0.00    -0.225 NA
BRANCH  10  11
ATOM     11  C   UNL d   1     -47.256  13.851  23.023  0.00  0.00     0.085 A 
ATOM     12  C   UNL d   1     -46.546  13.996  22.627  0.00  0.00     0.043 A 
ATOM     13  C   UNL d   1     -45.950  13.424  22.626  0.00  0.00     0.096 A 
ATOM     14  C   UNL d   1     -46.064  12.708  23.019  0.00  0.00     0.024 A 
ATOM     15  C   UNL d   1     -46.782  12.566  23.417  0.00  0.00     0.004 A 
ATOM     16  C   UNL d   1     -47.370  13.135  23.416  0.00  0.00     0.019 A 
BRANCH  13  17
ATOM     17  O   UNL d   1     -45.235  13.572  22.227  0.00  0.00    -0.328 OA
ATOM     18  C   UNL d   1     -44.838  12.955  21.848  0.00  0.00     0.181 C 
ENDBRANCH  13  17
ENDBRANCH  10  11
ENDBRANCH   2  10
TORSDOF 3
ENDMDL
MODEL 2
REMARK VINA RESULT:      -7.3      1.775      3.845
REMARK  3 active torsions:
REMARK  status: ('A' for Active; 'I' for Inactive)
REMARK    1  A    between atoms: N_9  and  C_2 
REMARK    2  A    between atoms: C_11  and  N_9 
REMARK    3  A    between atoms: O_14  and  C_13 
ROOT
ATOM      1  C   UNL d   1     -46.555  13.252  22.692  0.00  0.00     0.154 A 
ATOM      2  C   UNL d   1     -47.351  13.447  22.743  0.00  0.00     0.185 A 
ATOM      3  C   UNL d   1     -46.250  12.632  23.143  0.00  0.00     0.186 A 
ATOM      4  N   UNL d   1     -45.939  13.572  22.247  0.00  0.00    -0.218 NA
ATOM      5  N   UNL d   1     -45.447  12.571  22.975  0.00  0.00    -0.203 NA
ATOM      6  N   UNL d   1     -47.847  13.021  23.247  0.00  0.00    -0.203 NA
ATOM      7  N   UNL d   1     -46.742  12.207  23.645  0.00  0.00    -0.203 NA
ATOM      8  C   UNL d   1     -45.254  13.145  22.427  0.00  0.00     0.201 A 
ATOM      9  C   UNL d   1     -47.542  12.401  23.698  0.00  0.00     0.202 A 
ENDROOT
BRANCH   2  10
ATOM     10  N   UNL d   1     -47.656  14.067  22.292  0.00  0.00    -0.225 NA
BRANCH  10  11
ATOM     11  C   UNL d   1     -48.449  14.271  22.355  0.00  0.00     0.085 A 
ATOM     12  C   UNL d   1     -49.003  13.930  21.846  0.00  0.00     0.043 A 
ATOM     13  C   UNL d   1     -49.800  14.134  21.907  0.00  0.00     0.096 A 
ATOM     14  C   UNL d   1     -50.044  14.679  22.475  0.00  0.00     0.024 A 
ATOM     15  C   UNL d   1     -49.482  15.021  22.986  0.00  0.00     0.004 A 
ATOM     16  C   UNL d   1     -48.693  14.817  22.924  0.00  0.00     0.019 A 
BRANCH  13  17
ATOM     17  O   UNL d   1     -50.357  13.789  21.393  0.00  0.00    -0.328 OA
ATOM     18  C   UNL d   1     -51.018  13.403  21.700  0.00  0.00     0.181 C 
ENDBRANCH  13  17
ENDBRANCH  10  11
ENDBRANCH   2  10
TORSDOF 3
ENDMDL
MODEL 3
REMARK VINA RESULT:      -7.3      1.728      2.173
REMARK  3 active torsions:
REMARK  status: ('A' for Active; 'I' for Inactive)
REMARK    1  A    between atoms: N_9  and  C_2 
REMARK    2  A    between atoms: C_11  and  N_9 
REMARK    3  A    between atoms: O_14  and  C_13 
ROOT
ATOM      1  C   UNL d   1     -49.886  12.566  22.234  0.00  0.00     0.154 A 
ATOM      2  C   UNL d   1     -49.331  12.092  22.609  0.00  0.00     0.185 A 
ATOM      3  C   UNL d   1     -50.635  12.669  22.565  0.00  0.00     0.186 A 
ATOM      4  N   UNL d   1     -49.855  13.001  21.534  0.00  0.00    -0.218 NA
ATOM      5  N   UNL d   1     -51.064  13.167  22.069  0.00  0.00    -0.203 NA
ATOM      6  N   UNL d   1     -49.522  11.718  23.319  0.00  0.00    -0.203 NA
ATOM      7  N   UNL d   1     -50.828  12.297  23.272  0.00  0.00    -0.203 NA
ATOM      8  C   UNL d   1     -50.588  13.371  21.438  0.00  0.00     0.201 A 
ATOM      9  C   UNL d   1     -50.270  11.820  23.650  0.00  0.00     0.202 A 
ENDROOT
BRANCH   2  10
ATOM     10  N   UNL d   1     -48.582  11.990  22.278  0.00  0.00    -0.225 NA
BRANCH  10  11
ATOM     11  C   UNL d   1     -47.912  12.034  22.750  0.00  0.00     0.085 A 
ATOM     12  C   UNL d   1     -47.459  12.725  22.757  0.00  0.00     0.043 A 
ATOM     13  C   UNL d   1     -46.785  12.772  23.231  0.00  0.00     0.096 A 
ATOM     14  C   UNL d   1     -46.564  12.128  23.698  0.00  0.00     0.024 A 
ATOM     15  C   UNL d   1     -47.023  11.434  23.687  0.00  0.00     0.004 A 
ATOM     16  C   UNL d   1     -47.690  11.391  23.217  0.00  0.00     0.019 A 
BRANCH  13  17
ATOM     17  O   UNL d   1     -46.330  13.468  23.238  0.00  0.00    -0.328 OA
ATOM     18  C   UNL d   1     -45.867  13.665  22.584  0.00  0.00     0.181 C 
ENDBRANCH  13  17
ENDBRANCH  10  11
ENDBRANCH   2  10
TORSDOF 3
ENDMDL
MODEL 4
REMARK VINA RESULT:      -6.9      1.687      2.147
REMARK  3 active torsions:
REMARK  status: ('A' for Active; 'I' for Inactive)
REMARK    1  A    between atoms: N_9  and  C_2 
REMARK    2  A    between atoms: C_11  and  N_9 
REMARK    3  A    between atoms: O_14  and  C_13 
ROOT
ATOM      1  C   UNL d   1     -49.992  14.633  23.340  0.00  0.00     0.154 A 
ATOM      2  C   UNL d   1     -49.418  14.050  23.263  0.00  0.00     0.185 A 
ATOM      3  C   UNL d   1     -49.861  15.386  23.031  0.00  0.00     0.186 A 
ATOM      4  N   UNL d   1     -50.738  14.626  23.691  0.00  0.00    -0.218 NA
ATOM      5  N   UNL d   1     -50.526  15.844  23.192  0.00  0.00    -0.203 NA
ATOM      6  N   UNL d   1     -48.709  14.219  22.876  0.00  0.00    -0.203 NA
ATOM      7  N   UNL d   1     -49.156  15.558  22.646  0.00  0.00    -0.203 NA
ATOM      8  C   UNL d   1     -51.064  15.380  23.596  0.00  0.00     0.201 A 
ATOM      9  C   UNL d   1     -48.578  14.973  22.567  0.00  0.00     0.202 A 
ENDROOT
BRANCH   2  10
ATOM     10  N   UNL d   1     -49.550  13.296  23.571  0.00  0.00    -0.225 NA
BRANCH  10  11
ATOM     11  C   UNL d   1     -49.169  12.645  23.246  0.00  0.00     0.085 A 
ATOM     12  C   UNL d   1     -48.518  12.315  23.633  0.00  0.00     0.043 A 
ATOM     13  C   UNL d   1     -48.134  11.660  23.308  0.00  0.00     0.096 A 
ATOM     14  C   UNL d   1     -48.400  11.336  22.597  0.00  0.00     0.024 A 
ATOM     15  C   UNL d   1     -49.057  11.673  22.211  0.00  0.00     0.004 A 
ATOM     16  C   UNL d   1     -49.435  12.321  22.536  0.00  0.00     0.019 A 
BRANCH  13  17
ATOM     17  O   UNL d   1     -47.479  11.328  23.698  0.00  0.00    -0.328 OA
ATOM     18  C   UNL d   1     -46.727  11.381  23.362  0.00  0.00     0.181 C 
ENDBRANCH  13  17
ENDBRANCH  10  11
ENDBRANCH   2  10
TORSDOF 3
ENDMDL
MODEL 5
REMARK VINA RESULT:      -5.2      7.795      9.193
REMARK  3 active torsions:
REMARK  status: ('A' for Active; 'I' for Inactive)
REMARK    1  A    between atoms: N_9  and  C_2 
REMARK    2  A    between atoms: C_11  and  N_9 
REMARK    3  A    between atoms: O_14  and  C_13 
ROOT
ATOM      1  C   UNL d   1     -39.461  15.912  20.766  0.00  0.00     0.154 A 
ATOM      2  C   UNL d   1     -39.864  15.912  20.051  0.00  0.00     0.185 A 
ATOM      3  C   UNL d   1     -39.879  15.903  21.477  0.00  0.00     0.186 A 
ATOM      4  N   UNL d   1     -38.655  15.922  20.943  0.00  0.00    -0.218 NA
ATOM      5  N   UNL d   1     -39.331  15.906  22.092  0.00  0.00    -0.203 NA
ATOM      6  N   UNL d   1     -40.689  15.901  20.044  0.00  0.00    -0.203 NA
ATOM      7  N   UNL d   1     -40.700  15.892  21.473  0.00  0.00    -0.203 NA
ATOM      8  C   UNL d   1     -38.582  15.917  21.767  0.00  0.00     0.201 A 
ATOM      9  C   UNL d   1     -41.107  15.892  20.755  0.00  0.00     0.202 A 
ENDROOT
BRANCH   2  10
ATOM     10  N   UNL d   1     -39.445  15.922  19.340  0.00  0.00    -0.225 NA
BRANCH  10  11
ATOM     11  C   UNL d   1     -39.730  15.511  18.688  0.00  0.00     0.085 A 
ATOM     12  C   UNL d   1     -40.139  15.915  18.095  0.00  0.00     0.043 A 
ATOM     13  C   UNL d   1     -40.426  15.505  17.439  0.00  0.00     0.096 A 
ATOM     14  C   UNL d   1     -40.304  14.692  17.375  0.00  0.00     0.024 A 
ATOM     15  C   UNL d   1     -39.891  14.288  17.976  0.00  0.00     0.004 A 
ATOM     16  C   UNL d   1     -39.609  14.698  18.624  0.00  0.00     0.019 A 
BRANCH  13  17
ATOM     17  O   UNL d   1     -40.837  15.913  16.842  0.00  0.00    -0.328 OA
ATOM     18  C   UNL d   1     -41.509  15.579  16.500  0.00  0.00     0.181 C 
ENDBRANCH  13  17
ENDBRANCH  10  11
ENDBRANCH   2  10
TORSDOF 3
ENDMDL
MODEL 6
REMARK VINA RESULT:      -5.0      8.567     10.068
REMARK  3 active torsions:
REMARK  status: ('A' for Active; 'I' for Inactive)
REMARK    1  A    between atoms: N_9  and  C_2 
REMARK    2  A    between atoms: C_11  and  N_9 
REMARK    3  A    between atoms: O_14  and  C_13 
ROOT
ATOM      1  C   UNL d   1     -39.048  13.625  17.394  0.00  0.00     0.154 A 
ATOM      2  C   UNL d   1     -39.562  14.243  17.563  0.00  0.00     0.185 A 
ATOM      3  C   UNL d   1     -38.433  13.733  16.855  0.00  0.00     0.186 A 
ATOM      4  N   UNL d   1     -39.011  12.850  17.674  0.00  0.00    -0.218 NA
ATOM      5  N   UNL d   1     -38.017  13.024  16.802  0.00  0.00    -0.203 NA
ATOM      6  N   UNL d   1     -39.463  14.973  17.191  0.00  0.00    -0.203 NA
ATOM      7  N   UNL d   1     -38.332  14.459  16.484  0.00  0.00    -0.203 NA
ATOM      8  C   UNL d   1     -38.369  12.483  17.302  0.00  0.00     0.201 A 
ATOM      9  C   UNL d   1     -38.848  15.081  16.652  0.00  0.00     0.202 A 
ENDROOT
BRANCH   2  10
ATOM     10  N   UNL d   1     -40.177  14.135  18.102  0.00  0.00    -0.225 NA
BRANCH  10  11
ATOM     11  C   UNL d   1     -40.355  14.721  18.649  0.00  0.00     0.085 A 
ATOM     12  C   UNL d   1     -40.021  14.694  19.403  0.00  0.00     0.043 A 
ATOM     13  C   UNL d   1     -40.198  15.282  19.954  0.00  0.00     0.096 A 
ATOM     14  C   UNL d   1     -40.708  15.898  19.751  0.00  0.00     0.024 A 
ATOM     15  C   UNL d   1     -41.043  15.921  18.989  0.00  0.00     0.004 A 
ATOM     16  C   UNL d   1     -40.865  15.337  18.445  0.00  0.00     0.019 A 
BRANCH  13  17
ATOM     17  O   UNL d   1     -39.861  15.254  20.715  0.00  0.00    -0.328 OA
ATOM     18  C   UNL d   1     -39.222  15.741  20.902  0.00  0.00     0.181 C 
ENDBRANCH  13  17
ENDBRANCH  10  11
ENDBRANCH   2  10
TORSDOF 3
ENDMDL
