MODEL 1
REMARK VINA RESULT:      53.0      0.000      0.000
REMARK  5 active torsions:
REMARK  status: ('A' for Active; 'I' for Inactive)
REMARK    1  A    between atoms: N_2  and  S_1 
REMARK    2  A    between atoms: C_5  and  S_1 
REMARK    3  A    between atoms: S_6  and  C_3 
REMARK    4  A    between atoms: C_15  and  S_6 
REMARK    5  A    between atoms: C_14  and  C_15 
ROOT
ATOM      1  N   UNL d   1     -55.357-100.010 -43.962  0.00  0.00    -0.208 N 
ATOM      2  C   UNL d   1     -55.838 -99.333 -43.968  0.00  0.00     0.189 A 
ATOM      3  N   UNL d   1     -55.494 -98.768 -43.473  0.00  0.00    -0.219 NA
ATOM      4  C   UNL d   1     -54.712 -99.860 -43.459  0.00  0.00     0.114 A 
ATOM      5  C   UNL d   1     -54.801 -99.096 -43.161  0.00  0.00     0.121 A 
ENDROOT
BRANCH   1   6
ATOM      6  S   UNL d   1     -55.499-100.709 -44.384  0.00  0.00     0.273 S 
ATOM      7  O   UNL d   1     -55.686-101.240 -44.990  0.00  0.00    -0.200 OA
ATOM      8  O   UNL d   1     -55.664-100.240 -45.033  0.00  0.00    -0.200 OA
BRANCH   6   9
ATOM      9  C   UNL d   1     -55.335-101.198 -43.739  0.00  0.00     0.104 A 
ATOM     10  C   UNL d   1     -55.633-100.999 -43.000  0.00  0.00     0.013 A 
ATOM     11  C   UNL d   1     -55.466-101.492 -42.357  0.00  0.00     0.001 A 
ATOM     12  C   UNL d   1     -55.008-102.172 -42.457  0.00  0.00     0.000 A 
ATOM     13  C   UNL d   1     -54.713-102.363 -43.206  0.00  0.00     0.001 A 
ATOM     14  C   UNL d   1     -54.844-102.661 -41.812  0.00  0.00     0.000 C 
ATOM     15  C   UNL d   1     -54.879-101.871 -43.849  0.00  0.00     0.013 A 
ENDBRANCH   6   9
ENDBRANCH   1   6
BRANCH   2  16
ATOM     16  S   UNL d   1     -56.544 -99.241 -44.398  0.00  0.00    -0.049 SA
BRANCH  16  17
ATOM     17  C   UNL d   1     -57.142 -98.758 -44.104  0.00  0.00     0.040 C 
BRANCH  17  18
ATOM     18  C   UNL d   1     -57.928 -98.931 -44.275  0.00  0.00     0.026 A 
ATOM     19  C   UNL d   1     -58.129 -99.289 -45.006  0.00  0.00     0.099 A 
ATOM     20  N   UNL d   1     -58.909 -99.467 -45.190  0.00  0.00    -0.242 NA
ATOM     21  C   UNL d   1     -59.495 -99.287 -44.640  0.00  0.00     0.099 A 
ATOM     22  C   UNL d   1     -59.304 -98.936 -43.921  0.00  0.00     0.021 A 
ATOM     23  C   UNL d   1     -58.520 -98.758 -43.740  0.00  0.00     0.004 A 
ENDBRANCH  17  18
ENDBRANCH  16  17
ENDBRANCH   2  16
TORSDOF 5
ENDMDL
MODEL 2
REMARK VINA RESULT:      55.9      1.586      4.301
REMARK  5 active torsions:
REMARK  status: ('A' for Active; 'I' for Inactive)
REMARK    1  A    between atoms: N_2  and  S_1 
REMARK    2  A    between atoms: C_5  and  S_1 
REMARK    3  A    between atoms: S_6  and  C_3 
REMARK    4  A    between atoms: C_15  and  S_6 
REMARK    5  A    between atoms: C_14  and  C_15 
ROOT
ATOM      1  N   UNL d   1     -55.539-100.541 -43.859  0.00  0.00    -0.208 N 
ATOM      2  C   UNL d   1     -55.206-101.215 -43.508  0.00  0.00     0.189 A 
ATOM      3  N   UNL d   1     -55.281-101.845 -44.037  0.00  0.00    -0.219 NA
ATOM      4  C   UNL d   1     -55.823-100.758 -44.610  0.00  0.00     0.114 A 
ATOM      5  C   UNL d   1     -55.662-101.560 -44.714  0.00  0.00     0.121 A 
ENDROOT
BRANCH   1   6
ATOM      6  S   UNL d   1     -55.581 -99.786 -43.518  0.00  0.00     0.273 S 
ATOM      7  O   UNL d   1     -55.439 -99.132 -43.033  0.00  0.00    -0.200 OA
ATOM      8  O   UNL d   1     -54.988-100.025 -43.007  0.00  0.00    -0.200 OA
BRANCH   6   9
ATOM      9  C   UNL d   1     -56.179 -99.528 -44.025  0.00  0.00     0.104 A 
ATOM     10  C   UNL d   1     -55.976 -99.211 -44.755  0.00  0.00     0.013 A 
ATOM     11  C   UNL d   1     -56.579 -98.954 -45.259  0.00  0.00     0.001 A 
ATOM     12  C   UNL d   1     -57.371 -99.015 -45.032  0.00  0.00     0.000 A 
ATOM     13  C   UNL d   1     -57.563 -99.336 -44.295  0.00  0.00     0.001 A 
ATOM     14  C   UNL d   1     -57.969 -98.757 -45.539  0.00  0.00     0.000 C 
ATOM     15  C   UNL d   1     -56.962 -99.593 -43.790  0.00  0.00     0.013 A 
ENDBRANCH   6   9
ENDBRANCH   1   6
BRANCH   2  16
ATOM     16  S   UNL d   1     -54.856-101.249 -42.754  0.00  0.00    -0.049 SA
BRANCH  16  17
ATOM     17  C   UNL d   1     -54.717-101.979 -42.400  0.00  0.00     0.040 C 
BRANCH  17  18
ATOM     18  C   UNL d   1     -54.716-102.042 -41.580  0.00  0.00     0.026 A 
ATOM     19  C   UNL d   1     -54.714-102.799 -41.218  0.00  0.00     0.099 A 
ATOM     20  N   UNL d   1     -54.713-102.878 -40.401  0.00  0.00    -0.242 NA
ATOM     21  C   UNL d   1     -54.713-102.197 -39.939  0.00  0.00     0.099 A 
ATOM     22  C   UNL d   1     -54.714-101.452 -40.288  0.00  0.00     0.021 A 
ATOM     23  C   UNL d   1     -54.716-101.377 -41.109  0.00  0.00     0.004 A 
ENDBRANCH  17  18
ENDBRANCH  16  17
ENDBRANCH   2  16
TORSDOF 5
ENDMDL
