MODEL 1
REMARK VINA RESULT:      74.6      0.000      0.000
REMARK  4 active torsions:
REMARK  status: ('A' for Active; 'I' for Inactive)
REMARK    1  A    between atoms: S_11  and  C_4 
REMARK       I    between atoms: N_8  and  C_10 
REMARK    2  A    between atoms: C_20  and  N_9 
REMARK    3  A    between atoms: C_10  and  C_15 
REMARK    4  A    between atoms: C_15  and  S_11 
ROOT
ATOM      1  N   UNL d   1     -48.387  28.562  34.586  0.00  0.00    -0.269 N 
ATOM      2  N   UNL d   1     -47.949  30.132  34.808  0.00  0.00    -0.301 N 
ATOM      3  C   UNL d   1     -48.607  27.775  34.475  0.00  0.00     0.272 C 
ATOM      4  C   UNL d   1     -48.787  29.162  34.185  0.00  0.00     0.102 A 
ATOM      5  C   UNL d   1     -47.767  28.748  35.098  0.00  0.00     0.102 A 
ATOM      6  C   UNL d   1     -47.548  29.532  35.209  0.00  0.00     0.100 A 
ATOM      7  C   UNL d   1     -48.568  29.946  34.295  0.00  0.00     0.100 A 
ATOM      8  O   UNL d   1     -48.207  27.174  34.876  0.00  0.00    -0.266 OA
ENDROOT
BRANCH   3   9
ATOM      9  C   UNL d   1     -49.227  27.587  33.963  0.00  0.00     0.099 C 
BRANCH   9  10
ATOM     10  S   UNL d   1     -49.196  26.895  33.514  0.00  0.00    -0.044 SA
BRANCH  10  11
ATOM     11  C   UNL d   1     -49.871  26.407  33.463  0.00  0.00     0.182 A 
ATOM     12  N   UNL d   1     -50.631  26.749  33.458  0.00  0.00    -0.222 NA
ATOM     13  C   UNL d   1     -51.289  26.273  33.408  0.00  0.00     0.095 A 
ATOM     14  C   UNL d   1     -51.210  25.453  33.362  0.00  0.00     0.104 A 
ATOM     15  C   UNL d   1     -52.093  26.454  33.393  0.00  0.00     0.026 A 
ATOM     16  C   UNL d   1     -50.472  25.110  33.366  0.00  0.00     0.274 A 
ATOM     17  S   UNL d   1     -51.964  25.129  33.318  0.00  0.00    -0.081 SA
ATOM     18  N   UNL d   1     -49.791  25.588  33.417  0.00  0.00    -0.251 N 
ATOM     19  O   UNL d   1     -50.392  24.290  33.320  0.00  0.00    -0.266 OA
ATOM     20  C   UNL d   1     -49.036  25.241  33.421  0.00  0.00     0.104 C 
ATOM     21  C   UNL d   1     -52.509  25.753  33.337  0.00  0.00     0.031 A 
ATOM     22  C   UNL d   1     -53.331  25.689  33.307  0.00  0.00     0.007 C 
ENDBRANCH  10  11
ENDBRANCH   9  10
ENDBRANCH   3   9
BRANCH   2  23
ATOM     23  C   UNL d   1     -47.729  30.919  34.919  0.00  0.00     0.064 A 
ATOM     24  C   UNL d   1     -47.440  31.168  35.651  0.00  0.00     0.018 A 
ATOM     25  C   UNL d   1     -47.220  31.955  35.762  0.00  0.00     0.002 A 
ATOM     26  C   UNL d   1     -47.289  32.494  35.141  0.00  0.00     0.000 A 
ATOM     27  C   UNL d   1     -47.578  32.246  34.408  0.00  0.00     0.002 A 
ATOM     28  C   UNL d   1     -47.797  31.459  34.297  0.00  0.00     0.018 A 
ENDBRANCH   2  23
TORSDOF 4
ENDMDL
