MODEL 1
REMARK VINA RESULT:      22.1      0.000      0.000
REMARK  4 active torsions:
REMARK  status: ('A' for Active; 'I' for Inactive)
REMARK    1  A    between atoms: N_2  and  S_1 
REMARK    2  A    between atoms: C_3  and  S_1 
REMARK    3  A    between atoms: O_15  and  C_7 
REMARK    4  A    between atoms: C_18  and  O_15 
ROOT
ATOM      1  C   UNL d   1      59.306  49.670  50.460  0.00  0.00     0.106 A 
ATOM      2  C   UNL d   1      59.610  49.679  51.227  0.00  0.00     0.040 A 
ATOM      3  C   UNL d   1      60.420  49.680  51.346  0.00  0.00     0.128 A 
ATOM      4  C   UNL d   1      60.933  49.672  50.701  0.00  0.00     0.163 A 
ATOM      5  C   UNL d   1      59.819  49.662  49.814  0.00  0.00     0.015 A 
ATOM      6  C   UNL d   1      60.629  49.663  49.934  0.00  0.00     0.032 A 
ATOM      7  F   UNL d   1      61.751  49.673  50.821  0.00  0.00    -0.202 F 
ENDROOT
BRANCH   1   8
ATOM      8  S   UNL d   1      58.488  49.669  50.339  0.00  0.00     0.272 S 
ATOM      9  O   UNL d   1      58.367  49.634  51.156  0.00  0.00    -0.200 OA
ATOM     10  O   UNL d   1      58.609  49.704  49.523  0.00  0.00    -0.200 OA
BRANCH   8  11
ATOM     11  N   UNL d   1      57.671  49.668  50.218  0.00  0.00    -0.225 N 
ATOM     12  C   UNL d   1      57.366  49.637  49.452  0.00  0.00     0.118 A 
ATOM     13  C   UNL d   1      56.549  49.636  49.331  0.00  0.00     0.142 A 
ATOM     14  O   UNL d   1      56.035  49.666  49.976  0.00  0.00    -0.300 OA
ATOM     15  C   UNL d   1      56.340  49.697  50.743  0.00  0.00     0.142 A 
ATOM     16  C   UNL d   1      57.157  49.698  50.863  0.00  0.00     0.118 A 
ENDBRANCH   8  11
ENDBRANCH   1   8
BRANCH   3  17
ATOM     17  O   UNL d   1      60.723  49.689  52.122  0.00  0.00    -0.303 OA
BRANCH  17  18
ATOM     18  C   UNL d   1      60.212  49.641  52.768  0.00  0.00     0.123 C 
ATOM     19  C   UNL d   1      60.511  49.695  53.538  0.00  0.00     0.029 C 
ENDBRANCH  17  18
ENDBRANCH   3  17
TORSDOF 4
ENDMDL
