MODEL 1
REMARK VINA RESULT:      81.2      0.000      0.000
REMARK  3 active torsions:
REMARK  status: ('A' for Active; 'I' for Inactive)
REMARK    1  A    between atoms: C_5  and  C_1 
REMARK    2  A    between atoms: N_8  and  C_5 
REMARK    3  A    between atoms: C_10  and  C_5 
ROOT
ATOM      1  C   UNL d   1     -51.104  26.207  34.599  0.00  0.00     0.067 C 
ENDROOT
BRANCH   1   2
ATOM      2  C   UNL d   1     -51.370  25.488  34.286  0.00  0.00     0.057 A 
ATOM      3  C   UNL d   1     -52.178  25.343  34.240  0.00  0.00     0.214 A 
ATOM      4  C   UNL d   1     -52.442  24.626  33.928  0.00  0.00     0.121 A 
ATOM      5  O   UNL d   1     -52.726  25.897  34.499  0.00  0.00    -0.285 OA
ATOM      6  N   UNL d   1     -53.253  24.479  33.882  0.00  0.00    -0.241 NA
ATOM      7  C   UNL d   1     -51.895  24.056  33.663  0.00  0.00     0.032 A 
ATOM      8  C   UNL d   1     -53.511  23.767  33.571  0.00  0.00     0.099 A 
ATOM      9  C   UNL d   1     -52.964  23.197  33.306  0.00  0.00     0.021 A 
ATOM     10  C   UNL d   1     -52.170  23.350  33.356  0.00  0.00     0.004 A 
ATOM     11  C   UNL d   1     -51.087  24.206  33.710  0.00  0.00     0.059 A 
ATOM     12  C   UNL d   1     -50.823  24.918  34.020  0.00  0.00     0.016 A 
ATOM     13 CL   UNL d   1     -50.560  23.640  33.447  0.00  0.00    -0.082 Cl
ENDBRANCH   1   2
BRANCH   1  14
ATOM     14  N   UNL d   1     -50.905  26.827  34.099  0.00  0.00    -0.304 N 
ATOM     15  C   UNL d   1     -51.492  27.324  33.805  0.00  0.00     0.080 A 
ATOM     16  C   UNL d   1     -51.305  27.944  33.306  0.00  0.00     0.021 A 
ATOM     17  C   UNL d   1     -49.914  27.577  33.386  0.00  0.00     0.021 A 
ATOM     18  C   UNL d   1     -50.114  26.954  33.888  0.00  0.00     0.080 A 
ENDBRANCH   1  14
BRANCH   1  19
ATOM     19  C   UNL d   1     -51.037  26.302  35.427  0.00  0.00     0.016 A 
ATOM     20  C   UNL d   1     -50.396  26.689  35.748  0.00  0.00     0.002 A 
ATOM     21  C   UNL d   1     -50.326  26.784  36.559  0.00  0.00     0.011 A 
ATOM     22  C   UNL d   1     -50.919  26.482  37.060  0.00  0.00     0.058 A 
ATOM     23  C   UNL d   1     -51.573  26.088  36.735  0.00  0.00     0.011 A 
ATOM     24 CL   UNL d   1     -50.860  26.571  37.869  0.00  0.00    -0.082 Cl
ATOM     25  C   UNL d   1     -51.628  26.000  35.912  0.00  0.00     0.002 A 
ENDBRANCH   1  19
TORSDOF 3
ENDMDL
