MODEL 1
REMARK VINA RESULT:       3.7      0.000      0.000
REMARK  4 active torsions:
REMARK  status: ('A' for Active; 'I' for Inactive)
REMARK    1  A    between atoms: S_2  and  N_1 
REMARK    2  A    between atoms: N_6  and  S_2 
REMARK    3  A    between atoms: C_10  and  C_3 
REMARK    4  A    between atoms: C_14  and  C_10 
ROOT
ATOM      1  N   UNL d   1     -41.664-121.998 -51.476  0.00  0.00    -0.201 N 
ATOM      2  C   UNL d   1     -41.569-122.269 -52.263  0.00  0.00     0.158 A 
ATOM      3  N   UNL d   1     -41.353-121.617 -52.729  0.00  0.00    -0.226 NA
ATOM      4  C   UNL d   1     -41.506-121.192 -51.471  0.00  0.00     0.095 A 
ATOM      5  C   UNL d   1     -41.315-120.956 -52.239  0.00  0.00     0.100 A 
ATOM      6  C   UNL d   1     -41.514-120.643 -50.856  0.00  0.00     0.020 A 
ATOM      7  C   UNL d   1     -41.132-120.165 -52.387  0.00  0.00     0.021 A 
ATOM      8  C   UNL d   1     -41.331-119.853 -51.003  0.00  0.00     0.002 A 
ATOM      9  C   UNL d   1     -41.138-119.611 -51.773  0.00  0.00     0.002 A 
ENDROOT
BRANCH   1  10
ATOM     10  S   UNL d   1     -41.875-122.455 -50.833  0.00  0.00     0.338 S 
ATOM     11  O   UNL d   1     -41.165-122.869 -50.884  0.00  0.00    -0.181 OA
ATOM     12  O   UNL d   1     -42.586-122.043 -50.780  0.00  0.00    -0.181 OA
BRANCH  10  13
ATOM     13  N   UNL d   1     -42.099-122.910 -50.185  0.00  0.00    -0.212 N 
ATOM     14  C   UNL d   1     -41.527-123.285 -49.728  0.00  0.00     0.120 A 
ATOM     15  C   UNL d   1     -41.757-123.744 -49.073  0.00  0.00     0.142 A 
ATOM     16  O   UNL d   1     -42.558-123.817 -48.888  0.00  0.00    -0.300 OA
ATOM     17  C   UNL d   1     -43.120-123.441 -49.348  0.00  0.00     0.142 A 
ATOM     18  C   UNL d   1     -42.897-122.989 -49.993  0.00  0.00     0.120 A 
ENDBRANCH  10  13
ENDBRANCH   1  10
BRANCH   2  19
ATOM     19  C   UNL d   1     -41.673-123.047 -52.524  0.00  0.00     0.038 C 
BRANCH  19  20
ATOM     20  C   UNL d   1     -41.723-123.200 -53.331  0.00  0.00     0.003 A 
ATOM     21  C   UNL d   1     -42.384-122.938 -53.754  0.00  0.00     0.000 A 
ATOM     22  C   UNL d   1     -42.434-123.090 -54.560  0.00  0.00     0.000 A 
ATOM     23  C   UNL d   1     -41.839-123.498 -54.945  0.00  0.00     0.000 A 
ATOM     24  C   UNL d   1     -41.176-123.761 -54.519  0.00  0.00     0.000 A 
ATOM     25  C   UNL d   1     -41.123-123.609 -53.710  0.00  0.00     0.000 A 
ENDBRANCH  19  20
ENDBRANCH   2  19
TORSDOF 4
ENDMDL
