MODEL 1
REMARK VINA RESULT:      33.3      0.000      0.000
REMARK  6 active torsions:
REMARK  status: ('A' for Active; 'I' for Inactive)
REMARK    1  A    between atoms: C_6  and  N_2 
REMARK    2  A    between atoms: C_7  and  C_3 
REMARK    3  A    between atoms: C_14  and  C_6 
REMARK    4  A    between atoms: C_8  and  O_16 
REMARK    5  A    between atoms: C_19  and  C_14 
REMARK    6  A    between atoms: O_16  and  C_19 
ROOT
ATOM      1  N   UNL d   1      16.073  13.764  -0.145  0.00  0.00    -0.224 NA
ATOM      2  N   UNL d   1      15.022  13.230  -0.799  0.00  0.00    -0.286 N 
ATOM      3  C   UNL d   1      15.772  13.061  -0.486  0.00  0.00     0.191 A 
ATOM      4  C   UNL d   1      14.853  14.033  -0.656  0.00  0.00     0.083 A 
ATOM      5  C   UNL d   1      15.498  14.363  -0.254  0.00  0.00     0.099 A 
ATOM      6  C   UNL d   1      14.203  14.510  -0.836  0.00  0.00     0.019 A 
ATOM      7  C   UNL d   1      15.492  15.158  -0.035  0.00  0.00     0.021 A 
ATOM      8  C   UNL d   1      14.198  15.306  -0.616  0.00  0.00     0.002 A 
ATOM      9  C   UNL d   1      14.844  15.628  -0.215  0.00  0.00     0.002 A 
ENDROOT
BRANCH   2  10
ATOM     10  C   UNL d   1      14.655  12.586  -1.156  0.00  0.00     0.084 C 
BRANCH  10  11
ATOM     11  C   UNL d   1      13.984  12.704  -1.608  0.00  0.00     0.046 C 
BRANCH  11  12
ATOM     12  C   UNL d   1      13.575  12.050  -1.891  0.00  0.00     0.124 C 
BRANCH  12  13
ATOM     13  O   UNL d   1      12.928  12.155  -2.393  0.00  0.00    -0.305 OA
BRANCH  13  14
ATOM     14  C   UNL d   1      13.049  12.332  -3.189  0.00  0.00     0.100 A 
ATOM     15  C   UNL d   1      13.432  11.788  -3.680  0.00  0.00     0.025 A 
ATOM     16  C   UNL d   1      13.552  11.963  -4.472  0.00  0.00     0.002 A 
ATOM     17  C   UNL d   1      13.292  12.685  -4.783  0.00  0.00     0.000 A 
ATOM     18  C   UNL d   1      12.906  13.230  -4.285  0.00  0.00     0.002 A 
ATOM     19  C   UNL d   1      13.411  12.862  -5.574  0.00  0.00     0.000 C 
ATOM     20  C   UNL d   1      12.788  13.049  -3.491  0.00  0.00     0.025 A 
ENDBRANCH  13  14
ENDBRANCH  12  13
ENDBRANCH  11  12
ENDBRANCH  10  11
ENDBRANCH   2  10
BRANCH   3  21
ATOM     21  C   UNL d   1      16.157  12.331  -0.506  0.00  0.00     0.271 C 
ATOM     22  O   UNL d   1      16.491  12.060  -1.208  0.00  0.00    -0.280 OA
ENDBRANCH   3  21
TORSDOF 6
ENDMDL
MODEL 2
REMARK VINA RESULT:      35.4      1.394      3.944
REMARK  6 active torsions:
REMARK  status: ('A' for Active; 'I' for Inactive)
REMARK    1  A    between atoms: C_6  and  N_2 
REMARK    2  A    between atoms: C_7  and  C_3 
REMARK    3  A    between atoms: C_14  and  C_6 
REMARK    4  A    between atoms: C_8  and  O_16 
REMARK    5  A    between atoms: C_19  and  C_14 
REMARK    6  A    between atoms: O_16  and  C_19 
ROOT
ATOM      1  N   UNL d   1      15.329  11.803  -2.478  0.00  0.00    -0.224 NA
ATOM      2  N   UNL d   1      14.724  11.814  -1.273  0.00  0.00    -0.286 N 
ATOM      3  C   UNL d   1      15.463  11.798  -1.651  0.00  0.00     0.191 A 
ATOM      4  C   UNL d   1      14.130  11.829  -1.857  0.00  0.00     0.083 A 
ATOM      5  C   UNL d   1      14.500  11.822  -2.598  0.00  0.00     0.099 A 
ATOM      6  C   UNL d   1      13.305  11.848  -1.819  0.00  0.00     0.019 A 
ATOM      7  C   UNL d   1      14.052  11.834  -3.290  0.00  0.00     0.021 A 
ATOM      8  C   UNL d   1      12.857  11.860  -2.512  0.00  0.00     0.002 A 
ATOM      9  C   UNL d   1      13.232  11.853  -3.246  0.00  0.00     0.002 A 
ENDROOT
BRANCH   2  10
ATOM     10  C   UNL d   1      14.768  11.811  -0.451  0.00  0.00     0.084 C 
BRANCH  10  11
ATOM     11  C   UNL d   1      14.539  12.475  -0.033  0.00  0.00     0.046 C 
BRANCH  11  12
ATOM     12  C   UNL d   1      14.878  13.200  -0.222  0.00  0.00     0.124 C 
BRANCH  12  13
ATOM     13  O   UNL d   1      14.474  13.899  -0.052  0.00  0.00    -0.305 OA
BRANCH  13  14
ATOM     14  C   UNL d   1      14.837  14.628  -0.188  0.00  0.00     0.100 A 
ATOM     15  C   UNL d   1      14.397  15.257  -0.494  0.00  0.00     0.025 A 
ATOM     16  C   UNL d   1      14.757  15.982  -0.629  0.00  0.00     0.002 A 
ATOM     17  C   UNL d   1      15.561  16.085  -0.460  0.00  0.00     0.000 A 
ATOM     18  C   UNL d   1      16.000  15.448  -0.152  0.00  0.00     0.002 A 
ATOM     19  C   UNL d   1      15.923  16.808  -0.595  0.00  0.00     0.000 C 
ATOM     20  C   UNL d   1      15.634  14.723  -0.017  0.00  0.00     0.025 A 
ENDBRANCH  13  14
ENDBRANCH  12  13
ENDBRANCH  11  12
ENDBRANCH  10  11
ENDBRANCH   2  10
BRANCH   3  21
ATOM     21  C   UNL d   1      16.200  11.780  -1.282  0.00  0.00     0.271 C 
ATOM     22  O   UNL d   1      16.808  12.267  -1.551  0.00  0.00    -0.280 OA
ENDBRANCH   3  21
TORSDOF 6
ENDMDL
MODEL 3
REMARK VINA RESULT:      36.0      1.878      2.458
REMARK  6 active torsions:
REMARK  status: ('A' for Active; 'I' for Inactive)
REMARK    1  A    between atoms: C_6  and  N_2 
REMARK    2  A    between atoms: C_7  and  C_3 
REMARK    3  A    between atoms: C_14  and  C_6 
REMARK    4  A    between atoms: C_8  and  O_16 
REMARK    5  A    between atoms: C_19  and  C_14 
REMARK    6  A    between atoms: O_16  and  C_19 
ROOT
ATOM      1  N   UNL d   1      14.556  12.187  -0.244  0.00  0.00    -0.224 NA
ATOM      2  N   UNL d   1      14.127  11.944  -1.499  0.00  0.00    -0.286 N 
ATOM      3  C   UNL d   1      13.877  12.038  -0.713  0.00  0.00     0.191 A 
ATOM      4  C   UNL d   1      14.955  12.032  -1.524  0.00  0.00     0.083 A 
ATOM      5  C   UNL d   1      15.220  12.181  -0.754  0.00  0.00     0.099 A 
ATOM      6  C   UNL d   1      15.504  11.998  -2.140  0.00  0.00     0.019 A 
ATOM      7  C   UNL d   1      16.023  12.294  -0.602  0.00  0.00     0.021 A 
ATOM      8  C   UNL d   1      16.308  12.111  -1.987  0.00  0.00     0.002 A 
ATOM      9  C   UNL d   1      16.564  12.259  -1.218  0.00  0.00     0.002 A 
ENDROOT
BRANCH   2  10
ATOM     10  C   UNL d   1      13.515  11.793  -2.029  0.00  0.00     0.084 C 
BRANCH  10  11
ATOM     11  C   UNL d   1      13.519  12.156  -2.761  0.00  0.00     0.046 C 
BRANCH  11  12
ATOM     12  C   UNL d   1      13.030  11.861  -3.353  0.00  0.00     0.124 C 
BRANCH  12  13
ATOM     13  O   UNL d   1      13.067  12.180  -4.113  0.00  0.00    -0.305 OA
BRANCH  13  14
ATOM     14  C   UNL d   1      13.028  12.997  -4.219  0.00  0.00     0.100 A 
ATOM     15  C   UNL d   1      12.851  13.309  -4.964  0.00  0.00     0.025 A 
ATOM     16  C   UNL d   1      12.812  14.122  -5.070  0.00  0.00     0.002 A 
ATOM     17  C   UNL d   1      12.950  14.632  -4.433  0.00  0.00     0.000 A 
ATOM     18  C   UNL d   1      13.127  14.313  -3.684  0.00  0.00     0.002 A 
ATOM     19  C   UNL d   1      12.911  15.444  -4.536  0.00  0.00     0.000 C 
ATOM     20  C   UNL d   1      13.165  13.497  -3.582  0.00  0.00     0.025 A 
ENDBRANCH  13  14
ENDBRANCH  12  13
ENDBRANCH  11  12
ENDBRANCH  10  11
ENDBRANCH   2  10
BRANCH   3  21
ATOM     21  C   UNL d   1      13.101  11.995  -0.438  0.00  0.00     0.271 C 
ATOM     22  O   UNL d   1      12.777  12.624  -0.017  0.00  0.00    -0.280 OA
ENDBRANCH   3  21
TORSDOF 6
ENDMDL
