MODEL 1
REMARK VINA RESULT:      -4.8      0.000      0.000
REMARK  5 active torsions:
REMARK  status: ('A' for Active; 'I' for Inactive)
REMARK    1  A    between atoms: C_9  and  N_1 
REMARK    2  A    between atoms: C_2  and  C_9 
REMARK    3  A    between atoms: S_14  and  C_5 
REMARK    4  A    between atoms: C_12  and  C_16 
REMARK       I    between atoms: N_13  and  C_12 
REMARK    5  A    between atoms: C_16  and  S_14 
ROOT
ATOM      1  C   UNL d   1     -41.968-122.972 -50.285  0.00  0.00     0.189 A 
ATOM      2  N   UNL d   1     -41.721-122.531 -50.931  0.00  0.00    -0.265 N 
ATOM      3  C   UNL d   1     -41.431-123.053 -51.500  0.00  0.00     0.202 A 
ATOM      4  N   UNL d   1     -41.832-123.764 -50.452  0.00  0.00    -0.126 NA
ATOM      5  N   UNL d   1     -41.500-123.817 -51.203  0.00  0.00    -0.121 NA
ATOM      6  C   UNL d   1     -41.750-121.710 -51.013  0.00  0.00     0.103 C 
ENDROOT
BRANCH   1   7
ATOM      7  C   UNL d   1     -42.283-122.597 -49.632  0.00  0.00     0.123 C 
BRANCH   7   8
ATOM      8  N   UNL d   1     -42.573-123.038 -48.996  0.00  0.00    -0.265 N 
ATOM      9  C   UNL d   1     -43.286-123.462 -48.981  0.00  0.00     0.296 A 
ATOM     10  S   UNL d   1     -43.350-123.815 -48.240  0.00  0.00    -0.025 SA
ATOM     11  O   UNL d   1     -43.829-123.515 -49.599  0.00  0.00    -0.259 OA
ATOM     12  C   UNL d   1     -42.673-123.607 -47.800  0.00  0.00     0.050 A 
ATOM     13  C   UNL d   1     -42.198-123.128 -48.272  0.00  0.00     0.074 A 
ATOM     14  C   UNL d   1     -42.437-123.798 -47.029  0.00  0.00     0.008 A 
ATOM     15  C   UNL d   1     -41.480-122.836 -47.972  0.00  0.00     0.018 A 
ATOM     16  C   UNL d   1     -41.240-123.024 -47.203  0.00  0.00     0.002 A 
ATOM     17  C   UNL d   1     -41.728-123.509 -46.735  0.00  0.00     0.001 A 
ENDBRANCH   7   8
ENDBRANCH   1   7
BRANCH   3  18
ATOM     18  S   UNL d   1     -41.126-122.848 -52.238  0.00  0.00    -0.043 SA
BRANCH  18  19
ATOM     19  C   UNL d   1     -41.629-122.632 -52.857  0.00  0.00     0.099 C 
BRANCH  19  20
ATOM     20  C   UNL d   1     -41.537-122.968 -53.607  0.00  0.00     0.271 C 
ATOM     21  N   UNL d   1     -41.767-122.550 -54.278  0.00  0.00    -0.272 N 
ATOM     22  C   UNL d   1     -41.629-122.981 -54.962  0.00  0.00     0.083 A 
ATOM     23  C   UNL d   1     -42.092-121.794 -54.202  0.00  0.00     0.083 A 
ATOM     24  C   UNL d   1     -41.778-122.768 -55.746  0.00  0.00     0.019 A 
ATOM     25  C   UNL d   1     -42.102-122.074 -56.035  0.00  0.00     0.002 A 
ATOM     26  C   UNL d   1     -42.362-121.405 -55.594  0.00  0.00     0.002 A 
ATOM     27  C   UNL d   1     -42.361-121.277 -54.795  0.00  0.00     0.019 A 
ATOM     28  O   UNL d   1     -41.215-123.717 -53.682  0.00  0.00    -0.266 OA
ENDBRANCH  19  20
ENDBRANCH  18  19
ENDBRANCH   3  18
TORSDOF 5
ENDMDL
MODEL 2
REMARK VINA RESULT:      -2.3      1.148      6.055
REMARK  5 active torsions:
REMARK  status: ('A' for Active; 'I' for Inactive)
REMARK    1  A    between atoms: C_9  and  N_1 
REMARK    2  A    between atoms: C_2  and  C_9 
REMARK    3  A    between atoms: S_14  and  C_5 
REMARK    4  A    between atoms: C_12  and  C_16 
REMARK       I    between atoms: N_13  and  C_12 
REMARK    5  A    between atoms: C_16  and  S_14 
ROOT
ATOM      1  C   UNL d   1     -41.574-122.448 -52.612  0.00  0.00     0.189 A 
ATOM      2  N   UNL d   1     -41.496-123.104 -52.125  0.00  0.00    -0.265 N 
ATOM      3  C   UNL d   1     -41.858-122.931 -51.405  0.00  0.00     0.202 A 
ATOM      4  N   UNL d   1     -41.984-121.871 -52.196  0.00  0.00    -0.126 NA
ATOM      5  N   UNL d   1     -42.161-122.167 -51.448  0.00  0.00    -0.121 NA
ATOM      6  C   UNL d   1     -41.123-123.817 -52.310  0.00  0.00     0.103 C 
ENDROOT
BRANCH   1   7
ATOM      7  C   UNL d   1     -41.264-122.461 -53.367  0.00  0.00     0.123 C 
BRANCH   7   8
ATOM      8  N   UNL d   1     -41.632-122.042 -53.978  0.00  0.00    -0.265 N 
ATOM      9  C   UNL d   1     -41.639-121.218 -54.068  0.00  0.00     0.296 A 
ATOM     10  S   UNL d   1     -42.069-121.047 -54.750  0.00  0.00    -0.025 SA
ATOM     11  O   UNL d   1     -41.280-120.673 -53.566  0.00  0.00    -0.259 OA
ATOM     12  C   UNL d   1     -42.326-121.770 -55.077  0.00  0.00     0.050 A 
ATOM     13  C   UNL d   1     -42.053-122.380 -54.596  0.00  0.00     0.074 A 
ATOM     14  C   UNL d   1     -42.773-121.941 -55.753  0.00  0.00     0.008 A 
ATOM     15  C   UNL d   1     -42.228-123.169 -54.790  0.00  0.00     0.018 A 
ATOM     16  C   UNL d   1     -42.675-123.344 -55.464  0.00  0.00     0.002 A 
ATOM     17  C   UNL d   1     -42.945-122.719 -55.943  0.00  0.00     0.001 A 
ENDBRANCH   7   8
ENDBRANCH   1   7
BRANCH   3  18
ATOM     18  S   UNL d   1     -41.910-123.434 -50.754  0.00  0.00    -0.043 SA
BRANCH  18  19
ATOM     19  C   UNL d   1     -41.879-123.132 -49.985  0.00  0.00     0.099 C 
BRANCH  19  20
ATOM     20  C   UNL d   1     -42.389-123.421 -49.401  0.00  0.00     0.271 C 
ATOM     21  N   UNL d   1     -42.176-123.377 -48.608  0.00  0.00    -0.272 N 
ATOM     22  C   UNL d   1     -42.757-123.693 -48.122  0.00  0.00     0.083 A 
ATOM     23  C   UNL d   1     -41.450-123.044 -48.393  0.00  0.00     0.083 A 
ATOM     24  C   UNL d   1     -42.764-123.758 -47.299  0.00  0.00     0.019 A 
ATOM     25  C   UNL d   1     -42.193-123.523 -46.763  0.00  0.00     0.002 A 
ATOM     26  C   UNL d   1     -41.453-123.155 -46.927  0.00  0.00     0.002 A 
ATOM     27  C   UNL d   1     -41.123-122.944 -47.635  0.00  0.00     0.019 A 
ATOM     28  O   UNL d   1     -43.108-123.751 -49.614  0.00  0.00    -0.266 OA
ENDBRANCH  19  20
ENDBRANCH  18  19
ENDBRANCH   3  18
TORSDOF 5
ENDMDL
