MODEL 1
REMARK VINA RESULT:      -3.8      0.000      0.000
REMARK  3 active torsions:
REMARK  status: ('A' for Active; 'I' for Inactive)
REMARK    1  A    between atoms: C_24  and  N_10 
REMARK    2  A    between atoms: C_12  and  N_15 
REMARK       I    between atoms: N_15  and  C_16 
REMARK    3  A    between atoms: C_16  and  C_24 
ROOT
ATOM      1  N   UNL d   1      57.328   0.635  31.446  0.00  0.00    -0.188 NA
ATOM      2  C   UNL d   1      57.435  -0.080  31.046  0.00  0.00     0.298 C 
ATOM      3  O   UNL d   1      57.465  -0.789  31.480  0.00  0.00    -0.263 OA
ENDROOT
BRANCH   1   4
ATOM      4  C   UNL d   1      57.251   0.643  32.271  0.00  0.00     0.166 A 
ATOM      5  N   UNL d   1      56.500   0.637  32.618  0.00  0.00    -0.226 NA
ATOM      6  C   UNL d   1      56.420   0.644  33.438  0.00  0.00     0.090 A 
ATOM      7  C   UNL d   1      55.673   0.638  33.789  0.00  0.00     0.041 A 
ATOM      8  C   UNL d   1      57.093   0.659  33.921  0.00  0.00     0.081 A 
ATOM      9  C   UNL d   1      55.596   0.646  34.615  0.00  0.00     0.105 A 
ATOM     10  C   UNL d   1      54.998   0.623  33.311  0.00  0.00     0.004 A 
ATOM     11  C   UNL d   1      54.845   0.639  34.957  0.00  0.00     0.025 A 
ATOM     12  O   UNL d   1      56.267   0.660  35.089  0.00  0.00    -0.273 OA
ATOM     13  C   UNL d   1      54.171   0.625  34.483  0.00  0.00     0.002 A 
ATOM     14  C   UNL d   1      54.248   0.617  33.653  0.00  0.00     0.000 A 
ATOM     15  C   UNL d   1      57.017   0.667  34.746  0.00  0.00     0.301 A 
ATOM     16  O   UNL d   1      57.695   0.681  35.225  0.00  0.00    -0.259 OA
ATOM     17  C   UNL d   1      57.844   0.665  33.574  0.00  0.00     0.010 A 
ATOM     18  C   UNL d   1      57.924   0.658  32.757  0.00  0.00     0.039 A 
ATOM     19  C   UNL d   1      58.518   0.680  34.062  0.00  0.00     0.000 C 
ENDBRANCH   1   4
BRANCH   2  20
ATOM     20  C   UNL d   1      57.512  -0.097  30.221  0.00  0.00     0.143 C 
BRANCH  20  21
ATOM     21  N   UNL d   1      58.198  -0.393  29.875  0.00  0.00    -0.306 N 
ATOM     22  C   UNL d   1      58.714   0.174  29.708  0.00  0.00     0.059 A 
ATOM     23  C   UNL d   1      59.440   0.192  29.381  0.00  0.00     0.080 A 
ATOM     24  C   UNL d   1      59.925  -0.344  29.099  0.00  0.00     0.061 A 
ATOM     25  C   UNL d   1      58.804  -0.680  29.567  0.00  0.00     0.024 A 
ATOM     26  N   UNL d   1      59.916  -1.127  29.011  0.00  0.00    -0.280 N 
ATOM     27  C   UNL d   1      59.391  -1.702  29.182  0.00  0.00     0.049 A 
ATOM     28  C   UNL d   1      60.611  -1.317  28.675  0.00  0.00     0.264 A 
ATOM     29  C   UNL d   1      58.683  -1.719  29.500  0.00  0.00     0.079 A 
ATOM     30  C   UNL d   1      59.572  -2.456  29.011  0.00  0.00     0.014 A 
ATOM     31  C   UNL d   1      58.185  -1.180  29.789  0.00  0.00     0.059 A 
ATOM     32  C   UNL d   1      60.259  -2.642  28.678  0.00  0.00     0.006 A 
ATOM     33  C   UNL d   1      60.785  -2.068  28.508  0.00  0.00     0.061 A 
ATOM     34  O   UNL d   1      61.132  -0.736  28.507  0.00  0.00    -0.267 OA
ENDBRANCH  20  21
ENDBRANCH   2  20
TORSDOF 3
ENDMDL
