MODEL 1
REMARK VINA RESULT:      -3.9      0.000      0.000
REMARK  4 active torsions:
REMARK  status: ('A' for Active; 'I' for Inactive)
REMARK    1  A    between atoms: C_2  and  C_1 
REMARK    2  A    between atoms: C_3  and  C_1 
REMARK       I    between atoms: N_7  and  C_2 
REMARK    3  A    between atoms: C_4  and  C_3 
REMARK    4  A    between atoms: C_13  and  N_7 
ROOT
ATOM      1  C   UNL d   1      58.358  -0.135  29.916  0.00  0.00     0.128 C 
ATOM      2  C   UNL d   1      58.976   0.263  30.274  0.00  0.00     0.106 C 
ATOM      3  N   UNL d   1      59.607   0.672  30.636  0.00  0.00    -0.191 NA
ENDROOT
BRANCH   1   4
ATOM      4  C   UNL d   1      58.143   0.029  29.127  0.00  0.00     0.289 C 
ATOM      5  N   UNL d   1      58.425  -0.450  28.522  0.00  0.00    -0.207 NA
ATOM      6  O   UNL d   1      57.649   0.671  28.968  0.00  0.00    -0.264 OA
BRANCH   5   7
ATOM      7  C   UNL d   1      58.919  -1.092  28.681  0.00  0.00     0.085 A 
ATOM      8  C   UNL d   1      59.734  -0.980  28.735  0.00  0.00     0.020 A 
ATOM      9  C   UNL d   1      60.228  -1.622  28.895  0.00  0.00     0.008 A 
ATOM     10  C   UNL d   1      59.906  -2.374  28.999  0.00  0.00     0.035 A 
ATOM     11  C   UNL d   1      59.091  -2.485  28.944  0.00  0.00     0.008 A 
ATOM     12 BR   UNL d   1      60.409  -3.015  29.159  0.00  0.00    -0.049 Br
ATOM     13  C   UNL d   1      58.597  -1.845  28.785  0.00  0.00     0.020 A 
ENDBRANCH   5   7
ENDBRANCH   1   4
BRANCH   1  14
ATOM     14  C   UNL d   1      57.940  -0.708  30.338  0.00  0.00     0.040 C 
BRANCH  14  15
ATOM     15  C   UNL d   1      57.454  -0.491  30.974  0.00  0.00     0.101 A 
ATOM     16  O   UNL d   1      57.180   0.234  31.244  0.00  0.00    -0.307 OA
ATOM     17  C   UNL d   1      56.711   0.090  31.909  0.00  0.00     0.100 A 
ATOM     18  C   UNL d   1      56.317   0.671  32.366  0.00  0.00     0.027 C 
ATOM     19  C   UNL d   1      56.693  -0.712  32.049  0.00  0.00     0.027 A 
ATOM     20  C   UNL d   1      57.156  -1.079  31.468  0.00  0.00     0.027 A 
ENDBRANCH  14  15
ENDBRANCH   1  14
TORSDOF 4
ENDMDL
MODEL 2
REMARK VINA RESULT:      -2.3      1.298      1.901
REMARK  4 active torsions:
REMARK  status: ('A' for Active; 'I' for Inactive)
REMARK    1  A    between atoms: C_2  and  C_1 
REMARK    2  A    between atoms: C_3  and  C_1 
REMARK       I    between atoms: N_7  and  C_2 
REMARK    3  A    between atoms: C_4  and  C_3 
REMARK    4  A    between atoms: C_13  and  N_7 
ROOT
ATOM      1  C   UNL d   1      57.645  -0.066  30.697  0.00  0.00     0.128 C 
ATOM      2  C   UNL d   1      57.541  -0.876  30.700  0.00  0.00     0.106 C 
ATOM      3  N   UNL d   1      57.433  -1.704  30.699  0.00  0.00    -0.191 NA
ENDROOT
BRANCH   1   4
ATOM      4  C   UNL d   1      57.491   0.383  30.011  0.00  0.00     0.289 C 
ATOM      5  N   UNL d   1      58.096   0.521  29.472  0.00  0.00    -0.207 NA
ATOM      6  O   UNL d   1      56.732   0.682  29.885  0.00  0.00    -0.264 OA
BRANCH   5   7
ATOM      7  C   UNL d   1      58.855   0.223  29.599  0.00  0.00     0.085 A 
ATOM      8  C   UNL d   1      59.048  -0.536  29.337  0.00  0.00     0.020 A 
ATOM      9  C   UNL d   1      59.807  -0.834  29.463  0.00  0.00     0.008 A 
ATOM     10  C   UNL d   1      60.372  -0.375  29.850  0.00  0.00     0.035 A 
ATOM     11  C   UNL d   1      60.179   0.383  30.112  0.00  0.00     0.008 A 
ATOM     12 BR   UNL d   1      61.133  -0.682  29.974  0.00  0.00    -0.049 Br
ATOM     13  C   UNL d   1      59.421   0.682  29.986  0.00  0.00     0.020 A 
ENDBRANCH   5   7
ENDBRANCH   1   4
BRANCH   1  14
ATOM     14  C   UNL d   1      57.905   0.317  31.380  0.00  0.00     0.040 C 
BRANCH  14  15
ATOM     15  C   UNL d   1      57.429   0.339  32.059  0.00  0.00     0.101 A 
ATOM     16  O   UNL d   1      56.656   0.106  32.204  0.00  0.00    -0.307 OA
ATOM     17  C   UNL d   1      56.492   0.271  32.996  0.00  0.00     0.100 A 
ATOM     18  C   UNL d   1      55.766   0.124  33.388  0.00  0.00     0.027 C 
ATOM     19  C   UNL d   1      57.152   0.601  33.338  0.00  0.00     0.027 A 
ATOM     20  C   UNL d   1      57.740   0.646  32.756  0.00  0.00     0.027 A 
ENDBRANCH  14  15
ENDBRANCH   1  14
TORSDOF 4
ENDMDL
MODEL 3
REMARK VINA RESULT:      -1.8      2.034      3.849
REMARK  4 active torsions:
REMARK  status: ('A' for Active; 'I' for Inactive)
REMARK    1  A    between atoms: C_2  and  C_1 
REMARK    2  A    between atoms: C_3  and  C_1 
REMARK       I    between atoms: N_7  and  C_2 
REMARK    3  A    between atoms: C_4  and  C_3 
REMARK    4  A    between atoms: C_13  and  N_7 
ROOT
ATOM      1  C   UNL d   1      58.197  -0.174  30.283  0.00  0.00     0.128 C 
ATOM      2  C   UNL d   1      58.124  -0.981  30.173  0.00  0.00     0.106 C 
ATOM      3  N   UNL d   1      58.046  -1.804  30.059  0.00  0.00    -0.191 NA
ENDROOT
BRANCH   1   4
ATOM      4  C   UNL d   1      57.612   0.351  30.004  0.00  0.00     0.289 C 
ATOM      5  N   UNL d   1      57.001   0.579  30.504  0.00  0.00    -0.207 NA
ATOM      6  O   UNL d   1      57.657   0.633  29.230  0.00  0.00    -0.264 OA
BRANCH   5   7
ATOM      7  C   UNL d   1      56.956   0.298  31.278  0.00  0.00     0.085 A 
ATOM      8  C   UNL d   1      56.500  -0.368  31.448  0.00  0.00     0.020 A 
ATOM      9  C   UNL d   1      56.455  -0.650  32.223  0.00  0.00     0.008 A 
ATOM     10  C   UNL d   1      56.865  -0.266  32.826  0.00  0.00     0.035 A 
ATOM     11  C   UNL d   1      57.321   0.400  32.656  0.00  0.00     0.008 A 
ATOM     12 BR   UNL d   1      56.815  -0.555  33.602  0.00  0.00    -0.049 Br
ATOM     13  C   UNL d   1      57.366   0.682  31.882  0.00  0.00     0.020 A 
ENDBRANCH   5   7
ENDBRANCH   1   4
BRANCH   1  14
ATOM     14  C   UNL d   1      58.858   0.128  30.674  0.00  0.00     0.040 C 
BRANCH  14  15
ATOM     15  C   UNL d   1      59.590   0.181  30.288  0.00  0.00     0.101 A 
ATOM     16  O   UNL d   1      59.847  -0.063  29.548  0.00  0.00    -0.307 OA
ATOM     17  C   UNL d   1      60.643   0.148  29.480  0.00  0.00     0.100 A 
ATOM     18  C   UNL d   1      61.133   0.007  28.816  0.00  0.00     0.027 C 
ATOM     19  C   UNL d   1      60.877   0.516  30.168  0.00  0.00     0.027 A 
ATOM     20  C   UNL d   1      60.222   0.539  30.675  0.00  0.00     0.027 A 
ENDBRANCH  14  15
ENDBRANCH   1  14
TORSDOF 4
ENDMDL
