MODEL 1
REMARK VINA RESULT:      70.3      0.000      0.000
REMARK  5 active torsions:
REMARK  status: ('A' for Active; 'I' for Inactive)
REMARK    1  A    between atoms: N_6  and  S_1 
REMARK    2  A    between atoms: C_11  and  S_1 
REMARK    3  A    between atoms: C_2  and  N_5 
REMARK    4  A    between atoms: C_9  and  C_4 
REMARK       I    between atoms: N_5  and  C_7 
REMARK    5  A    between atoms: C_7  and  C_15 
ROOT
ATOM      1  C   UNL d   1     -55.292-101.138 -42.908  0.00  0.00     0.104 A 
ATOM      2  C   UNL d   1     -55.327-101.787 -41.319  0.00  0.00     0.058 A 
ATOM      3  C   UNL d   1     -55.126-100.662 -42.216  0.00  0.00     0.013 A 
ATOM      4  C   UNL d   1     -55.469-101.926 -42.754  0.00  0.00     0.013 A 
ATOM      5  C   UNL d   1     -55.487-102.247 -41.984  0.00  0.00     0.005 A 
ATOM      6  C   UNL d   1     -55.136-100.948 -41.453  0.00  0.00     0.005 A 
ENDROOT
BRANCH   2   7
ATOM      7  C   UNL d   1     -55.340-102.080 -40.572  0.00  0.00     0.281 C 
ATOM      8  N   UNL d   1     -55.060-101.634 -39.930  0.00  0.00    -0.183 NA
ATOM      9  O   UNL d   1     -55.649-102.868 -40.439  0.00  0.00    -0.265 OA
BRANCH   8  10
ATOM     10  C   UNL d   1     -55.072-101.946 -39.117  0.00  0.00     0.197 A 
ATOM     11  N   UNL d   1     -55.241-101.485 -38.414  0.00  0.00    -0.220 NA
ATOM     12  C   UNL d   1     -55.195-101.999 -37.745  0.00  0.00     0.096 A 
ATOM     13  C   UNL d   1     -54.994-102.782 -38.056  0.00  0.00     0.058 A 
ATOM     14  S   UNL d   1     -54.925-102.726 -38.886  0.00  0.00    -0.046 SA
BRANCH  12  15
ATOM     15  C   UNL d   1     -55.309-101.830 -36.951  0.00  0.00     0.048 A 
ATOM     16  S   UNL d   1     -54.887-101.325 -36.471  0.00  0.00    -0.085 SA
ATOM     17  C   UNL d   1     -55.200-101.333 -35.714  0.00  0.00     0.035 A 
ATOM     18  C   UNL d   1     -55.830-101.858 -35.740  0.00  0.00     0.007 A 
ATOM     19  C   UNL d   1     -55.899-102.165 -36.499  0.00  0.00     0.009 A 
ENDBRANCH  12  15
ENDBRANCH   8  10
ENDBRANCH   2   7
BRANCH   1  20
ATOM     20  S   UNL d   1     -55.271-100.805 -43.674  0.00  0.00     0.271 S 
ATOM     21  O   UNL d   1     -55.578-101.519 -43.993  0.00  0.00    -0.200 OA
ATOM     22  O   UNL d   1     -54.958-100.073 -43.368  0.00  0.00    -0.200 OA
BRANCH  20  23
ATOM     23  N   UNL d   1     -55.245-100.453 -44.458  0.00  0.00    -0.229 N 
ATOM     24  C   UNL d   1     -54.895-100.668 -45.178  0.00  0.00     0.092 A 
ATOM     25  C   UNL d   1     -55.066-100.101 -45.740  0.00  0.00     0.021 A 
ATOM     26  C   UNL d   1     -55.530 -99.505 -45.399  0.00  0.00     0.021 A 
ATOM     27  C   UNL d   1     -55.634 -99.734 -44.602  0.00  0.00     0.092 A 
ENDBRANCH  20  23
ENDBRANCH   1  20
TORSDOF 5
ENDMDL
