MODEL 1
REMARK VINA RESULT:      62.7      0.000      0.000
REMARK  8 active torsions:
REMARK  status: ('A' for Active; 'I' for Inactive)
REMARK    1  A    between atoms: C_2  and  P_1 
REMARK    2  A    between atoms: O_4  and  P_1 
REMARK    3  A    between atoms: C_5  and  P_1 
REMARK    4  A    between atoms: C_3  and  C_2 
REMARK    5  A    between atoms: C_20  and  O_4 
REMARK    6  A    between atoms: O_19  and  C_8 
REMARK    7  A    between atoms: N_11  and  C_9 
REMARK    8  A    between atoms: O_21  and  C_10 
ROOT
ATOM      1  P   UNL d   1      43.925 -15.957  37.504  0.00  0.00     0.307 P 
ATOM      2  O   UNL d   1      43.234 -15.933  37.950  0.00  0.00    -0.277 OA
ENDROOT
BRANCH   1   3
ATOM      3  C   UNL d   1      44.615 -15.982  37.058  0.00  0.00     0.253 C 
ATOM      4  O   UNL d   1      44.818 -16.663  36.627  0.00  0.00    -0.281 OA
BRANCH   3   5
ATOM      5  C   UNL d   1      45.123 -15.324  37.033  0.00  0.00     0.046 A 
ATOM      6  C   UNL d   1      45.025 -14.702  37.563  0.00  0.00     0.030 A 
ATOM      7  C   UNL d   1      45.527 -14.057  37.533  0.00  0.00     0.116 A 
ATOM      8  C   UNL d   1      46.142 -14.015  36.974  0.00  0.00     0.116 A 
ATOM      9  C   UNL d   1      46.240 -14.645  36.437  0.00  0.00     0.026 A 
ATOM     10  C   UNL d   1      45.729 -15.299  36.469  0.00  0.00     0.005 A 
BRANCH   7  11
ATOM     11  O   UNL d   1      45.428 -13.438  38.064  0.00  0.00    -0.326 OA
ATOM     12  C   UNL d   1      45.147 -13.588  38.824  0.00  0.00     0.181 C 
ENDBRANCH   7  11
BRANCH   8  13
ATOM     13  O   UNL d   1      46.647 -13.368  36.943  0.00  0.00    -0.326 OA
ATOM     14  C   UNL d   1      46.562 -12.825  36.331  0.00  0.00     0.181 C 
ENDBRANCH   8  13
ENDBRANCH   3   5
ENDBRANCH   1   3
BRANCH   1  15
ATOM     15  O   UNL d   1      43.572 -15.483  36.933  0.00  0.00    -0.281 OA
BRANCH  15  16
ATOM     16  C   UNL d   1      42.763 -15.519  36.806  0.00  0.00     0.101 A 
ATOM     17  C   UNL d   1      42.279 -14.884  37.032  0.00  0.00     0.025 A 
ATOM     18  C   UNL d   1      41.473 -14.918  36.907  0.00  0.00     0.002 A 
ATOM     19  C   UNL d   1      41.138 -15.582  36.556  0.00  0.00     0.000 A 
ATOM     20  C   UNL d   1      41.611 -16.216  36.330  0.00  0.00     0.002 A 
ATOM     21  C   UNL d   1      42.432 -16.182  36.457  0.00  0.00     0.025 A 
ENDBRANCH  15  16
ENDBRANCH   1  15
BRANCH   1  22
ATOM     22  C   UNL d   1      44.280 -16.436  38.081  0.00  0.00     0.061 A 
ATOM     23  C   UNL d   1      44.011 -16.406  38.860  0.00  0.00     0.007 A 
ATOM     24  C   UNL d   1      44.368 -16.887  39.441  0.00  0.00     0.018 A 
ATOM     25  C   UNL d   1      44.984 -17.390  39.240  0.00  0.00     0.064 A 
ATOM     26  C   UNL d   1      45.249 -17.415  38.455  0.00  0.00     0.018 A 
ATOM     27  C   UNL d   1      44.892 -16.934  37.874  0.00  0.00     0.007 A 
BRANCH  25  28
ATOM     28  N   UNL d   1      45.337 -17.866  39.815  0.00  0.00    -0.301 N 
ATOM     29  C   UNL d   1      45.137 -17.771  40.608  0.00  0.00     0.100 C 
ATOM     30  C   UNL d   1      45.889 -18.436  39.592  0.00  0.00     0.100 C 
ENDBRANCH  25  28
ENDBRANCH   1  22
TORSDOF 8
ENDMDL
