MODEL 1
REMARK VINA RESULT:      47.0      0.000      0.000
REMARK  5 active torsions:
REMARK  status: ('A' for Active; 'I' for Inactive)
REMARK    1  A    between atoms: N_2  and  S_1 
REMARK    2  A    between atoms: C_4  and  S_1 
REMARK    3  A    between atoms: C_3  and  N_2 
REMARK    4  A    between atoms: N_7  and  C_3 
REMARK    5  A    between atoms: C_15  and  N_7 
ROOT
ATOM      1  S   UNL d   1      59.872  49.642  50.896  0.00  0.00     0.287 S 
ATOM      2  O   UNL d   1      59.351  49.575  51.544  0.00  0.00    -0.198 OA
ATOM      3  O   UNL d   1      60.388  49.707  50.256  0.00  0.00    -0.198 OA
ENDROOT
BRANCH   1   4
ATOM      4  N   UNL d   1      59.224  49.697  50.382  0.00  0.00    -0.128 NA
BRANCH   4   5
ATOM      5  C   UNL d   1      58.785  49.377  49.763  0.00  0.00     0.232 C 
ATOM      6  S   UNL d   1      59.106  48.781  49.293  0.00  0.00    -0.036 SA
BRANCH   5   7
ATOM      7  N   UNL d   1      58.023  49.655  49.615  0.00  0.00    -0.217 NA
BRANCH   7   8
ATOM      8  C   UNL d   1      57.379  49.289  49.979  0.00  0.00     0.084 A 
ATOM      9  C   UNL d   1      57.445  48.509  50.234  0.00  0.00     0.019 A 
ATOM     10  C   UNL d   1      56.805  48.141  50.598  0.00  0.00     0.002 A 
ATOM     11  C   UNL d   1      56.102  48.551  50.706  0.00  0.00     0.000 A 
ATOM     12  C   UNL d   1      56.036  49.331  50.451  0.00  0.00     0.002 A 
ATOM     13  C   UNL d   1      56.673  49.701  50.088  0.00  0.00     0.019 A 
ENDBRANCH   7   8
ENDBRANCH   5   7
ENDBRANCH   4   5
ENDBRANCH   1   4
BRANCH   1  14
ATOM     14  C   UNL d   1      60.523  49.586  51.415  0.00  0.00     0.105 A 
ATOM     15  C   UNL d   1      61.269  49.411  51.112  0.00  0.00     0.013 A 
ATOM     16  C   UNL d   1      61.925  49.353  51.624  0.00  0.00     0.007 A 
ATOM     17  C   UNL d   1      61.824  49.473  52.443  0.00  0.00     0.035 A 
ATOM     18  C   UNL d   1      61.070  49.649  52.741  0.00  0.00     0.007 A 
ATOM     19 BR   UNL d   1      62.474  49.415  52.947  0.00  0.00    -0.049 Br
ATOM     20  C   UNL d   1      60.421  49.706  52.234  0.00  0.00     0.013 A 
ENDBRANCH   1  14
TORSDOF 5
ENDMDL
MODEL 2
REMARK VINA RESULT:      49.6      1.887      4.504
REMARK  5 active torsions:
REMARK  status: ('A' for Active; 'I' for Inactive)
REMARK    1  A    between atoms: N_2  and  S_1 
REMARK    2  A    between atoms: C_4  and  S_1 
REMARK    3  A    between atoms: C_3  and  N_2 
REMARK    4  A    between atoms: N_7  and  C_3 
REMARK    5  A    between atoms: C_15  and  N_7 
ROOT
ATOM      1  S   UNL d   1      59.296  49.489  50.478  0.00  0.00     0.287 S 
ATOM      2  O   UNL d   1      59.452  49.551  49.661  0.00  0.00    -0.198 OA
ATOM      3  O   UNL d   1      59.141  49.427  51.286  0.00  0.00    -0.198 OA
ENDROOT
BRANCH   1   4
ATOM      4  N   UNL d   1      60.110  49.444  50.630  0.00  0.00    -0.128 NA
BRANCH   4   5
ATOM      5  C   UNL d   1      60.725  49.168  51.102  0.00  0.00     0.232 C 
ATOM      6  S   UNL d   1      60.785  48.364  51.276  0.00  0.00    -0.036 SA
BRANCH   5   7
ATOM      7  N   UNL d   1      61.281  49.698  51.401  0.00  0.00    -0.217 NA
BRANCH   7   8
ATOM      8  C   UNL d   1      61.615  49.562  52.143  0.00  0.00     0.084 A 
ATOM      9  C   UNL d   1      61.166  49.695  52.821  0.00  0.00     0.019 A 
ATOM     10  C   UNL d   1      61.496  49.561  53.563  0.00  0.00     0.002 A 
ATOM     11  C   UNL d   1      62.270  49.295  53.628  0.00  0.00     0.000 A 
ATOM     12  C   UNL d   1      62.718  49.162  52.951  0.00  0.00     0.002 A 
ATOM     13  C   UNL d   1      62.393  49.295  52.208  0.00  0.00     0.019 A 
ENDBRANCH   7   8
ENDBRANCH   5   7
ENDBRANCH   4   5
ENDBRANCH   1   4
BRANCH   1  14
ATOM     14  C   UNL d   1      58.478  49.534  50.324  0.00  0.00     0.105 A 
ATOM     15  C   UNL d   1      57.949  49.587  50.954  0.00  0.00     0.013 A 
ATOM     16  C   UNL d   1      57.129  49.633  50.808  0.00  0.00     0.007 A 
ATOM     17  C   UNL d   1      56.845  49.624  50.024  0.00  0.00     0.035 A 
ATOM     18  C   UNL d   1      57.383  49.570  49.395  0.00  0.00     0.007 A 
ATOM     19 BR   UNL d   1      56.034  49.669  49.883  0.00  0.00    -0.049 Br
ATOM     20  C   UNL d   1      58.194  49.525  49.540  0.00  0.00     0.013 A 
ENDBRANCH   1  14
TORSDOF 5
ENDMDL
