MODEL 1
REMARK VINA RESULT:      -2.9      0.000      0.000
REMARK  6 active torsions:
REMARK  status: ('A' for Active; 'I' for Inactive)
REMARK    1  A    between atoms: C_21  and  C_3 
REMARK    2  A    between atoms: S_17  and  C_5 
REMARK    3  A    between atoms: C_11  and  C_16 
REMARK       I    between atoms: N_14  and  C_11 
REMARK    4  A    between atoms: C_19  and  N_14 
REMARK    5  A    between atoms: C_16  and  C_20 
REMARK    6  A    between atoms: C_20  and  S_17 
ROOT
ATOM      1  C   UNL d   1      33.136  20.768 -22.057  0.00  0.00     0.092 A 
ATOM      2  C   UNL d   1      33.125  22.021 -22.747  0.00  0.00     0.057 A 
ATOM      3  C   UNL d   1      33.097  21.596 -22.044  0.00  0.00     0.016 A 
ATOM      4  N   UNL d   1      33.230  20.805 -23.481  0.00  0.00    -0.239 NA
ATOM      5  C   UNL d   1      33.202  20.373 -22.776  0.00  0.00     0.120 A 
ATOM      6  C   UNL d   1      33.191  21.625 -23.466  0.00  0.00     0.081 A 
ATOM      7  C   UNL d   1      33.087  22.841 -22.730  0.00  0.00     0.193 A 
ATOM      8  C   UNL d   1      33.107  20.346 -21.341  0.00  0.00     0.103 C 
ATOM      9  N   UNL d   1      33.079  19.917 -20.628  0.00  0.00    -0.191 NA
ATOM     10  C   UNL d   1      33.181  22.874 -24.153  0.00  0.00     0.042 A 
ATOM     11  C   UNL d   1      33.114  23.270 -23.435  0.00  0.00     0.019 A 
ATOM     12  C   UNL d   1      33.219  22.051 -24.167  0.00  0.00    -0.003 A 
ATOM     13  O   UNL d   1      33.020  23.237 -22.011  0.00  0.00    -0.287 OA
ATOM     14  C   UNL d   1      33.241  22.750 -24.965  0.00  0.00     0.009 C 
ATOM     15  C   UNL d   1      33.142  23.702 -24.140  0.00  0.00     0.009 C 
ENDROOT
BRANCH   3  16
ATOM     16  C   UNL d   1      33.031  21.991 -21.325  0.00  0.00     0.001 C 
ATOM     17  C   UNL d   1      32.316  21.994 -20.921  0.00  0.00     0.000 C 
ENDBRANCH   3  16
BRANCH   5  18
ATOM     18  S   UNL d   1      33.240  19.549 -22.790  0.00  0.00    -0.067 SA
BRANCH  18  19
ATOM     19  C   UNL d   1      32.836  19.132 -23.377  0.00  0.00     0.042 C 
BRANCH  19  20
ATOM     20  C   UNL d   1      32.895  18.309 -23.412  0.00  0.00     0.070 C 
BRANCH  20  21
ATOM     21  C   UNL d   1      32.275  17.862 -23.735  0.00  0.00     0.280 C 
ATOM     22  N   UNL d   1      31.898  17.286 -23.277  0.00  0.00    -0.208 NA
ATOM     23  O   UNL d   1      32.032  17.991 -24.514  0.00  0.00    -0.265 OA
BRANCH  22  24
ATOM     24  C   UNL d   1      31.279  16.839 -23.600  0.00  0.00     0.085 A 
ATOM     25  C   UNL d   1      30.576  17.209 -23.830  0.00  0.00     0.019 A 
ATOM     26  C   UNL d   1      29.965  16.762 -24.149  0.00  0.00     0.002 A 
ATOM     27  C   UNL d   1      30.043  15.944 -24.244  0.00  0.00     0.000 A 
ATOM     28  C   UNL d   1      30.743  15.576 -24.015  0.00  0.00     0.002 A 
ATOM     29  C   UNL d   1      29.417  15.492 -24.570  0.00  0.00     0.000 C 
ATOM     30  C   UNL d   1      31.363  16.022 -23.693  0.00  0.00     0.019 A 
ENDBRANCH  22  24
ENDBRANCH  20  21
ENDBRANCH  19  20
ENDBRANCH  18  19
ENDBRANCH   5  18
TORSDOF 6
ENDMDL
