MODEL 1
REMARK VINA RESULT:      26.7      0.000      0.000
REMARK  3 active torsions:
REMARK  status: ('A' for Active; 'I' for Inactive)
REMARK    1  A    between atoms: C_7  and  C_1 
REMARK    2  A    between atoms: C_9  and  C_6 
REMARK    3  A    between atoms: O_13  and  C_7 
ROOT
ATOM      1  C   UNL d   1      45.785 -18.679  42.051  0.00  0.00     0.097 A 
ATOM      2  C   UNL d   1      45.778 -18.492  41.251  0.00  0.00     0.073 A 
ATOM      3  C   UNL d   1      46.357 -19.761  40.948  0.00  0.00     0.206 A 
ATOM      4  N   UNL d   1      46.062 -19.027  40.696  0.00  0.00    -0.280 N 
ATOM      5  N   UNL d   1      46.364 -19.948  41.749  0.00  0.00    -0.218 NA
ATOM      6  C   UNL d   1      46.077 -19.407  42.314  0.00  0.00     0.090 A 
ATOM      7  S   UNL d   1      46.643 -20.300  40.392  0.00  0.00    -0.038 SA
ATOM      8  C   UNL d   1      45.478 -17.748  41.001  0.00  0.00     0.019 C 
ATOM      9  C   UNL d   1      46.055 -18.839  39.891  0.00  0.00     0.101 C 
ENDROOT
BRANCH   6  10
ATOM     10  C   UNL d   1      46.084 -19.596  43.123  0.00  0.00     0.018 A 
ATOM     11  C   UNL d   1      46.637 -19.237  43.620  0.00  0.00     0.002 A 
ATOM     12  C   UNL d   1      46.644 -19.425  44.420  0.00  0.00     0.000 A 
ATOM     13  C   UNL d   1      46.098 -19.971  44.724  0.00  0.00     0.000 A 
ATOM     14  C   UNL d   1      45.553 -20.322  44.220  0.00  0.00     0.000 A 
ATOM     15  C   UNL d   1      45.545 -20.135  43.419  0.00  0.00     0.002 A 
ENDBRANCH   6  10
BRANCH   1  16
ATOM     16  C   UNL d   1      45.493 -18.127  42.619  0.00  0.00     0.299 C 
ATOM     17  O   UNL d   1      44.710 -18.185  42.893  0.00  0.00    -0.259 OA
BRANCH  16  18
ATOM     18  O   UNL d   1      45.996 -17.529  42.897  0.00  0.00    -0.296 OA
ATOM     19  C   UNL d   1      45.701 -16.905  43.343  0.00  0.00     0.185 C 
ENDBRANCH  16  18
ENDBRANCH   1  16
TORSDOF 3
ENDMDL
MODEL 2
REMARK VINA RESULT:      27.2      1.915      3.252
REMARK  3 active torsions:
REMARK  status: ('A' for Active; 'I' for Inactive)
REMARK    1  A    between atoms: C_7  and  C_1 
REMARK    2  A    between atoms: C_9  and  C_6 
REMARK    3  A    between atoms: O_13  and  C_7 
ROOT
ATOM      1  C   UNL d   1      46.038 -18.403  43.561  0.00  0.00     0.097 A 
ATOM      2  C   UNL d   1      45.899 -17.917  44.210  0.00  0.00     0.073 A 
ATOM      3  C   UNL d   1      46.142 -16.767  43.401  0.00  0.00     0.206 A 
ATOM      4  N   UNL d   1      45.950 -17.100  44.137  0.00  0.00    -0.280 N 
ATOM      5  N   UNL d   1      46.280 -17.252  42.752  0.00  0.00    -0.218 NA
ATOM      6  C   UNL d   1      46.229 -18.082  42.825  0.00  0.00     0.090 A 
ATOM      7  S   UNL d   1      46.193 -15.947  43.325  0.00  0.00    -0.038 SA
ATOM      8  C   UNL d   1      45.706 -18.260  44.953  0.00  0.00     0.019 C 
ATOM      9  C   UNL d   1      45.811 -16.612  44.789  0.00  0.00     0.101 C 
ENDROOT
BRANCH   6  10
ATOM     10  C   UNL d   1      46.369 -18.572  42.169  0.00  0.00     0.018 A 
ATOM     11  C   UNL d   1      46.440 -19.387  42.278  0.00  0.00     0.002 A 
ATOM     12  C   UNL d   1      46.579 -19.873  41.629  0.00  0.00     0.000 A 
ATOM     13  C   UNL d   1      46.645 -19.544  40.871  0.00  0.00     0.000 A 
ATOM     14  C   UNL d   1      46.572 -18.731  40.774  0.00  0.00     0.000 A 
ATOM     15  C   UNL d   1      46.434 -18.245  41.422  0.00  0.00     0.002 A 
ENDBRANCH   6  10
BRANCH   1  16
ATOM     16  C   UNL d   1      45.985 -19.241  43.641  0.00  0.00     0.299 C 
ATOM     17  O   UNL d   1      45.373 -19.659  43.264  0.00  0.00    -0.259 OA
BRANCH  16  18
ATOM     18  O   UNL d   1      46.551 -19.640  44.098  0.00  0.00    -0.296 OA
ATOM     19  C   UNL d   1      46.335 -20.273  44.576  0.00  0.00     0.185 C 
ENDBRANCH  16  18
ENDBRANCH   1  16
TORSDOF 3
ENDMDL
MODEL 3
REMARK VINA RESULT:      27.3      1.693      3.009
REMARK  3 active torsions:
REMARK  status: ('A' for Active; 'I' for Inactive)
REMARK    1  A    between atoms: C_7  and  C_1 
REMARK    2  A    between atoms: C_9  and  C_6 
REMARK    3  A    between atoms: O_13  and  C_7 
ROOT
ATOM      1  C   UNL d   1      46.168 -18.204  43.232  0.00  0.00     0.097 A 
ATOM      2  C   UNL d   1      46.339 -18.976  43.008  0.00  0.00     0.073 A 
ATOM      3  C   UNL d   1      46.439 -19.352  44.381  0.00  0.00     0.206 A 
ATOM      4  N   UNL d   1      46.475 -19.553  43.577  0.00  0.00    -0.280 N 
ATOM      5  N   UNL d   1      46.268 -18.580  44.605  0.00  0.00    -0.218 NA
ATOM      6  C   UNL d   1      46.130 -17.992  44.030  0.00  0.00     0.090 A 
ATOM      7  S   UNL d   1      46.576 -19.931  44.953  0.00  0.00    -0.038 SA
ATOM      8  C   UNL d   1      46.374 -19.174  42.192  0.00  0.00     0.019 C 
ATOM      9  C   UNL d   1      46.646 -20.329  43.351  0.00  0.00     0.101 C 
ENDROOT
BRANCH   6  10
ATOM     10  C   UNL d   1      45.957 -17.212  44.257  0.00  0.00     0.018 A 
ATOM     11  C   UNL d   1      45.268 -17.054  44.683  0.00  0.00     0.002 A 
ATOM     12  C   UNL d   1      45.097 -16.282  44.907  0.00  0.00     0.000 A 
ATOM     13  C   UNL d   1      45.615 -15.666  44.705  0.00  0.00     0.000 A 
ATOM     14  C   UNL d   1      46.299 -15.835  44.281  0.00  0.00     0.000 A 
ATOM     15  C   UNL d   1      46.469 -16.607  44.056  0.00  0.00     0.002 A 
ENDBRANCH   6  10
BRANCH   1  16
ATOM     16  C   UNL d   1      46.028 -17.613  42.646  0.00  0.00     0.299 C 
ATOM     17  O   UNL d   1      46.626 -17.069  42.450  0.00  0.00    -0.259 OA
BRANCH  16  18
ATOM     18  O   UNL d   1      45.289 -17.583  42.270  0.00  0.00    -0.296 OA
ATOM     19  C   UNL d   1      45.235 -17.579  41.450  0.00  0.00     0.185 C 
ENDBRANCH  16  18
ENDBRANCH   1  16
TORSDOF 3
ENDMDL
MODEL 4
REMARK VINA RESULT:      29.1      5.697      7.316
REMARK  3 active torsions:
REMARK  status: ('A' for Active; 'I' for Inactive)
REMARK    1  A    between atoms: C_7  and  C_1 
REMARK    2  A    between atoms: C_9  and  C_6 
REMARK    3  A    between atoms: O_13  and  C_7 
ROOT
ATOM      1  C   UNL d   1      44.071 -15.892  36.826  0.00  0.00     0.097 A 
ATOM      2  C   UNL d   1      43.295 -16.151  36.747  0.00  0.00     0.073 A 
ATOM      3  C   UNL d   1      42.872 -14.810  36.507  0.00  0.00     0.206 A 
ATOM      4  N   UNL d   1      42.692 -15.616  36.588  0.00  0.00    -0.280 N 
ATOM      5  N   UNL d   1      43.648 -14.551  36.586  0.00  0.00    -0.218 NA
ATOM      6  C   UNL d   1      44.262 -15.092  36.747  0.00  0.00     0.090 A 
ATOM      7  S   UNL d   1      42.268 -14.271  36.347  0.00  0.00    -0.038 SA
ATOM      8  C   UNL d   1      43.119 -16.969  36.831  0.00  0.00     0.019 C 
ATOM      9  C   UNL d   1      41.912 -15.876  36.509  0.00  0.00     0.101 C 
ENDROOT
BRANCH   6  10
ATOM     10  C   UNL d   1      45.046 -14.831  36.827  0.00  0.00     0.018 A 
ATOM     11  C   UNL d   1      45.233 -14.275  37.408  0.00  0.00     0.002 A 
ATOM     12  C   UNL d   1      46.009 -14.016  37.487  0.00  0.00     0.000 A 
ATOM     13  C   UNL d   1      46.599 -14.312  36.984  0.00  0.00     0.000 A 
ATOM     14  C   UNL d   1      46.402 -14.865  36.409  0.00  0.00     0.000 A 
ATOM     15  C   UNL d   1      45.626 -15.124  36.330  0.00  0.00     0.002 A 
ENDBRANCH   6  10
BRANCH   1  16
ATOM     16  C   UNL d   1      44.688 -16.445  36.990  0.00  0.00     0.299 C 
ATOM     17  O   UNL d   1      45.059 -16.853  36.368  0.00  0.00    -0.259 OA
BRANCH  16  18
ATOM     18  O   UNL d   1      44.916 -16.574  37.777  0.00  0.00    -0.296 OA
ATOM     19  C   UNL d   1      45.072 -17.333  38.050  0.00  0.00     0.185 C 
ENDBRANCH  16  18
ENDBRANCH   1  16
TORSDOF 3
ENDMDL
MODEL 5
REMARK VINA RESULT:      29.4      4.074      5.754
REMARK  3 active torsions:
REMARK  status: ('A' for Active; 'I' for Inactive)
REMARK    1  A    between atoms: C_7  and  C_1 
REMARK    2  A    between atoms: C_9  and  C_6 
REMARK    3  A    between atoms: O_13  and  C_7 
ROOT
ATOM      1  C   UNL d   1      44.823 -14.696  44.620  0.00  0.00     0.097 A 
ATOM      2  C   UNL d   1      44.652 -15.485  44.777  0.00  0.00     0.073 A 
ATOM      3  C   UNL d   1      46.026 -15.820  44.586  0.00  0.00     0.206 A 
ATOM      4  N   UNL d   1      45.249 -16.050  44.761  0.00  0.00    -0.280 N 
ATOM      5  N   UNL d   1      46.197 -15.031  44.429  0.00  0.00    -0.218 NA
ATOM      6  C   UNL d   1      45.593 -14.456  44.444  0.00  0.00     0.090 A 
ATOM      7  S   UNL d   1      46.626 -16.386  44.569  0.00  0.00    -0.038 SA
ATOM      8  C   UNL d   1      43.863 -15.713  44.955  0.00  0.00     0.019 C 
ATOM      9  C   UNL d   1      45.077 -16.843  44.919  0.00  0.00     0.101 C 
ENDROOT
BRANCH   6  10
ATOM     10  C   UNL d   1      45.766 -13.658  44.285  0.00  0.00     0.018 A 
ATOM     11  C   UNL d   1      46.124 -13.196  44.867  0.00  0.00     0.002 A 
ATOM     12  C   UNL d   1      46.294 -12.407  44.710  0.00  0.00     0.000 A 
ATOM     13  C   UNL d   1      46.107 -12.080  43.971  0.00  0.00     0.000 A 
ATOM     14  C   UNL d   1      45.750 -12.550  43.399  0.00  0.00     0.000 A 
ATOM     15  C   UNL d   1      45.580 -13.339  43.556  0.00  0.00     0.002 A 
ENDBRANCH   6  10
BRANCH   1  16
ATOM     16  C   UNL d   1      44.208 -14.118  44.637  0.00  0.00     0.299 C 
ATOM     17  O   UNL d   1      44.354 -13.362  44.950  0.00  0.00    -0.259 OA
BRANCH  16  18
ATOM     18  O   UNL d   1      43.460 -14.315  44.338  0.00  0.00    -0.296 OA
ATOM     19  C   UNL d   1      42.837 -13.780  44.376  0.00  0.00     0.185 C 
ENDBRANCH  16  18
ENDBRANCH   1  16
TORSDOF 3
ENDMDL
