MODEL 1
REMARK VINA RESULT:      -9.5      0.000      0.000
REMARK  4 active torsions:
REMARK  status: ('A' for Active; 'I' for Inactive)
REMARK    1  A    between atoms: C_7  and  C_2 
REMARK    2  A    between atoms: C_6  and  C_3 
REMARK    3  A    between atoms: C_9  and  C_6 
REMARK    4  A    between atoms: O_15  and  C_10 
ROOT
ATOM      1  N   UNL d   1      53.751  31.813  53.755  0.00  0.00    -0.201 NA
ATOM      2  C   UNL d   1      53.771  32.619  53.917  0.00  0.00     0.114 A 
ATOM      3  C   UNL d   1      52.778  32.374  53.070  0.00  0.00     0.089 A 
ATOM      4  C   UNL d   1      53.147  31.655  53.238  0.00  0.00     0.286 A 
ATOM      5  S   UNL d   1      53.152  32.972  53.480  0.00  0.00    -0.063 SA
ATOM      6  O   UNL d   1      52.945  30.913  52.940  0.00  0.00    -0.265 OA
ENDROOT
BRANCH   3   7
ATOM      7  C   UNL d   1      52.136  32.490  52.571  0.00  0.00     0.011 C 
BRANCH   7   8
ATOM      8  C   UNL d   1      51.582  33.092  52.693  0.00  0.00     0.001 A 
ATOM      9  C   UNL d   1      51.001  33.041  53.250  0.00  0.00     0.002 A 
ATOM     10  C   UNL d   1      50.469  33.653  53.347  0.00  0.00     0.024 A 
ATOM     11  C   UNL d   1      50.501  34.315  52.903  0.00  0.00     0.094 A 
ATOM     12  C   UNL d   1      51.092  34.382  52.327  0.00  0.00     0.024 A 
ATOM     13  C   UNL d   1      51.637  33.775  52.215  0.00  0.00     0.002 A 
BRANCH  11  14
ATOM     14  O   UNL d   1      49.956  34.930  53.009  0.00  0.00    -0.328 OA
ATOM     15  C   UNL d   1      49.238  34.919  52.619  0.00  0.00     0.181 C 
ENDBRANCH  11  14
ENDBRANCH   7   8
ENDBRANCH   3   7
BRANCH   2  16
ATOM     16  C   UNL d   1      54.301  33.007  54.416  0.00  0.00     0.024 A 
ATOM     17  C   UNL d   1      54.971  33.358  54.098  0.00  0.00     0.002 A 
ATOM     18  C   UNL d   1      55.501  33.746  54.597  0.00  0.00     0.000 A 
ATOM     19  C   UNL d   1      55.354  33.780  55.409  0.00  0.00     0.000 A 
ATOM     20  C   UNL d   1      54.677  33.425  55.721  0.00  0.00     0.000 A 
ATOM     21  C   UNL d   1      54.148  33.037  55.222  0.00  0.00     0.002 A 
ENDBRANCH   2  16
TORSDOF 4
ENDMDL
MODEL 2
REMARK VINA RESULT:      -9.2      1.668      4.225
REMARK  4 active torsions:
REMARK  status: ('A' for Active; 'I' for Inactive)
REMARK    1  A    between atoms: C_7  and  C_2 
REMARK    2  A    between atoms: C_6  and  C_3 
REMARK    3  A    between atoms: C_9  and  C_6 
REMARK    4  A    between atoms: O_15  and  C_10 
ROOT
ATOM      1  N   UNL d   1      52.886  33.853  53.759  0.00  0.00    -0.201 NA
ATOM      2  C   UNL d   1      52.377  33.468  53.242  0.00  0.00     0.114 A 
ATOM      3  C   UNL d   1      53.424  32.686  53.478  0.00  0.00     0.089 A 
ATOM      4  C   UNL d   1      53.529  33.382  53.908  0.00  0.00     0.286 A 
ATOM      5  S   UNL d   1      52.721  32.727  53.065  0.00  0.00    -0.063 SA
ATOM      6  O   UNL d   1      54.165  33.569  54.399  0.00  0.00    -0.265 OA
ENDROOT
BRANCH   3   7
ATOM      7  C   UNL d   1      53.934  32.042  53.455  0.00  0.00     0.011 C 
BRANCH   7   8
ATOM      8  C   UNL d   1      53.690  31.276  53.647  0.00  0.00     0.001 A 
ATOM      9  C   UNL d   1      53.573  31.035  54.408  0.00  0.00     0.002 A 
ATOM     10  C   UNL d   1      53.332  30.272  54.566  0.00  0.00     0.024 A 
ATOM     11  C   UNL d   1      53.204  29.740  53.984  0.00  0.00     0.094 A 
ATOM     12  C   UNL d   1      53.320  29.973  53.198  0.00  0.00     0.024 A 
ATOM     13  C   UNL d   1      53.563  30.739  53.020  0.00  0.00     0.002 A 
BRANCH  11  14
ATOM     14  O   UNL d   1      52.959  28.967  54.155  0.00  0.00    -0.328 OA
ATOM     15  C   UNL d   1      53.331  28.536  54.741  0.00  0.00     0.181 C 
ENDBRANCH  11  14
ENDBRANCH   7   8
ENDBRANCH   3   7
BRANCH   2  16
ATOM     16  C   UNL d   1      51.661  33.756  52.951  0.00  0.00     0.024 A 
ATOM     17  C   UNL d   1      51.637  34.095  52.204  0.00  0.00     0.002 A 
ATOM     18  C   UNL d   1      50.921  34.384  51.913  0.00  0.00     0.000 A 
ATOM     19  C   UNL d   1      50.236  34.329  52.372  0.00  0.00     0.000 A 
ATOM     20  C   UNL d   1      50.269  33.986  53.122  0.00  0.00     0.000 A 
ATOM     21  C   UNL d   1      50.985  33.698  53.413  0.00  0.00     0.002 A 
ENDBRANCH   2  16
TORSDOF 4
ENDMDL
MODEL 3
REMARK VINA RESULT:      -9.2      1.341      2.454
REMARK  4 active torsions:
REMARK  status: ('A' for Active; 'I' for Inactive)
REMARK    1  A    between atoms: C_7  and  C_2 
REMARK    2  A    between atoms: C_6  and  C_3 
REMARK    3  A    between atoms: C_9  and  C_6 
REMARK    4  A    between atoms: O_15  and  C_10 
ROOT
ATOM      1  N   UNL d   1      54.224  32.022  53.583  0.00  0.00    -0.201 NA
ATOM      2  C   UNL d   1      53.477  31.682  53.543  0.00  0.00     0.114 A 
ATOM      3  C   UNL d   1      53.348  33.003  53.557  0.00  0.00     0.089 A 
ATOM      4  C   UNL d   1      54.154  32.830  53.593  0.00  0.00     0.286 A 
ATOM      5  S   UNL d   1      52.923  32.308  53.526  0.00  0.00    -0.063 SA
ATOM      6  O   UNL d   1      54.776  33.371  53.630  0.00  0.00    -0.265 OA
ENDROOT
BRANCH   3   7
ATOM      7  C   UNL d   1      53.008  33.752  53.553  0.00  0.00     0.011 C 
BRANCH   7   8
ATOM      8  C   UNL d   1      52.253  33.894  53.246  0.00  0.00     0.001 A 
ATOM      9  C   UNL d   1      51.582  33.796  53.684  0.00  0.00     0.002 A 
ATOM     10  C   UNL d   1      50.851  33.944  53.353  0.00  0.00     0.024 A 
ATOM     11  C   UNL d   1      50.770  34.188  52.597  0.00  0.00     0.094 A 
ATOM     12  C   UNL d   1      51.450  34.293  52.137  0.00  0.00     0.024 A 
ATOM     13  C   UNL d   1      52.196  34.149  52.453  0.00  0.00     0.002 A 
BRANCH  11  14
ATOM     14  O   UNL d   1      50.022  34.336  52.271  0.00  0.00    -0.328 OA
ATOM     15  C   UNL d   1      49.491  34.821  52.658  0.00  0.00     0.181 C 
ENDBRANCH  11  14
ENDBRANCH   7   8
ENDBRANCH   3   7
BRANCH   2  16
ATOM     16  C   UNL d   1      53.304  30.876  53.522  0.00  0.00     0.024 A 
ATOM     17  C   UNL d   1      52.983  30.550  52.841  0.00  0.00     0.002 A 
ATOM     18  C   UNL d   1      52.810  29.743  52.820  0.00  0.00     0.000 A 
ATOM     19  C   UNL d   1      52.960  29.272  53.481  0.00  0.00     0.000 A 
ATOM     20  C   UNL d   1      53.282  29.608  54.163  0.00  0.00     0.000 A 
ATOM     21  C   UNL d   1      53.455  30.414  54.183  0.00  0.00     0.002 A 
ENDBRANCH   2  16
TORSDOF 4
ENDMDL
MODEL 4
REMARK VINA RESULT:      -8.9      1.720      3.496
REMARK  4 active torsions:
REMARK  status: ('A' for Active; 'I' for Inactive)
REMARK    1  A    between atoms: C_7  and  C_2 
REMARK    2  A    between atoms: C_6  and  C_3 
REMARK    3  A    between atoms: C_9  and  C_6 
REMARK    4  A    between atoms: O_15  and  C_10 
ROOT
ATOM      1  N   UNL d   1      53.129  33.369  53.384  0.00  0.00    -0.201 NA
ATOM      2  C   UNL d   1      53.709  32.983  53.821  0.00  0.00     0.114 A 
ATOM      3  C   UNL d   1      53.066  32.091  53.077  0.00  0.00     0.089 A 
ATOM      4  C   UNL d   1      52.732  32.830  52.927  0.00  0.00     0.286 A 
ATOM      5  S   UNL d   1      53.667  32.173  53.624  0.00  0.00    -0.063 SA
ATOM      6  O   UNL d   1      52.110  32.996  52.410  0.00  0.00    -0.265 OA
ENDROOT
BRANCH   3   7
ATOM      7  C   UNL d   1      52.845  31.375  52.740  0.00  0.00     0.011 C 
BRANCH   7   8
ATOM      8  C   UNL d   1      52.934  30.653  53.133  0.00  0.00     0.001 A 
ATOM      9  C   UNL d   1      53.648  30.283  53.205  0.00  0.00     0.002 A 
ATOM     10  C   UNL d   1      53.704  29.571  53.600  0.00  0.00     0.024 A 
ATOM     11  C   UNL d   1      53.067  29.216  53.924  0.00  0.00     0.094 A 
ATOM     12  C   UNL d   1      52.328  29.584  53.859  0.00  0.00     0.024 A 
ATOM     13  C   UNL d   1      52.252  30.303  53.464  0.00  0.00     0.002 A 
BRANCH  11  14
ATOM     14  O   UNL d   1      53.135  28.493  54.323  0.00  0.00    -0.328 OA
ATOM     15  C   UNL d   1      53.470  28.460  55.067  0.00  0.00     0.181 C 
ENDBRANCH  11  14
ENDBRANCH   7   8
ENDBRANCH   3   7
BRANCH   2  16
ATOM     16  C   UNL d   1      54.234  33.330  54.355  0.00  0.00     0.024 A 
ATOM     17  C   UNL d   1      54.992  33.524  54.106  0.00  0.00     0.002 A 
ATOM     18  C   UNL d   1      55.517  33.870  54.639  0.00  0.00     0.000 A 
ATOM     19  C   UNL d   1      55.279  34.020  55.415  0.00  0.00     0.000 A 
ATOM     20  C   UNL d   1      54.515  33.822  55.658  0.00  0.00     0.000 A 
ATOM     21  C   UNL d   1      53.990  33.475  55.125  0.00  0.00     0.002 A 
ENDBRANCH   2  16
TORSDOF 4
ENDMDL
MODEL 5
REMARK VINA RESULT:      -8.9      1.300      3.946
REMARK  4 active torsions:
REMARK  status: ('A' for Active; 'I' for Inactive)
REMARK    1  A    between atoms: C_7  and  C_2 
REMARK    2  A    between atoms: C_6  and  C_3 
REMARK    3  A    between atoms: C_9  and  C_6 
REMARK    4  A    between atoms: O_15  and  C_10 
ROOT
ATOM      1  N   UNL d   1      51.877  31.903  52.647  0.00  0.00    -0.201 NA
ATOM      2  C   UNL d   1      51.958  32.692  52.865  0.00  0.00     0.114 A 
ATOM      3  C   UNL d   1      53.042  32.026  53.246  0.00  0.00     0.089 A 
ATOM      4  C   UNL d   1      52.535  31.490  52.877  0.00  0.00     0.286 A 
ATOM      5  S   UNL d   1      52.698  32.767  53.245  0.00  0.00    -0.063 SA
ATOM      6  O   UNL d   1      52.668  30.684  52.760  0.00  0.00    -0.265 OA
ENDROOT
BRANCH   3   7
ATOM      7  C   UNL d   1      53.779  31.861  53.571  0.00  0.00     0.011 C 
BRANCH   7   8
ATOM      8  C   UNL d   1      54.176  32.394  54.064  0.00  0.00     0.001 A 
ATOM      9  C   UNL d   1      54.003  32.470  54.848  0.00  0.00     0.002 A 
ATOM     10  C   UNL d   1      54.413  33.005  55.309  0.00  0.00     0.024 A 
ATOM     11  C   UNL d   1      54.991  33.466  55.009  0.00  0.00     0.094 A 
ATOM     12  C   UNL d   1      55.179  33.398  54.205  0.00  0.00     0.024 A 
ATOM     13  C   UNL d   1      54.776  32.865  53.725  0.00  0.00     0.002 A 
BRANCH  11  14
ATOM     14  O   UNL d   1      55.401  34.006  55.486  0.00  0.00    -0.328 OA
ATOM     15  C   UNL d   1      55.177  34.791  55.509  0.00  0.00     0.181 C 
ENDBRANCH  11  14
ENDBRANCH   7   8
ENDBRANCH   3   7
BRANCH   2  16
ATOM     16  C   UNL d   1      51.412  33.297  52.734  0.00  0.00     0.024 A 
ATOM     17  C   UNL d   1      51.519  33.804  52.098  0.00  0.00     0.002 A 
ATOM     18  C   UNL d   1      50.973  34.409  51.967  0.00  0.00     0.000 A 
ATOM     19  C   UNL d   1      50.327  34.500  52.473  0.00  0.00     0.000 A 
ATOM     20  C   UNL d   1      50.228  33.985  53.111  0.00  0.00     0.000 A 
ATOM     21  C   UNL d   1      50.773  33.380  53.242  0.00  0.00     0.002 A 
ENDBRANCH   2  16
TORSDOF 4
ENDMDL
MODEL 6
REMARK VINA RESULT:      -7.9      2.165      3.377
REMARK  4 active torsions:
REMARK  status: ('A' for Active; 'I' for Inactive)
REMARK    1  A    between atoms: C_7  and  C_2 
REMARK    2  A    between atoms: C_6  and  C_3 
REMARK    3  A    between atoms: C_9  and  C_6 
REMARK    4  A    between atoms: O_15  and  C_10 
ROOT
ATOM      1  N   UNL d   1      52.746  30.600  53.108  0.00  0.00    -0.201 NA
ATOM      2  C   UNL d   1      53.257  30.473  53.739  0.00  0.00     0.114 A 
ATOM      3  C   UNL d   1      53.476  31.685  53.245  0.00  0.00     0.089 A 
ATOM      4  C   UNL d   1      52.874  31.339  52.801  0.00  0.00     0.286 A 
ATOM      5  S   UNL d   1      53.719  31.164  53.824  0.00  0.00    -0.063 SA
ATOM      6  O   UNL d   1      52.473  31.676  52.163  0.00  0.00    -0.265 OA
ENDROOT
BRANCH   3   7
ATOM      7  C   UNL d   1      53.794  32.436  53.139  0.00  0.00     0.011 C 
BRANCH   7   8
ATOM      8  C   UNL d   1      53.673  33.050  53.679  0.00  0.00     0.001 A 
ATOM      9  C   UNL d   1      52.990  33.480  53.701  0.00  0.00     0.002 A 
ATOM     10  C   UNL d   1      52.900  34.080  54.247  0.00  0.00     0.024 A 
ATOM     11  C   UNL d   1      53.473  34.265  54.771  0.00  0.00     0.094 A 
ATOM     12  C   UNL d   1      54.179  33.833  54.760  0.00  0.00     0.024 A 
ATOM     13  C   UNL d   1      54.288  33.223  54.217  0.00  0.00     0.002 A 
BRANCH  11  14
ATOM     14  O   UNL d   1      53.371  34.877  55.320  0.00  0.00    -0.328 OA
ATOM     15  C   UNL d   1      53.046  35.590  55.090  0.00  0.00     0.181 C 
ENDBRANCH  11  14
ENDBRANCH   7   8
ENDBRANCH   3   7
BRANCH   2  16
ATOM     16  C   UNL d   1      53.306  29.792  54.203  0.00  0.00     0.024 A 
ATOM     17  C   UNL d   1      53.659  29.118  53.894  0.00  0.00     0.002 A 
ATOM     18  C   UNL d   1      53.708  28.438  54.357  0.00  0.00     0.000 A 
ATOM     19  C   UNL d   1      53.403  28.438  55.125  0.00  0.00     0.000 A 
ATOM     20  C   UNL d   1      53.050  29.120  55.428  0.00  0.00     0.000 A 
ATOM     21  C   UNL d   1      53.001  29.801  54.965  0.00  0.00     0.002 A 
ENDBRANCH   2  16
TORSDOF 4
ENDMDL
