MODEL 1
REMARK VINA RESULT:       8.4      0.000      0.000
REMARK  2 active torsions:
REMARK  status: ('A' for Active; 'I' for Inactive)
REMARK    1  A    between atoms: C_4  and  C_1 
REMARK    2  A    between atoms: N_6  and  C_5 
ROOT
ATOM      1  C   UNL d   1      44.542 -15.234  36.807  0.00  0.00     0.024 A 
ATOM      2  C   UNL d   1      42.964 -15.682  36.609  0.00  0.00     0.064 A 
ATOM      3  C   UNL d   1      43.932 -14.747  37.084  0.00  0.00     0.004 A 
ATOM      4  C   UNL d   1      44.360 -15.946  36.431  0.00  0.00     0.004 A 
ATOM      5  C   UNL d   1      43.146 -14.970  36.985  0.00  0.00     0.018 A 
ATOM      6  C   UNL d   1      43.567 -16.170  36.332  0.00  0.00     0.018 A 
ENDROOT
BRANCH   1   7
ATOM      7  C   UNL d   1      45.327 -15.015  36.904  0.00  0.00     0.111 A 
ATOM      8  N   UNL d   1      45.615 -14.342  37.269  0.00  0.00    -0.237 NA
ATOM      9  C   UNL d   1      46.438 -14.376  37.223  0.00  0.00     0.106 A 
ATOM     10  C   UNL d   1      46.646 -15.048  36.843  0.00  0.00     0.058 A 
ATOM     11  S   UNL d   1      45.964 -15.445  36.643  0.00  0.00    -0.066 SA
ENDBRANCH   1   7
BRANCH   2  12
ATOM     12  N   UNL d   1      42.168 -15.883  36.523  0.00  0.00    -0.301 N 
ATOM     13  C   UNL d   1      41.972 -16.655  36.330  0.00  0.00     0.100 C 
ATOM     14  C   UNL d   1      41.585 -15.317  36.629  0.00  0.00     0.100 C 
ENDBRANCH   2  12
TORSDOF 2
ENDMDL
MODEL 2
REMARK VINA RESULT:       8.6      7.243      7.726
REMARK  2 active torsions:
REMARK  status: ('A' for Active; 'I' for Inactive)
REMARK    1  A    between atoms: C_4  and  C_1 
REMARK    2  A    between atoms: N_6  and  C_5 
ROOT
ATOM      1  C   UNL d   1      46.582 -19.321  42.846  0.00  0.00     0.024 A 
ATOM      2  C   UNL d   1      46.601 -18.830  41.268  0.00  0.00     0.064 A 
ATOM      3  C   UNL d   1      46.575 -19.880  42.234  0.00  0.00     0.004 A 
ATOM      4  C   UNL d   1      46.599 -18.517  42.666  0.00  0.00     0.004 A 
ATOM      5  C   UNL d   1      46.584 -19.636  41.449  0.00  0.00     0.018 A 
ATOM      6  C   UNL d   1      46.609 -18.270  41.874  0.00  0.00     0.018 A 
ENDROOT
BRANCH   1   7
ATOM      7  C   UNL d   1      46.573 -19.563  43.631  0.00  0.00     0.111 A 
ATOM      8  N   UNL d   1      46.611 -20.328  43.917  0.00  0.00    -0.237 NA
ATOM      9  C   UNL d   1      46.583 -20.278  44.741  0.00  0.00     0.106 A 
ATOM     10  C   UNL d   1      46.529 -19.508  44.949  0.00  0.00     0.058 A 
ATOM     11  S   UNL d   1      46.522 -19.063  44.268  0.00  0.00    -0.066 SA
ENDBRANCH   1   7
BRANCH   2  12
ATOM     12  N   UNL d   1      46.610 -18.611  40.473  0.00  0.00    -0.301 N 
ATOM     13  C   UNL d   1      46.618 -19.197  39.900  0.00  0.00     0.100 C 
ATOM     14  C   UNL d   1      46.611 -17.820  40.263  0.00  0.00     0.100 C 
ENDBRANCH   2  12
TORSDOF 2
ENDMDL
MODEL 3
REMARK VINA RESULT:       9.1      1.075      3.367
REMARK  2 active torsions:
REMARK  status: ('A' for Active; 'I' for Inactive)
REMARK    1  A    between atoms: C_4  and  C_1 
REMARK    2  A    between atoms: N_6  and  C_5 
ROOT
ATOM      1  C   UNL d   1      43.850 -15.431  36.791  0.00  0.00     0.024 A 
ATOM      2  C   UNL d   1      45.458 -15.128  37.019  0.00  0.00     0.064 A 
ATOM      3  C   UNL d   1      44.095 -14.883  37.363  0.00  0.00     0.004 A 
ATOM      4  C   UNL d   1      44.412 -15.826  36.334  0.00  0.00     0.004 A 
ATOM      5  C   UNL d   1      44.896 -14.733  37.476  0.00  0.00     0.018 A 
ATOM      6  C   UNL d   1      45.220 -15.674  36.449  0.00  0.00     0.018 A 
ENDROOT
BRANCH   1   7
ATOM      7  C   UNL d   1      43.052 -15.583  36.675  0.00  0.00     0.111 A 
ATOM      8  N   UNL d   1      42.420 -15.095  36.854  0.00  0.00    -0.237 NA
ATOM      9  C   UNL d   1      41.735 -15.498  36.634  0.00  0.00     0.106 A 
ATOM     10  C   UNL d   1      41.940 -16.208  36.331  0.00  0.00     0.058 A 
ATOM     11  S   UNL d   1      42.752 -16.266  36.354  0.00  0.00    -0.066 SA
ENDBRANCH   1   7
BRANCH   2  12
ATOM     12  N   UNL d   1      46.255 -14.960  37.153  0.00  0.00    -0.301 N 
ATOM     13  C   UNL d   1      46.647 -15.348  37.760  0.00  0.00     0.100 C 
ATOM     14  C   UNL d   1      46.646 -14.413  36.685  0.00  0.00     0.100 C 
ENDBRANCH   2  12
TORSDOF 2
ENDMDL
