MODEL 1
REMARK VINA RESULT:      77.0      0.000      0.000
REMARK  3 active torsions:
REMARK  status: ('A' for Active; 'I' for Inactive)
REMARK    1  A    between atoms: C_11  and  C_4 
REMARK    2  A    between atoms: N_14  and  C_7 
REMARK    3  A    between atoms: C_10  and  C_12 
ROOT
ATOM      1  C   UNL d   1     -49.596  27.238  33.998  0.00  0.00     0.186 A 
ATOM      2  N   UNL d   1     -49.496  26.437  33.820  0.00  0.00    -0.193 N 
ATOM      3  N   UNL d   1     -50.362  27.566  34.021  0.00  0.00    -0.204 NA
ATOM      4  C   UNL d   1     -48.849  27.567  34.127  0.00  0.00     0.140 A 
ATOM      5  N   UNL d   1     -48.684  26.266  33.837  0.00  0.00    -0.058 NA
ATOM      6  N   UNL d   1     -48.283  26.967  34.027  0.00  0.00    -0.127 NA
ATOM      7  C   UNL d   1     -51.034  27.087  33.863  0.00  0.00     0.188 A 
ATOM      8  C   UNL d   1     -50.920  26.285  33.685  0.00  0.00     0.056 A 
ATOM      9  C   UNL d   1     -50.156  25.954  33.662  0.00  0.00     0.089 A 
ATOM     10  C   UNL d   1     -51.578  25.808  33.528  0.00  0.00     0.005 A 
ATOM     11  C   UNL d   1     -50.061  25.159  33.484  0.00  0.00     0.019 A 
ATOM     12  C   UNL d   1     -51.475  25.010  33.351  0.00  0.00     0.000 A 
ATOM     13  C   UNL d   1     -50.717  24.686  33.329  0.00  0.00     0.002 A 
ENDROOT
BRANCH   4  14
ATOM     14  C   UNL d   1     -48.696  28.356  34.320  0.00  0.00     0.022 A 
ATOM     15  C   UNL d   1     -48.240  28.533  34.983  0.00  0.00     0.005 A 
ATOM     16  C   UNL d   1     -48.085  29.314  35.180  0.00  0.00     0.071 A 
ATOM     17  C   UNL d   1     -48.385  29.925  34.715  0.00  0.00     0.004 A 
ATOM     18  C   UNL d   1     -48.845  29.743  34.046  0.00  0.00    -0.000 A 
ATOM     19  C   UNL d   1     -48.996  28.961  33.856  0.00  0.00     0.002 A 
BRANCH  16  20
ATOM     20  C   UNL d   1     -47.629  29.491  35.843  0.00  0.00     0.419 C 
ATOM     21  F   UNL d   1     -47.139  29.691  36.476  0.00  0.00    -0.166 F 
ATOM     22  F   UNL d   1     -48.162  29.121  36.342  0.00  0.00    -0.166 F 
ATOM     23  F   UNL d   1     -47.080  29.870  35.342  0.00  0.00    -0.166 F 
ENDBRANCH  16  20
ENDBRANCH   4  14
BRANCH   7  24
ATOM     24  N   UNL d   1     -51.792  27.411  33.885  0.00  0.00    -0.108 NA
ATOM     25  N   UNL d   1     -52.352  27.191  33.312  0.00  0.00    -0.021 N 
ENDBRANCH   7  24
TORSDOF 3
ENDMDL
MODEL 2
REMARK VINA RESULT:      79.8      2.354      4.334
REMARK  3 active torsions:
REMARK  status: ('A' for Active; 'I' for Inactive)
REMARK    1  A    between atoms: C_11  and  C_4 
REMARK    2  A    between atoms: N_14  and  C_7 
REMARK    3  A    between atoms: C_10  and  C_12 
ROOT
ATOM      1  C   UNL d   1     -49.208  27.820  34.607  0.00  0.00     0.186 A 
ATOM      2  N   UNL d   1     -48.555  28.323  34.540  0.00  0.00    -0.193 N 
ATOM      3  N   UNL d   1     -49.559  27.693  35.352  0.00  0.00    -0.204 NA
ATOM      4  C   UNL d   1     -49.385  27.528  33.855  0.00  0.00     0.140 A 
ATOM      5  N   UNL d   1     -48.325  28.344  33.743  0.00  0.00    -0.058 NA
ATOM      6  N   UNL d   1     -48.839  27.852  33.318  0.00  0.00    -0.127 NA
ATOM      7  C   UNL d   1     -49.253  28.073  36.036  0.00  0.00     0.188 A 
ATOM      8  C   UNL d   1     -48.598  28.575  35.955  0.00  0.00     0.056 A 
ATOM      9  C   UNL d   1     -48.245  28.704  35.212  0.00  0.00     0.089 A 
ATOM     10  C   UNL d   1     -48.293  28.952  36.625  0.00  0.00     0.005 A 
ATOM     11  C   UNL d   1     -47.598  29.204  35.150  0.00  0.00     0.019 A 
ATOM     12  C   UNL d   1     -47.642  29.453  36.555  0.00  0.00     0.000 A 
ATOM     13  C   UNL d   1     -47.294  29.578  35.818  0.00  0.00     0.002 A 
ENDROOT
BRANCH   4  14
ATOM     14  C   UNL d   1     -49.999  27.006  33.672  0.00  0.00     0.022 A 
ATOM     15  C   UNL d   1     -49.853  26.196  33.652  0.00  0.00     0.005 A 
ATOM     16  C   UNL d   1     -50.458  25.671  33.472  0.00  0.00     0.071 A 
ATOM     17  C   UNL d   1     -51.215  25.955  33.309  0.00  0.00     0.004 A 
ATOM     18  C   UNL d   1     -51.360  26.775  33.331  0.00  0.00    -0.000 A 
ATOM     19  C   UNL d   1     -50.750  27.291  33.512  0.00  0.00     0.002 A 
BRANCH  16  20
ATOM     20  C   UNL d   1     -50.312  24.861  33.452  0.00  0.00     0.419 C 
ATOM     21  F   UNL d   1     -50.215  24.042  33.440  0.00  0.00    -0.166 F 
ATOM     22  F   UNL d   1     -49.513  24.982  33.323  0.00  0.00    -0.166 F 
ATOM     23  F   UNL d   1     -51.125  24.730  33.582  0.00  0.00    -0.166 F 
ENDBRANCH  16  20
ENDBRANCH   4  14
BRANCH   7  24
ATOM     24  N   UNL d   1     -49.601  27.947  36.774  0.00  0.00    -0.108 NA
ATOM     25  N   UNL d   1     -49.905  27.198  36.965  0.00  0.00    -0.021 N 
ENDBRANCH   7  24
TORSDOF 3
ENDMDL
