MODEL 1
REMARK VINA RESULT:     177.1      0.000      0.000
REMARK  5 active torsions:
REMARK  status: ('A' for Active; 'I' for Inactive)
REMARK    1  A    between atoms: N_5  and  S_1 
REMARK    2  A    between atoms: C_10  and  S_1 
REMARK    3  A    between atoms: C_2  and  N_6 
REMARK    4  A    between atoms: C_20  and  N_5 
REMARK    5  A    between atoms: C_7  and  C_14 
REMARK       I    between atoms: N_8  and  C_7 
ROOT
ATOM      1  C   UNL d   1     -56.353-102.002 -42.938  0.00  0.00     0.104 A 
ATOM      2  C   UNL d   1     -57.236-102.376 -41.619  0.00  0.00     0.057 A 
ATOM      3  C   UNL d   1     -57.186-101.963 -42.940  0.00  0.00     0.013 A 
ATOM      4  C   UNL d   1     -55.971-102.233 -42.263  0.00  0.00     0.013 A 
ATOM      5  C   UNL d   1     -57.614-102.153 -42.270  0.00  0.00     0.005 A 
ATOM      6  C   UNL d   1     -56.406-102.422 -41.597  0.00  0.00     0.005 A 
ENDROOT
BRANCH   2   7
ATOM      7  C   UNL d   1     -57.678-102.566 -40.949  0.00  0.00     0.265 C 
ATOM      8  N   UNL d   1     -57.360-102.467 -40.192  0.00  0.00    -0.269 N 
ATOM      9  C   UNL d   1     -57.775-102.648 -39.473  0.00  0.00     0.102 A 
ATOM     10  C   UNL d   1     -56.600-102.178 -40.105  0.00  0.00     0.102 A 
ATOM     11  C   UNL d   1     -57.471-102.553 -38.738  0.00  0.00     0.101 A 
ATOM     12  N   UNL d   1     -56.703-102.261 -38.676  0.00  0.00    -0.281 N 
ATOM     13  C   UNL d   1     -56.257-102.071 -39.308  0.00  0.00     0.101 A 
ATOM     14  O   UNL d   1     -58.450-102.858 -41.049  0.00  0.00    -0.267 OA
BRANCH  12  15
ATOM     15  C   UNL d   1     -56.372-102.157 -37.943  0.00  0.00     0.179 A 
ATOM     16  N   UNL d   1     -56.604-102.531 -37.215  0.00  0.00    -0.222 NA
ATOM     17  C   UNL d   1     -56.086-102.228 -36.647  0.00  0.00     0.089 A 
ATOM     18  C   UNL d   1     -56.014-102.363 -35.840  0.00  0.00     0.020 A 
ATOM     19  C   UNL d   1     -55.589-101.708 -37.042  0.00  0.00     0.050 A 
ATOM     20  C   UNL d   1     -55.417-101.967 -35.371  0.00  0.00     0.002 A 
ATOM     21  C   UNL d   1     -54.911-101.433 -35.794  0.00  0.00     0.001 A 
ATOM     22  C   UNL d   1     -54.992-101.302 -36.616  0.00  0.00     0.008 A 
ATOM     23  S   UNL d   1     -55.786-101.683 -37.837  0.00  0.00    -0.048 SA
ENDBRANCH  12  15
ENDBRANCH   2   7
BRANCH   1  24
ATOM     24  S   UNL d   1     -55.938-101.804 -43.631  0.00  0.00     0.271 S 
ATOM     25  O   UNL d   1     -56.663-101.573 -43.987  0.00  0.00    -0.200 OA
ATOM     26  O   UNL d   1     -55.213-102.032 -43.282  0.00  0.00    -0.200 OA
BRANCH  24  27
ATOM     27  N   UNL d   1     -55.539-101.601 -44.329  0.00  0.00    -0.229 N 
ATOM     28  C   UNL d   1     -55.091-102.177 -44.736  0.00  0.00     0.111 C 
BRANCH  27  29
ATOM     29  C   UNL d   1     -55.586-100.833 -44.621  0.00  0.00     0.075 A 
ATOM     30  C   UNL d   1     -56.311-100.526 -44.873  0.00  0.00     0.018 A 
ATOM     31  C   UNL d   1     -56.358 -99.759 -45.164  0.00  0.00     0.002 A 
ATOM     32  C   UNL d   1     -55.680 -99.282 -45.209  0.00  0.00     0.000 A 
ATOM     33  C   UNL d   1     -54.956 -99.600 -44.953  0.00  0.00     0.002 A 
ATOM     34  C   UNL d   1     -54.910-100.369 -44.661  0.00  0.00     0.018 A 
ENDBRANCH  27  29
ENDBRANCH  24  27
ENDBRANCH   1  24
TORSDOF 5
ENDMDL
