MODEL 1
REMARK VINA RESULT:      57.6      0.000      0.000
REMARK  6 active torsions:
REMARK  status: ('A' for Active; 'I' for Inactive)
REMARK    1  A    between atoms: S_10  and  C_4 
REMARK    2  A    between atoms: C_16  and  S_10 
REMARK    3  A    between atoms: C_11  and  C_14 
REMARK    4  A    between atoms: O_20  and  C_13 
REMARK    5  A    between atoms: C_14  and  C_16 
REMARK    6  A    between atoms: O_21  and  C_15 
ROOT
ATOM      1  C   UNL d   1      59.701  49.627  50.521  0.00  0.00     0.079 C 
ENDROOT
BRANCH   1   2
ATOM      2  C   UNL d   1      60.232  49.262  51.041  0.00  0.00     0.202 C 
ATOM      3  O   UNL d   1      60.368  49.600  51.796  0.00  0.00    -0.286 OA
BRANCH   2   4
ATOM      4  C   UNL d   1      60.632  48.567  50.826  0.00  0.00     0.042 A 
ATOM      5  C   UNL d   1      60.395  47.830  51.125  0.00  0.00     0.029 A 
ATOM      6  C   UNL d   1      60.802  47.137  50.904  0.00  0.00     0.116 A 
ATOM      7  C   UNL d   1      61.443  47.194  50.385  0.00  0.00     0.116 A 
ATOM      8  C   UNL d   1      61.681  47.916  50.087  0.00  0.00     0.026 A 
ATOM      9  C   UNL d   1      61.274  48.610  50.308  0.00  0.00     0.005 A 
BRANCH   6  10
ATOM     10  O   UNL d   1      60.567  46.401  51.200  0.00  0.00    -0.326 OA
ATOM     11  C   UNL d   1      59.996  46.365  51.806  0.00  0.00     0.181 C 
ENDBRANCH   6  10
BRANCH   7  12
ATOM     12  O   UNL d   1      61.856  46.502  50.159  0.00  0.00    -0.326 OA
ATOM     13  C   UNL d   1      61.781  46.216  49.379  0.00  0.00     0.181 C 
ENDBRANCH   7  12
ENDBRANCH   2   4
ENDBRANCH   1   2
BRANCH   1  14
ATOM     14  S   UNL d   1      58.891  49.537  50.629  0.00  0.00    -0.063 SA
BRANCH  14  15
ATOM     15  C   UNL d   1      58.071  49.592  50.475  0.00  0.00     0.132 A 
ATOM     16  N   UNL d   1      57.571  49.619  51.071  0.00  0.00    -0.050 N 
ATOM     17  C   UNL d   1      56.798  49.671  50.918  0.00  0.00     0.753 A 
ATOM     18  N   UNL d   1      57.321  49.623  52.404  0.00  0.00    -0.130 NA
ATOM     19  N   UNL d   1      56.283  49.699  51.506  0.00  0.00    -0.038 NA
ATOM     20  N   UNL d   1      56.548  49.694  50.182  0.00  0.00    -0.059 NA
ATOM     21  C   UNL d   1      56.553  49.675  52.251  0.00  0.00     0.201 A 
ATOM     22  C   UNL d   1      56.043  49.702  52.855  0.00  0.00     0.044 C 
ATOM     23  C   UNL d   1      57.056  49.666  49.587  0.00  0.00     0.102 A 
ATOM     24  C   UNL d   1      57.825  49.614  49.739  0.00  0.00     0.046 A 
ATOM     25  C   UNL d   1      56.794  49.690  48.844  0.00  0.00     0.021 C 
ENDBRANCH  14  15
ENDBRANCH   1  14
TORSDOF 6
ENDMDL
