MODEL 1
REMARK VINA RESULT:      -6.6      0.000      0.000
REMARK  3 active torsions:
REMARK  status: ('A' for Active; 'I' for Inactive)
REMARK    1  A    between atoms: N_7  and  C_3 
REMARK       I    between atoms: C_8  and  N_7 
REMARK    2  A    between atoms: C_14  and  C_8 
REMARK    3  A    between atoms: C_15  and  C_14 
ROOT
ATOM      1  C   UNL d   1     -49.539  11.856  23.435  0.00  0.00     0.343 A 
ATOM      2  N   UNL d   1     -48.729  11.943  23.489  0.00  0.00    -0.241 N 
ATOM      3  C   UNL d   1     -48.380  12.671  23.337  0.00  0.00     0.159 A 
ATOM      4  N   UNL d   1     -50.010  12.501  23.227  0.00  0.00    -0.224 N 
ATOM      5  C   UNL d   1     -48.850  13.316  23.129  0.00  0.00     0.099 A 
ATOM      6  C   UNL d   1     -49.675  13.239  23.071  0.00  0.00     0.271 A 
ATOM      7  O   UNL d   1     -49.889  11.123  23.589  0.00  0.00    -0.245 OA
ATOM      8  O   UNL d   1     -50.141  13.877  22.865  0.00  0.00    -0.266 OA
ATOM      9  C   UNL d   1     -48.258  11.298  23.697  0.00  0.00     0.105 C 
ATOM     10  C   UNL d   1     -50.830  12.413  23.173  0.00  0.00     0.107 C 
ENDROOT
BRANCH   3  11
ATOM     11  N   UNL d   1     -47.559  12.760  23.391  0.00  0.00    -0.190 NA
ATOM     12  C   UNL d   1     -47.135  13.063  22.754  0.00  0.00     0.281 C 
ATOM     13  O   UNL d   1     -47.527  13.279  22.061  0.00  0.00    -0.265 OA
BRANCH  12  14
ATOM     14  C   UNL d   1     -46.318  13.151  22.810  0.00  0.00     0.063 C 
BRANCH  14  15
ATOM     15  C   UNL d   1     -45.880  13.332  22.134  0.00  0.00     0.005 C 
ATOM     16  C   UNL d   1     -45.073  13.289  22.133  0.00  0.00     0.000 C 
ENDBRANCH  14  15
ENDBRANCH  12  14
ENDBRANCH   3  11
TORSDOF 3
ENDMDL
MODEL 2
REMARK VINA RESULT:      -6.6      0.900      1.665
REMARK  3 active torsions:
REMARK  status: ('A' for Active; 'I' for Inactive)
REMARK    1  A    between atoms: N_7  and  C_3 
REMARK       I    between atoms: C_8  and  N_7 
REMARK    2  A    between atoms: C_14  and  C_8 
REMARK    3  A    between atoms: C_15  and  C_14 
ROOT
ATOM      1  C   UNL d   1     -50.340  13.047  22.968  0.00  0.00     0.343 A 
ATOM      2  N   UNL d   1     -49.655  13.293  22.597  0.00  0.00    -0.241 N 
ATOM      3  C   UNL d   1     -48.996  12.802  22.574  0.00  0.00     0.159 A 
ATOM      4  N   UNL d   1     -50.372  12.303  23.322  0.00  0.00    -0.224 N 
ATOM      5  C   UNL d   1     -49.028  12.058  22.929  0.00  0.00     0.099 A 
ATOM      6  C   UNL d   1     -49.719  11.797  23.309  0.00  0.00     0.271 A 
ATOM      7  O   UNL d   1     -51.001  13.542  22.989  0.00  0.00    -0.245 OA
ATOM      8  O   UNL d   1     -49.750  11.060  23.659  0.00  0.00    -0.266 OA
ATOM      9  C   UNL d   1     -49.623  14.038  22.242  0.00  0.00     0.105 C 
ATOM     10  C   UNL d   1     -51.064  12.054  23.698  0.00  0.00     0.107 C 
ENDROOT
BRANCH   3  11
ATOM     11  N   UNL d   1     -48.303  13.050  22.199  0.00  0.00    -0.190 NA
ATOM     12  C   UNL d   1     -47.584  13.019  22.598  0.00  0.00     0.281 C 
ATOM     13  O   UNL d   1     -47.554  12.740  23.374  0.00  0.00    -0.265 OA
BRANCH  12  14
ATOM     14  C   UNL d   1     -46.894  13.267  22.222  0.00  0.00     0.063 C 
BRANCH  14  15
ATOM     15  C   UNL d   1     -46.182  13.271  22.639  0.00  0.00     0.005 C 
ATOM     16  C   UNL d   1     -45.473  13.342  22.258  0.00  0.00     0.000 C 
ENDBRANCH  14  15
ENDBRANCH  12  14
ENDBRANCH   3  11
TORSDOF 3
ENDMDL
MODEL 3
REMARK VINA RESULT:      -6.5      1.363      1.729
REMARK  3 active torsions:
REMARK  status: ('A' for Active; 'I' for Inactive)
REMARK    1  A    between atoms: N_7  and  C_3 
REMARK       I    between atoms: C_8  and  N_7 
REMARK    2  A    between atoms: C_14  and  C_8 
REMARK    3  A    between atoms: C_15  and  C_14 
ROOT
ATOM      1  C   UNL d   1     -50.286  13.839  23.329  0.00  0.00     0.343 A 
ATOM      2  N   UNL d   1     -49.620  13.442  23.071  0.00  0.00    -0.241 N 
ATOM      3  C   UNL d   1     -49.010  13.851  22.704  0.00  0.00     0.159 A 
ATOM      4  N   UNL d   1     -50.346  14.655  23.222  0.00  0.00    -0.224 N 
ATOM      5  C   UNL d   1     -49.070  14.667  22.597  0.00  0.00     0.099 A 
ATOM      6  C   UNL d   1     -49.741  15.081  22.855  0.00  0.00     0.271 A 
ATOM      7  O   UNL d   1     -50.899  13.426  23.698  0.00  0.00    -0.245 OA
ATOM      8  O   UNL d   1     -49.800  15.889  22.749  0.00  0.00    -0.266 OA
ATOM      9  C   UNL d   1     -49.560  12.626  23.178  0.00  0.00     0.105 C 
ATOM     10  C   UNL d   1     -51.019  15.058  23.483  0.00  0.00     0.107 C 
ENDROOT
BRANCH   3  11
ATOM     11  N   UNL d   1     -48.336  13.449  22.442  0.00  0.00    -0.190 NA
ATOM     12  C   UNL d   1     -47.587  13.729  22.638  0.00  0.00     0.281 C 
ATOM     13  O   UNL d   1     -47.508  14.410  23.096  0.00  0.00    -0.265 OA
BRANCH  12  14
ATOM     14  C   UNL d   1     -46.918  13.328  22.377  0.00  0.00     0.063 C 
BRANCH  14  15
ATOM     15  C   UNL d   1     -46.172  13.569  22.634  0.00  0.00     0.005 C 
ATOM     16  C   UNL d   1     -45.497  13.264  22.310  0.00  0.00     0.000 C 
ENDBRANCH  14  15
ENDBRANCH  12  14
ENDBRANCH   3  11
TORSDOF 3
ENDMDL
MODEL 4
REMARK VINA RESULT:      -5.1      9.457     10.121
REMARK  3 active torsions:
REMARK  status: ('A' for Active; 'I' for Inactive)
REMARK    1  A    between atoms: N_7  and  C_3 
REMARK       I    between atoms: C_8  and  N_7 
REMARK    2  A    between atoms: C_14  and  C_8 
REMARK    3  A    between atoms: C_15  and  C_14 
ROOT
ATOM      1  C   UNL d   1     -39.509  15.331  17.859  0.00  0.00     0.343 A 
ATOM      2  N   UNL d   1     -39.086  15.127  18.527  0.00  0.00    -0.241 N 
ATOM      3  C   UNL d   1     -39.364  14.540  19.030  0.00  0.00     0.159 A 
ATOM      4  N   UNL d   1     -40.219  14.947  17.687  0.00  0.00    -0.224 N 
ATOM      5  C   UNL d   1     -40.074  14.156  18.859  0.00  0.00     0.099 A 
ATOM      6  C   UNL d   1     -40.512  14.355  18.183  0.00  0.00     0.271 A 
ATOM      7  O   UNL d   1     -39.228  15.922  17.354  0.00  0.00    -0.245 OA
ATOM      8  O   UNL d   1     -41.215  13.975  18.013  0.00  0.00    -0.266 OA
ATOM      9  C   UNL d   1     -38.376  15.511  18.698  0.00  0.00     0.105 C 
ATOM     10  C   UNL d   1     -40.648  15.154  17.012  0.00  0.00     0.107 C 
ENDROOT
BRANCH   3  11
ATOM     11  N   UNL d   1     -38.936  14.332  19.706  0.00  0.00    -0.190 NA
ATOM     12  C   UNL d   1     -39.317  14.269  20.432  0.00  0.00     0.281 C 
ATOM     13  O   UNL d   1     -40.128  14.413  20.487  0.00  0.00    -0.265 OA
BRANCH  12  14
ATOM     14  C   UNL d   1     -38.889  14.063  21.105  0.00  0.00     0.063 C 
BRANCH  14  15
ATOM     15  C   UNL d   1     -39.290  13.880  21.803  0.00  0.00     0.005 C 
ATOM     16  C   UNL d   1     -38.892  13.638  22.463  0.00  0.00     0.000 C 
ENDBRANCH  14  15
ENDBRANCH  12  14
ENDBRANCH   3  11
TORSDOF 3
ENDMDL
MODEL 5
REMARK VINA RESULT:      -4.7      9.003      9.725
REMARK  3 active torsions:
REMARK  status: ('A' for Active; 'I' for Inactive)
REMARK    1  A    between atoms: N_7  and  C_3 
REMARK       I    between atoms: C_8  and  N_7 
REMARK    2  A    between atoms: C_14  and  C_8 
REMARK    3  A    between atoms: C_15  and  C_14 
ROOT
ATOM      1  C   UNL d   1     -39.045  14.111  20.203  0.00  0.00     0.343 A 
ATOM      2  N   UNL d   1     -39.385  14.107  19.460  0.00  0.00    -0.241 N 
ATOM      3  C   UNL d   1     -40.094  14.499  19.327  0.00  0.00     0.159 A 
ATOM      4  N   UNL d   1     -39.414  14.512  20.823  0.00  0.00    -0.224 N 
ATOM      5  C   UNL d   1     -40.463  14.900  19.947  0.00  0.00     0.099 A 
ATOM      6  C   UNL d   1     -40.127  14.912  20.705  0.00  0.00     0.271 A 
ATOM      7  O   UNL d   1     -38.332  13.716  20.335  0.00  0.00    -0.245 OA
ATOM      8  O   UNL d   1     -40.493  15.308  21.319  0.00  0.00    -0.266 OA
ATOM      9  C   UNL d   1     -39.016  13.706  18.841  0.00  0.00     0.105 C 
ATOM     10  C   UNL d   1     -39.070  14.517  21.575  0.00  0.00     0.107 C 
ENDROOT
BRANCH   3  11
ATOM     11  N   UNL d   1     -40.439  14.495  18.576  0.00  0.00    -0.190 NA
ATOM     12  C   UNL d   1     -40.645  15.204  18.213  0.00  0.00     0.281 C 
ATOM     13  O   UNL d   1     -40.508  15.921  18.598  0.00  0.00    -0.265 OA
BRANCH  12  14
ATOM     14  C   UNL d   1     -40.989  15.198  17.464  0.00  0.00     0.063 C 
BRANCH  14  15
ATOM     15  C   UNL d   1     -41.224  15.909  17.118  0.00  0.00     0.005 C 
ATOM     16  C   UNL d   1     -41.654  15.920  16.434  0.00  0.00     0.000 C 
ENDBRANCH  14  15
ENDBRANCH  12  14
ENDBRANCH   3  11
TORSDOF 3
ENDMDL
