MODEL 1
REMARK VINA RESULT:      -0.6      0.000      0.000
REMARK  10 active torsions:
REMARK  status: ('A' for Active; 'I' for Inactive)
REMARK    1  A    between atoms: N_9  and  C_1 
REMARK    2  A    between atoms: C_4  and  S_21 
REMARK    3  A    between atoms: C_23  and  C_8 
REMARK       I    between atoms: C_19  and  N_9 
REMARK    4  A    between atoms: O_26  and  C_10 
REMARK    5  A    between atoms: C_11  and  C_12 
REMARK       I    between atoms: C_12  and  N_20 
REMARK    6  A    between atoms: O_27  and  C_13 
REMARK    7  A    between atoms: O_28  and  C_14 
REMARK    8  A    between atoms: C_25  and  C_19 
REMARK    9  A    between atoms: N_20  and  C_23 
REMARK   10  A    between atoms: S_21  and  C_25 
ROOT
ATOM      1  O   UNL d   1      32.994  20.645 -22.302  0.00  0.00    -0.262 OA
ATOM      2  C   UNL d   1      32.680  21.396 -22.466  0.00  0.00     0.236 A 
ATOM      3  N   UNL d   1      32.479  21.414 -23.259  0.00  0.00    -0.114 NA
ATOM      4  N   UNL d   1      32.664  20.681 -23.587  0.00  0.00    -0.119 NA
ATOM      5  C   UNL d   1      32.981  20.208 -22.998  0.00  0.00     0.224 A 
ENDROOT
BRANCH   5   6
ATOM      6  C   UNL d   1      33.241  19.431 -23.089  0.00  0.00     0.149 C 
BRANCH   6   7
ATOM      7  N   UNL d   1      32.764  18.872 -23.457  0.00  0.00    -0.203 NA
ATOM      8  C   UNL d   1      32.620  18.145 -23.088  0.00  0.00     0.279 C 
ATOM      9  O   UNL d   1      32.950  17.977 -22.355  0.00  0.00    -0.265 OA
BRANCH   8  10
ATOM     10  C   UNL d   1      32.139  17.586 -23.463  0.00  0.00     0.062 A 
ATOM     11  C   UNL d   1      31.315  17.697 -23.480  0.00  0.00     0.031 A 
ATOM     12  C   UNL d   1      30.851  17.140 -23.852  0.00  0.00     0.118 A 
ATOM     13  C   UNL d   1      31.174  16.484 -24.204  0.00  0.00     0.138 A 
ATOM     14  C   UNL d   1      32.004  16.381 -24.181  0.00  0.00     0.118 A 
ATOM     15  C   UNL d   1      32.471  16.942 -23.807  0.00  0.00     0.031 A 
BRANCH  12  16
ATOM     16  O   UNL d   1      30.025  17.240 -23.876  0.00  0.00    -0.326 OA
ATOM     17  C   UNL d   1      29.712  18.005 -23.953  0.00  0.00     0.181 C 
ENDBRANCH  12  16
BRANCH  13  18
ATOM     18  O   UNL d   1      30.710  15.923 -24.578  0.00  0.00    -0.324 OA
ATOM     19  C   UNL d   1      30.102  16.161 -25.096  0.00  0.00     0.182 C 
ENDBRANCH  13  18
BRANCH  14  20
ATOM     20  O   UNL d   1      32.343  15.712 -24.539  0.00  0.00    -0.326 OA
ATOM     21  C   UNL d   1      33.153  15.645 -24.621  0.00  0.00     0.181 C 
ENDBRANCH  14  20
ENDBRANCH   8  10
ENDBRANCH   6   7
ENDBRANCH   5   6
BRANCH   2  22
ATOM     22  S   UNL d   1      32.591  22.010 -21.922  0.00  0.00    -0.036 SA
BRANCH  22  23
ATOM     23  C   UNL d   1      33.241  22.307 -21.528  0.00  0.00     0.101 C 
BRANCH  23  24
ATOM     24  C   UNL d   1      33.160  22.610 -20.749  0.00  0.00     0.288 C 
ATOM     25  N   UNL d   1      33.008  22.094 -20.123  0.00  0.00    -0.182 NA
ATOM     26  O   UNL d   1      33.232  23.413 -20.613  0.00  0.00    -0.265 OA
BRANCH  25  27
ATOM     27  C   UNL d   1      32.926  22.385 -19.350  0.00  0.00     0.197 A 
ATOM     28  N   UNL d   1      33.241  22.029 -18.668  0.00  0.00    -0.221 NA
ATOM     29  C   UNL d   1      33.031  22.497 -18.020  0.00  0.00     0.090 A 
ATOM     30  C   UNL d   1      33.182  22.427 -17.220  0.00  0.00     0.020 A 
ATOM     31  C   UNL d   1      32.585  23.145 -18.305  0.00  0.00     0.050 A 
ATOM     32  C   UNL d   1      32.897  22.991 -16.683  0.00  0.00     0.002 A 
ATOM     33  C   UNL d   1      32.454  23.632 -16.971  0.00  0.00     0.001 A 
ATOM     34  C   UNL d   1      32.303  23.702 -17.772  0.00  0.00     0.008 A 
ATOM     35  S   UNL d   1      32.521  23.074 -19.128  0.00  0.00    -0.047 SA
ENDBRANCH  25  27
ENDBRANCH  23  24
ENDBRANCH  22  23
ENDBRANCH   2  22
TORSDOF 10
ENDMDL
MODEL 2
REMARK VINA RESULT:       1.1      2.191      6.957
REMARK  10 active torsions:
REMARK  status: ('A' for Active; 'I' for Inactive)
REMARK    1  A    between atoms: N_9  and  C_1 
REMARK    2  A    between atoms: C_4  and  S_21 
REMARK    3  A    between atoms: C_23  and  C_8 
REMARK       I    between atoms: C_19  and  N_9 
REMARK    4  A    between atoms: O_26  and  C_10 
REMARK    5  A    between atoms: C_11  and  C_12 
REMARK       I    between atoms: C_12  and  N_20 
REMARK    6  A    between atoms: O_27  and  C_13 
REMARK    7  A    between atoms: O_28  and  C_14 
REMARK    8  A    between atoms: C_25  and  C_19 
REMARK    9  A    between atoms: N_20  and  C_23 
REMARK   10  A    between atoms: S_21  and  C_25 
ROOT
ATOM      1  O   UNL d   1      33.065  19.512 -23.791  0.00  0.00    -0.262 OA
ATOM      2  C   UNL d   1      33.051  18.880 -24.330  0.00  0.00     0.236 A 
ATOM      3  N   UNL d   1      33.139  19.192 -25.082  0.00  0.00    -0.114 NA
ATOM      4  N   UNL d   1      33.207  20.010 -25.013  0.00  0.00    -0.119 NA
ATOM      5  C   UNL d   1      33.161  20.207 -24.218  0.00  0.00     0.224 A 
ENDROOT
BRANCH   5   6
ATOM      6  C   UNL d   1      33.205  20.968 -23.905  0.00  0.00     0.149 C 
BRANCH   6   7
ATOM      7  N   UNL d   1      33.208  21.086 -23.092  0.00  0.00    -0.203 NA
ATOM      8  C   UNL d   1      32.947  21.805 -22.778  0.00  0.00     0.279 C 
ATOM      9  O   UNL d   1      32.684  22.405 -23.273  0.00  0.00    -0.265 OA
BRANCH   8  10
ATOM     10  C   UNL d   1      32.953  21.918 -21.958  0.00  0.00     0.062 A 
ATOM     11  C   UNL d   1      32.973  21.258 -21.453  0.00  0.00     0.031 A 
ATOM     12  C   UNL d   1      32.978  21.381 -20.646  0.00  0.00     0.118 A 
ATOM     13  C   UNL d   1      32.964  22.128 -20.330  0.00  0.00     0.138 A 
ATOM     14  C   UNL d   1      32.944  22.786 -20.847  0.00  0.00     0.118 A 
ATOM     15  C   UNL d   1      32.939  22.662 -21.659  0.00  0.00     0.031 A 
BRANCH  12  16
ATOM     16  O   UNL d   1      32.998  20.730 -20.130  0.00  0.00    -0.326 OA
ATOM     17  C   UNL d   1      33.233  19.988 -20.421  0.00  0.00     0.181 C 
ENDBRANCH  12  16
BRANCH  13  18
ATOM     18  O   UNL d   1      32.969  22.254 -19.522  0.00  0.00    -0.324 OA
ATOM     19  C   UNL d   1      33.178  21.636 -19.003  0.00  0.00     0.182 C 
ENDBRANCH  13  18
BRANCH  14  20
ATOM     20  O   UNL d   1      32.930  23.554 -20.532  0.00  0.00    -0.326 OA
ATOM     21  C   UNL d   1      32.587  23.702 -19.805  0.00  0.00     0.181 C 
ENDBRANCH  14  20
ENDBRANCH   8  10
ENDBRANCH   6   7
ENDBRANCH   5   6
BRANCH   2  22
ATOM     22  S   UNL d   1      32.963  18.083 -24.135  0.00  0.00    -0.036 SA
BRANCH  22  23
ATOM     23  C   UNL d   1      32.578  17.575 -24.644  0.00  0.00     0.101 C 
BRANCH  23  24
ATOM     24  C   UNL d   1      31.871  17.192 -24.404  0.00  0.00     0.288 C 
ATOM     25  N   UNL d   1      31.144  17.454 -24.694  0.00  0.00    -0.182 NA
ATOM     26  O   UNL d   1      31.904  16.561 -23.884  0.00  0.00    -0.265 OA
BRANCH  25  27
ATOM     27  C   UNL d   1      30.440  17.081 -24.461  0.00  0.00     0.197 A 
ATOM     28  N   UNL d   1      30.357  16.269 -24.307  0.00  0.00    -0.221 NA
ATOM     29  C   UNL d   1      29.570  16.133 -24.093  0.00  0.00     0.090 A 
ATOM     30  C   UNL d   1      29.167  15.454 -23.884  0.00  0.00     0.020 A 
ATOM     31  C   UNL d   1      29.167  16.865 -24.116  0.00  0.00     0.050 A 
ATOM     32  C   UNL d   1      28.361  15.479 -23.692  0.00  0.00     0.002 A 
ATOM     33  C   UNL d   1      27.966  16.209 -23.716  0.00  0.00     0.001 A 
ATOM     34  C   UNL d   1      28.369  16.889 -23.926  0.00  0.00     0.008 A 
ATOM     35  S   UNL d   1      29.707  17.451 -24.344  0.00  0.00    -0.047 SA
ENDBRANCH  25  27
ENDBRANCH  23  24
ENDBRANCH  22  23
ENDBRANCH   2  22
TORSDOF 10
ENDMDL
