MODEL 1
REMARK VINA RESULT:      -9.0      0.000      0.000
REMARK  1 active torsions:
REMARK  status: ('A' for Active; 'I' for Inactive)
REMARK    1  A    between atoms: C_6  and  C_1 
ROOT
ATOM      1  C   UNL d   1      52.380  33.724  53.524  0.00  0.00     0.111 A 
ATOM      2  N   UNL d   1      52.724  34.252  54.051  0.00  0.00    -0.239 NA
ATOM      3  S   UNL d   1      52.816  33.032  53.528  0.00  0.00    -0.066 SA
ATOM      4  C   UNL d   1      53.386  33.881  54.389  0.00  0.00     0.088 A 
ATOM      5  C   UNL d   1      53.446  33.126  54.068  0.00  0.00     0.049 A 
ATOM      6  C   UNL d   1      53.938  34.134  54.945  0.00  0.00     0.020 A 
ATOM      7  C   UNL d   1      54.056  32.624  54.302  0.00  0.00     0.008 A 
ATOM      8  C   UNL d   1      54.609  32.877  54.857  0.00  0.00     0.001 A 
ATOM      9  C   UNL d   1      54.549  33.632  55.179  0.00  0.00     0.002 A 
ENDROOT
BRANCH   1  10
ATOM     10  C   UNL d   1      51.701  33.902  53.079  0.00  0.00     0.024 A 
ATOM     11  C   UNL d   1      51.770  34.143  52.292  0.00  0.00     0.004 A 
ATOM     12  C   UNL d   1      51.090  34.318  51.855  0.00  0.00     0.021 A 
ATOM     13  C   UNL d   1      50.338  34.254  52.203  0.00  0.00     0.103 A 
ATOM     14  C   UNL d   1      50.277  34.013  52.991  0.00  0.00     0.021 A 
ATOM     15  N   UNL d   1      49.659  34.431  51.762  0.00  0.00    -0.148 N 
ATOM     16  C   UNL d   1      50.957  33.837  53.429  0.00  0.00     0.004 A 
ENDBRANCH   1  10
TORSDOF 1
ENDMDL
MODEL 2
REMARK VINA RESULT:      -9.0      1.849      2.914
REMARK  1 active torsions:
REMARK  status: ('A' for Active; 'I' for Inactive)
REMARK    1  A    between atoms: C_6  and  C_1 
ROOT
ATOM      1  C   UNL d   1      53.180  32.732  53.741  0.00  0.00     0.111 A 
ATOM      2  N   UNL d   1      52.627  32.346  53.271  0.00  0.00    -0.239 NA
ATOM      3  S   UNL d   1      53.741  32.188  53.982  0.00  0.00    -0.066 SA
ATOM      4  C   UNL d   1      52.848  31.547  53.219  0.00  0.00     0.088 A 
ATOM      5  C   UNL d   1      53.538  31.446  53.657  0.00  0.00     0.049 A 
ATOM      6  C   UNL d   1      52.512  30.904  52.831  0.00  0.00     0.020 A 
ATOM      7  C   UNL d   1      53.890  30.703  53.707  0.00  0.00     0.008 A 
ATOM      8  C   UNL d   1      53.554  30.059  53.319  0.00  0.00     0.001 A 
ATOM      9  C   UNL d   1      52.865  30.161  52.880  0.00  0.00     0.002 A 
ENDROOT
BRANCH   1  10
ATOM     10  C   UNL d   1      53.140  33.543  53.918  0.00  0.00     0.024 A 
ATOM     11  C   UNL d   1      52.878  34.082  53.349  0.00  0.00     0.004 A 
ATOM     12  C   UNL d   1      52.841  34.887  53.534  0.00  0.00     0.021 A 
ATOM     13  C   UNL d   1      53.065  35.157  54.287  0.00  0.00     0.103 A 
ATOM     14  C   UNL d   1      53.326  34.613  54.851  0.00  0.00     0.021 A 
ATOM     15  N   UNL d   1      53.027  35.966  54.467  0.00  0.00    -0.148 N 
ATOM     16  C   UNL d   1      53.363  33.806  54.667  0.00  0.00     0.004 A 
ENDBRANCH   1  10
TORSDOF 1
ENDMDL
MODEL 3
REMARK VINA RESULT:      -8.7      1.967      3.156
REMARK  1 active torsions:
REMARK  status: ('A' for Active; 'I' for Inactive)
REMARK    1  A    between atoms: C_6  and  C_1 
ROOT
ATOM      1  C   UNL d   1      53.068  32.707  53.668  0.00  0.00     0.111 A 
ATOM      2  N   UNL d   1      53.355  33.048  54.358  0.00  0.00    -0.239 NA
ATOM      3  S   UNL d   1      52.771  33.299  53.189  0.00  0.00    -0.066 SA
ATOM      4  C   UNL d   1      53.234  33.868  54.307  0.00  0.00     0.088 A 
ATOM      5  C   UNL d   1      52.872  34.027  53.585  0.00  0.00     0.049 A 
ATOM      6  C   UNL d   1      53.405  34.486  54.823  0.00  0.00     0.020 A 
ATOM      7  C   UNL d   1      52.683  34.802  53.379  0.00  0.00     0.008 A 
ATOM      8  C   UNL d   1      52.855  35.420  53.895  0.00  0.00     0.001 A 
ATOM      9  C   UNL d   1      53.216  35.261  54.618  0.00  0.00     0.002 A 
ENDROOT
BRANCH   1  10
ATOM     10  C   UNL d   1      53.095  31.889  53.519  0.00  0.00     0.024 A 
ATOM     11  C   UNL d   1      53.681  31.421  53.865  0.00  0.00     0.004 A 
ATOM     12  C   UNL d   1      53.701  30.608  53.712  0.00  0.00     0.021 A 
ATOM     13  C   UNL d   1      53.135  30.260  53.214  0.00  0.00     0.103 A 
ATOM     14  C   UNL d   1      52.551  30.735  52.871  0.00  0.00     0.021 A 
ATOM     15  N   UNL d   1      53.158  29.445  53.063  0.00  0.00    -0.148 N 
ATOM     16  C   UNL d   1      52.531  31.548  53.023  0.00  0.00     0.004 A 
ENDBRANCH   1  10
TORSDOF 1
ENDMDL
MODEL 4
REMARK VINA RESULT:      -8.2      0.953      3.810
REMARK  1 active torsions:
REMARK  status: ('A' for Active; 'I' for Inactive)
REMARK    1  A    between atoms: C_6  and  C_1 
ROOT
ATOM      1  C   UNL d   1      52.614  33.876  53.615  0.00  0.00     0.111 A 
ATOM      2  N   UNL d   1      51.857  33.703  53.883  0.00  0.00    -0.239 NA
ATOM      3  S   UNL d   1      52.563  34.137  52.842  0.00  0.00    -0.066 SA
ATOM      4  C   UNL d   1      51.325  33.859  53.264  0.00  0.00     0.088 A 
ATOM      5  C   UNL d   1      51.758  34.128  52.618  0.00  0.00     0.049 A 
ATOM      6  C   UNL d   1      50.506  33.792  53.208  0.00  0.00     0.020 A 
ATOM      7  C   UNL d   1      51.374  34.329  51.918  0.00  0.00     0.008 A 
ATOM      8  C   UNL d   1      50.555  34.261  51.861  0.00  0.00     0.001 A 
ATOM      9  C   UNL d   1      50.122  33.992  52.507  0.00  0.00     0.002 A 
ENDROOT
BRANCH   1  10
ATOM     10  C   UNL d   1      53.295  33.787  54.084  0.00  0.00     0.024 A 
ATOM     11  C   UNL d   1      53.769  33.115  54.005  0.00  0.00     0.004 A 
ATOM     12  C   UNL d   1      54.445  33.033  54.475  0.00  0.00     0.021 A 
ATOM     13  C   UNL d   1      54.649  33.622  55.025  0.00  0.00     0.103 A 
ATOM     14  C   UNL d   1      54.169  34.291  55.098  0.00  0.00     0.021 A 
ATOM     15  N   UNL d   1      55.328  33.536  55.494  0.00  0.00    -0.148 N 
ATOM     16  C   UNL d   1      53.493  34.374  54.628  0.00  0.00     0.004 A 
ENDBRANCH   1  10
TORSDOF 1
ENDMDL
MODEL 5
REMARK VINA RESULT:      -6.1      1.468      4.215
REMARK  1 active torsions:
REMARK  status: ('A' for Active; 'I' for Inactive)
REMARK    1  A    between atoms: C_6  and  C_1 
ROOT
ATOM      1  C   UNL d   1      50.696  34.305  52.629  0.00  0.00     0.111 A 
ATOM      2  N   UNL d   1      50.112  34.717  53.035  0.00  0.00    -0.239 NA
ATOM      3  S   UNL d   1      50.431  34.160  51.869  0.00  0.00    -0.066 SA
ATOM      4  C   UNL d   1      49.473  34.831  52.517  0.00  0.00     0.088 A 
ATOM      5  C   UNL d   1      49.666  34.488  51.795  0.00  0.00     0.049 A 
ATOM      6  C   UNL d   1      48.743  35.201  52.612  0.00  0.00     0.020 A 
ATOM      7  C   UNL d   1      49.132  34.514  51.168  0.00  0.00     0.008 A 
ATOM      8  C   UNL d   1      48.403  34.885  51.262  0.00  0.00     0.001 A 
ATOM      9  C   UNL d   1      48.209  35.228  51.985  0.00  0.00     0.002 A 
ENDROOT
BRANCH   1  10
ATOM     10  C   UNL d   1      51.422  34.089  52.971  0.00  0.00     0.024 A 
ATOM     11  C   UNL d   1      52.046  34.630  53.000  0.00  0.00     0.004 A 
ATOM     12  C   UNL d   1      52.766  34.408  53.341  0.00  0.00     0.021 A 
ATOM     13  C   UNL d   1      52.865  33.645  53.654  0.00  0.00     0.103 A 
ATOM     14  C   UNL d   1      52.237  33.109  53.622  0.00  0.00     0.021 A 
ATOM     15  N   UNL d   1      53.589  33.427  53.996  0.00  0.00    -0.148 N 
ATOM     16  C   UNL d   1      51.516  33.331  53.280  0.00  0.00     0.004 A 
ENDBRANCH   1  10
TORSDOF 1
ENDMDL
