MODEL 1
REMARK VINA RESULT:       4.8      0.000      0.000
REMARK  1 active torsions:
REMARK  status: ('A' for Active; 'I' for Inactive)
REMARK       I    between atoms: N_2  and  C_1 
REMARK    1  A    between atoms: C_5  and  N_2 
ROOT
ATOM      1  C   UNL d   1     -51.512  24.275  33.321  0.00  0.00     0.100 A 
ATOM      2  C   UNL d   1     -50.415  25.508  33.318  0.00  0.00     0.000 A 
ATOM      3  C   UNL d   1     -51.771  25.061  33.333  0.00  0.00     0.020 A 
ATOM      4  C   UNL d   1     -50.705  24.106  33.308  0.00  0.00     0.020 A 
ATOM      5  C   UNL d   1     -51.222  25.676  33.331  0.00  0.00     0.002 A 
ATOM      6  C   UNL d   1     -50.156  24.722  33.306  0.00  0.00     0.002 A 
ATOM      7  C   UNL d   1     -49.862  26.124  33.316  0.00  0.00     0.000 C 
ENDROOT
BRANCH   1   8
ATOM      8  N   UNL d   1     -52.060  23.656  33.323  0.00  0.00    -0.056 NA
ATOM      9  C   UNL d   1     -52.865  23.817  33.334  0.00  0.00     0.787 C 
ATOM     10  N   UNL d   1     -53.422  23.199  33.336  0.00  0.00     0.064 N 
ATOM     11  N   UNL d   1     -53.124  24.603  33.343  0.00  0.00     0.064 N 
ENDBRANCH   1   8
TORSDOF 1
ENDMDL
MODEL 2
REMARK VINA RESULT:       5.5      0.670      1.025
REMARK  1 active torsions:
REMARK  status: ('A' for Active; 'I' for Inactive)
REMARK       I    between atoms: N_2  and  C_1 
REMARK    1  A    between atoms: C_5  and  N_2 
ROOT
ATOM      1  C   UNL d   1     -51.809  25.266  33.311  0.00  0.00     0.100 A 
ATOM      2  C   UNL d   1     -50.568  26.353  33.310  0.00  0.00     0.000 A 
ATOM      3  C   UNL d   1     -51.969  26.077  33.307  0.00  0.00     0.020 A 
ATOM      4  C   UNL d   1     -51.029  24.998  33.314  0.00  0.00     0.020 A 
ATOM      5  C   UNL d   1     -51.348  26.620  33.306  0.00  0.00     0.002 A 
ATOM      6  C   UNL d   1     -50.408  25.541  33.314  0.00  0.00     0.002 A 
ATOM      7  C   UNL d   1     -49.943  26.896  33.310  0.00  0.00     0.000 C 
ENDROOT
BRANCH   1   8
ATOM      8  N   UNL d   1     -52.430  24.719  33.311  0.00  0.00    -0.056 NA
ATOM      9  C   UNL d   1     -52.269  23.914  33.310  0.00  0.00     0.787 C 
ATOM     10  N   UNL d   1     -52.888  23.358  33.311  0.00  0.00     0.064 N 
ATOM     11  N   UNL d   1     -51.484  23.654  33.308  0.00  0.00     0.064 N 
ENDBRANCH   1   8
TORSDOF 1
ENDMDL
