MODEL 1
REMARK VINA RESULT:      -4.8      0.000      0.000
REMARK  6 active torsions:
REMARK  status: ('A' for Active; 'I' for Inactive)
REMARK       I    between atoms: N_2  and  C_1 
REMARK       I    between atoms: N_7  and  C_1 
REMARK    1  A    between atoms: C_4  and  N_2 
REMARK       I    between atoms: C_3  and  N_8 
REMARK    2  A    between atoms: C_6  and  C_3 
REMARK    3  A    between atoms: N_5  and  C_12 
REMARK    4  A    between atoms: C_12  and  C_6 
REMARK    5  A    between atoms: N_8  and  N_7 
REMARK    6  A    between atoms: O_14  and  C_10 
ROOT
ATOM      1  C   UNL d   1     -41.731-122.759 -52.364  0.00  0.00     0.387 C 
ATOM      2  N   UNL d   1     -41.927-122.391 -53.079  0.00  0.00    -0.188 NA
ATOM      3  N   UNL d   1     -41.956-122.422 -51.659  0.00  0.00    -0.085 NA
ATOM      4  O   UNL d   1     -41.306-123.469 -52.373  0.00  0.00    -0.241 OA
ENDROOT
BRANCH   3   5
ATOM      5  N   UNL d   1     -41.760-122.790 -50.944  0.00  0.00    -0.101 NA
ATOM      6  C   UNL d   1     -42.161-122.590 -50.251  0.00  0.00     0.298 C 
ATOM      7  O   UNL d   1     -42.759-122.021 -50.275  0.00  0.00    -0.264 OA
BRANCH   6   8
ATOM      8  C   UNL d   1     -41.962-122.958 -49.544  0.00  0.00     0.083 C 
BRANCH   8   9
ATOM      9  C   UNL d   1     -42.357-122.753 -48.854  0.00  0.00     0.085 C 
BRANCH   9  10
ATOM     10  N   UNL d   1     -42.151-123.106 -48.136  0.00  0.00    -0.299 N 
ATOM     11  C   UNL d   1     -42.737-123.366 -47.630  0.00  0.00     0.107 A 
ATOM     12  C   UNL d   1     -42.531-123.718 -46.913  0.00  0.00     0.142 A 
ATOM     13  O   UNL d   1     -41.733-123.805 -46.712  0.00  0.00    -0.300 OA
ATOM     14  C   UNL d   1     -41.143-123.542 -47.225  0.00  0.00     0.142 A 
ATOM     15  C   UNL d   1     -41.354-123.193 -47.936  0.00  0.00     0.107 A 
ENDBRANCH   9  10
ENDBRANCH   8   9
ENDBRANCH   6   8
ENDBRANCH   3   5
BRANCH   2  16
ATOM     16  C   UNL d   1     -41.700-122.731 -53.796  0.00  0.00     0.108 A 
ATOM     17  C   UNL d   1     -41.821-122.330 -54.500  0.00  0.00     0.112 A 
ATOM     18  C   UNL d   1     -41.599-122.661 -55.210  0.00  0.00     0.026 A 
ATOM     19  C   UNL d   1     -41.247-123.409 -55.225  0.00  0.00     0.002 A 
ATOM     20  C   UNL d   1     -41.123-123.817 -54.518  0.00  0.00     0.002 A 
ATOM     21  C   UNL d   1     -41.350-123.477 -53.802  0.00  0.00     0.021 A 
BRANCH  17  22
ATOM     22  O   UNL d   1     -42.172-121.585 -54.485  0.00  0.00    -0.327 OA
ATOM     23  C   UNL d   1     -42.429-121.242 -55.193  0.00  0.00     0.181 C 
ENDBRANCH  17  22
ENDBRANCH   2  16
TORSDOF 6
ENDMDL
MODEL 2
REMARK VINA RESULT:      -3.9      1.083      5.950
REMARK  6 active torsions:
REMARK  status: ('A' for Active; 'I' for Inactive)
REMARK       I    between atoms: N_2  and  C_1 
REMARK       I    between atoms: N_7  and  C_1 
REMARK    1  A    between atoms: C_4  and  N_2 
REMARK       I    between atoms: C_3  and  N_8 
REMARK    2  A    between atoms: C_6  and  C_3 
REMARK    3  A    between atoms: N_5  and  C_12 
REMARK    4  A    between atoms: C_12  and  C_6 
REMARK    5  A    between atoms: N_8  and  N_7 
REMARK    6  A    between atoms: O_14  and  C_10 
ROOT
ATOM      1  C   UNL d   1     -41.966-123.047 -50.418  0.00  0.00     0.387 C 
ATOM      2  N   UNL d   1     -41.839-122.878 -49.617  0.00  0.00    -0.188 NA
ATOM      3  N   UNL d   1     -41.470-122.738 -50.982  0.00  0.00    -0.085 NA
ATOM      4  O   UNL d   1     -42.600-123.532 -50.637  0.00  0.00    -0.241 OA
ENDROOT
BRANCH   3   5
ATOM      5  N   UNL d   1     -41.597-122.908 -51.782  0.00  0.00    -0.101 NA
ATOM      6  C   UNL d   1     -41.424-122.343 -52.359  0.00  0.00     0.298 C 
ATOM      7  O   UNL d   1     -41.123-121.608 -52.133  0.00  0.00    -0.264 OA
BRANCH   6   8
ATOM      8  C   UNL d   1     -41.552-122.517 -53.152  0.00  0.00     0.083 C 
BRANCH   8   9
ATOM      9  C   UNL d   1     -41.427-121.937 -53.719  0.00  0.00     0.085 C 
BRANCH   9  10
ATOM     10  N   UNL d   1     -41.820-121.975 -54.445  0.00  0.00    -0.299 N 
ATOM     11  C   UNL d   1     -41.404-122.166 -55.122  0.00  0.00     0.107 A 
ATOM     12  C   UNL d   1     -41.795-122.204 -55.846  0.00  0.00     0.142 A 
ATOM     13  O   UNL d   1     -42.607-122.047 -55.883  0.00  0.00    -0.300 OA
ATOM     14  C   UNL d   1     -43.025-121.854 -55.199  0.00  0.00     0.142 A 
ATOM     15  C   UNL d   1     -42.631-121.818 -54.482  0.00  0.00     0.107 A 
ENDBRANCH   9  10
ENDBRANCH   8   9
ENDBRANCH   6   8
ENDBRANCH   3   5
BRANCH   2  16
ATOM     16  C   UNL d   1     -42.342-123.191 -49.043  0.00  0.00     0.108 A 
ATOM     17  C   UNL d   1     -42.078-123.291 -48.274  0.00  0.00     0.112 A 
ATOM     18  C   UNL d   1     -42.570-123.600 -47.702  0.00  0.00     0.026 A 
ATOM     19  C   UNL d   1     -43.345-123.815 -47.897  0.00  0.00     0.002 A 
ATOM     20  C   UNL d   1     -43.615-123.716 -48.671  0.00  0.00     0.002 A 
ATOM     21  C   UNL d   1     -43.113-123.403 -49.245  0.00  0.00     0.021 A 
BRANCH  17  22
ATOM     22  O   UNL d   1     -41.307-123.076 -48.081  0.00  0.00    -0.327 OA
ATOM     23  C   UNL d   1     -41.125-122.873 -47.299  0.00  0.00     0.181 C 
ENDBRANCH  17  22
ENDBRANCH   2  16
TORSDOF 6
ENDMDL
