MODEL 1
REMARK VINA RESULT:       1.1      0.000      0.000
REMARK  6 active torsions:
REMARK  status: ('A' for Active; 'I' for Inactive)
REMARK    1  A    between atoms: S_5  and  C_2 
REMARK    2  A    between atoms: C_16  and  S_5 
REMARK    3  A    between atoms: N_11  and  C_8 
REMARK    4  A    between atoms: C_18  and  N_11 
REMARK    5  A    between atoms: C_19  and  N_12 
REMARK    6  A    between atoms: C_27  and  C_19 
ROOT
ATOM      1  C   UNL d   1      58.173   0.010  31.827  0.00  0.00     0.197 A 
ATOM      2  C   UNL d   1      57.800   0.043  32.561  0.00  0.00     0.227 A 
ATOM      3  N   UNL d   1      58.934   0.310  31.914  0.00  0.00    -0.192 N 
ATOM      4  N   UNL d   1      57.913  -0.256  31.086  0.00  0.00    -0.206 NA
ATOM      5  N   UNL d   1      58.339   0.367  33.109  0.00  0.00    -0.115 NA
ATOM      6  N   UNL d   1      59.043   0.531  32.701  0.00  0.00    -0.058 NA
ATOM      7  C   UNL d   1      58.414  -0.224  30.428  0.00  0.00     0.166 A 
ATOM      8  C   UNL d   1      59.179   0.078  30.522  0.00  0.00     0.054 A 
ATOM      9  C   UNL d   1      59.441   0.343  31.258  0.00  0.00     0.089 A 
ATOM     10  C   UNL d   1      60.204   0.644  31.349  0.00  0.00     0.020 A 
ATOM     11  C   UNL d   1      59.686   0.113  29.870  0.00  0.00     0.016 A 
ATOM     12  C   UNL d   1      60.449   0.412  29.957  0.00  0.00     0.058 A 
ATOM     13  C   UNL d   1      60.708   0.679  30.698  0.00  0.00     0.013 A 
ATOM     14 CL   UNL d   1      60.952   0.447  29.307  0.00  0.00    -0.082 Cl
ENDROOT
BRANCH   7  15
ATOM     15  N   UNL d   1      58.155  -0.489  29.691  0.00  0.00    -0.227 NA
BRANCH  15  16
ATOM     16  C   UNL d   1      58.318  -1.259  29.448  0.00  0.00     0.086 A 
ATOM     17  C   UNL d   1      58.612  -1.401  28.690  0.00  0.00     0.038 A 
ATOM     18  C   UNL d   1      58.771  -2.170  28.455  0.00  0.00     0.082 A 
ATOM     19  N   UNL d   1      58.639  -2.806  28.973  0.00  0.00    -0.302 N 
ATOM     20  C   UNL d   1      58.345  -2.657  29.729  0.00  0.00     0.082 A 
ATOM     21  C   UNL d   1      58.186  -1.887  29.964  0.00  0.00     0.038 A 
BRANCH  19  22
ATOM     22  C   UNL d   1      58.800  -3.576  28.735  0.00  0.00     0.080 C 
BRANCH  22  23
ATOM     23  C   UNL d   1      59.577  -3.852  28.727  0.00  0.00     0.018 A 
ATOM     24  C   UNL d   1      60.207  -3.323  28.679  0.00  0.00     0.002 A 
ATOM     25  C   UNL d   1      60.986  -3.595  28.670  0.00  0.00     0.000 A 
ATOM     26  C   UNL d   1      61.133  -4.405  28.709  0.00  0.00     0.000 A 
ATOM     27  C   UNL d   1      60.501  -4.942  28.757  0.00  0.00     0.000 A 
ATOM     28  C   UNL d   1      59.725  -4.662  28.766  0.00  0.00     0.002 A 
ENDBRANCH  22  23
ENDBRANCH  19  22
ENDBRANCH  15  16
ENDBRANCH   7  15
BRANCH   2  29
ATOM     29  S   UNL d   1      57.027  -0.199  32.737  0.00  0.00     0.231 S 
ATOM     30  O   UNL d   1      57.238  -0.992  32.699  0.00  0.00    -0.215 OA
ATOM     31  O   UNL d   1      56.818   0.601  32.775  0.00  0.00    -0.215 OA
BRANCH  29  32
ATOM     32  C   UNL d   1      56.244  -0.385  32.915  0.00  0.00     0.090 A 
ATOM     33  C   UNL d   1      56.006  -1.168  32.934  0.00  0.00     0.011 A 
ATOM     34  C   UNL d   1      55.223  -1.355  33.113  0.00  0.00     0.001 A 
ATOM     35  C   UNL d   1      54.686  -0.748  33.270  0.00  0.00     0.000 A 
ATOM     36  C   UNL d   1      54.928   0.044  33.251  0.00  0.00     0.001 A 
ATOM     37  C   UNL d   1      55.709   0.219  33.073  0.00  0.00     0.011 A 
ENDBRANCH  29  32
ENDBRANCH   2  29
TORSDOF 6
ENDMDL
MODEL 2
REMARK VINA RESULT:       4.1      2.069      5.126
REMARK  6 active torsions:
REMARK  status: ('A' for Active; 'I' for Inactive)
REMARK    1  A    between atoms: S_5  and  C_2 
REMARK    2  A    between atoms: C_16  and  S_5 
REMARK    3  A    between atoms: N_11  and  C_8 
REMARK    4  A    between atoms: C_18  and  N_11 
REMARK    5  A    between atoms: C_19  and  N_12 
REMARK    6  A    between atoms: C_27  and  C_19 
ROOT
ATOM      1  C   UNL d   1      59.389  -2.909  28.792  0.00  0.00     0.197 A 
ATOM      2  C   UNL d   1      59.451  -3.722  28.677  0.00  0.00     0.227 A 
ATOM      3  N   UNL d   1      60.151  -2.597  28.819  0.00  0.00    -0.192 N 
ATOM      4  N   UNL d   1      58.733  -2.410  28.876  0.00  0.00    -0.206 NA
ATOM      5  N   UNL d   1      60.262  -3.916  28.633  0.00  0.00    -0.115 NA
ATOM      6  N   UNL d   1      60.692  -3.211  28.721  0.00  0.00    -0.058 NA
ATOM      7  C   UNL d   1      58.833  -1.597  28.987  0.00  0.00     0.166 A 
ATOM      8  C   UNL d   1      59.601  -1.289  29.013  0.00  0.00     0.054 A 
ATOM      9  C   UNL d   1      60.258  -1.782  28.930  0.00  0.00     0.089 A 
ATOM     10  C   UNL d   1      61.023  -1.472  28.956  0.00  0.00     0.020 A 
ATOM     11  C   UNL d   1      59.711  -0.477  29.124  0.00  0.00     0.016 A 
ATOM     12  C   UNL d   1      60.473  -0.164  29.151  0.00  0.00     0.058 A 
ATOM     13  C   UNL d   1      61.130  -0.663  29.067  0.00  0.00     0.013 A 
ATOM     14 CL   UNL d   1      60.580   0.644  29.261  0.00  0.00    -0.082 Cl
ENDROOT
BRANCH   7  15
ATOM     15  N   UNL d   1      58.180  -1.101  29.071  0.00  0.00    -0.227 NA
BRANCH  15  16
ATOM     16  C   UNL d   1      57.947  -0.846  29.818  0.00  0.00     0.086 A 
ATOM     17  C   UNL d   1      57.669  -1.389  30.373  0.00  0.00     0.038 A 
ATOM     18  C   UNL d   1      57.439  -1.128  31.116  0.00  0.00     0.082 A 
ATOM     19  N   UNL d   1      57.484  -0.323  31.314  0.00  0.00    -0.302 N 
ATOM     20  C   UNL d   1      57.764   0.215  30.754  0.00  0.00     0.082 A 
ATOM     21  C   UNL d   1      57.993  -0.046  30.011  0.00  0.00     0.038 A 
BRANCH  19  22
ATOM     22  C   UNL d   1      57.254  -0.064  32.058  0.00  0.00     0.080 C 
BRANCH  22  23
ATOM     23  C   UNL d   1      56.593  -0.396  32.425  0.00  0.00     0.018 A 
ATOM     24  C   UNL d   1      56.583  -1.197  32.618  0.00  0.00     0.002 A 
ATOM     25  C   UNL d   1      55.924  -1.532  32.985  0.00  0.00     0.000 A 
ATOM     26  C   UNL d   1      55.272  -1.060  33.159  0.00  0.00     0.000 A 
ATOM     27  C   UNL d   1      55.279  -0.252  32.965  0.00  0.00     0.000 A 
ATOM     28  C   UNL d   1      55.941   0.076  32.599  0.00  0.00     0.002 A 
ENDBRANCH  22  23
ENDBRANCH  19  22
ENDBRANCH  15  16
ENDBRANCH   7  15
BRANCH   2  29
ATOM     29  S   UNL d   1      58.827  -4.264  28.616  0.00  0.00     0.231 S 
ATOM     30  O   UNL d   1      58.280  -3.663  28.502  0.00  0.00    -0.215 OA
ATOM     31  O   UNL d   1      59.382  -4.868  28.730  0.00  0.00    -0.215 OA
BRANCH  29  32
ATOM     32  C   UNL d   1      58.244  -4.846  28.562  0.00  0.00     0.090 A 
ATOM     33  C   UNL d   1      58.459  -5.636  28.552  0.00  0.00     0.011 A 
ATOM     34  C   UNL d   1      57.877  -6.218  28.498  0.00  0.00     0.001 A 
ATOM     35  C   UNL d   1      57.083  -5.996  28.455  0.00  0.00     0.000 A 
ATOM     36  C   UNL d   1      56.868  -5.196  28.466  0.00  0.00     0.001 A 
ATOM     37  C   UNL d   1      57.454  -4.626  28.519  0.00  0.00     0.011 A 
ENDBRANCH  29  32
ENDBRANCH   2  29
TORSDOF 6
ENDMDL
