MODEL 1
REMARK VINA RESULT:      28.9      0.000      0.000
REMARK  3 active torsions:
REMARK  status: ('A' for Active; 'I' for Inactive)
REMARK    1  A    between atoms: N_7  and  C_6 
REMARK       I    between atoms: C_8  and  N_7 
REMARK    2  A    between atoms: C_12  and  C_8 
REMARK    3  A    between atoms: C_16  and  C_12 
ROOT
ATOM      1  C   UNL d   1      14.401  14.067  -1.382  0.00  0.00     0.269 A 
ATOM      2  N   UNL d   1      14.971  14.527  -0.980  0.00  0.00    -0.239 N 
ATOM      3  C   UNL d   1      14.515  13.285  -1.140  0.00  0.00     0.079 A 
ATOM      4  C   UNL d   1      15.412  14.035  -0.512  0.00  0.00     0.267 A 
ATOM      5  C   UNL d   1      15.140  13.265  -0.602  0.00  0.00     0.063 A 
ATOM      6  C   UNL d   1      14.124  12.592  -1.345  0.00  0.00     0.089 A 
ATOM      7  O   UNL d   1      13.836  14.335  -1.916  0.00  0.00    -0.267 OA
ATOM      8  O   UNL d   1      16.045  14.275  -0.015  0.00  0.00    -0.267 OA
ATOM      9  C   UNL d   1      15.065  15.344  -1.052  0.00  0.00     0.105 C 
ATOM     10  C   UNL d   1      15.374  12.553  -0.269  0.00  0.00     0.005 A 
ATOM     11  C   UNL d   1      14.359  11.874  -1.011  0.00  0.00     0.019 A 
ATOM     12  C   UNL d   1      14.984  11.854  -0.473  0.00  0.00     0.002 A 
ENDROOT
BRANCH   6  13
ATOM     13  N   UNL d   1      13.499  12.611  -1.884  0.00  0.00    -0.208 NA
ATOM     14  C   UNL d   1      13.562  12.205  -2.597  0.00  0.00     0.279 C 
ATOM     15  O   UNL d   1      14.244  11.780  -2.778  0.00  0.00    -0.265 OA
BRANCH  14  16
ATOM     16  C   UNL d   1      12.937  12.225  -3.135  0.00  0.00     0.062 C 
BRANCH  16  17
ATOM     17  C   UNL d   1      13.083  12.394  -3.930  0.00  0.00     0.005 A 
ATOM     18  C   UNL d   1      13.213  11.780  -4.465  0.00  0.00     0.000 A 
ATOM     19  C   UNL d   1      13.357  11.939  -5.250  0.00  0.00     0.000 A 
ATOM     20  C   UNL d   1      13.373  12.726  -5.513  0.00  0.00     0.000 A 
ATOM     21  C   UNL d   1      13.243  13.340  -4.978  0.00  0.00     0.000 A 
ATOM     22  C   UNL d   1      13.098  13.171  -4.183  0.00  0.00     0.000 A 
ENDBRANCH  16  17
ENDBRANCH  14  16
ENDBRANCH   6  13
TORSDOF 3
ENDMDL
MODEL 2
REMARK VINA RESULT:      30.1      1.736      3.949
REMARK  3 active torsions:
REMARK  status: ('A' for Active; 'I' for Inactive)
REMARK    1  A    between atoms: N_7  and  C_6 
REMARK       I    between atoms: C_8  and  N_7 
REMARK    2  A    between atoms: C_12  and  C_8 
REMARK    3  A    between atoms: C_16  and  C_12 
ROOT
ATOM      1  C   UNL d   1      13.151  13.986  -4.037  0.00  0.00     0.269 A 
ATOM      2  N   UNL d   1      13.345  14.554  -4.618  0.00  0.00    -0.239 N 
ATOM      3  C   UNL d   1      13.234  13.245  -4.393  0.00  0.00     0.079 A 
ATOM      4  C   UNL d   1      13.538  14.165  -5.301  0.00  0.00     0.267 A 
ATOM      5  C   UNL d   1      13.473  13.355  -5.175  0.00  0.00     0.063 A 
ATOM      6  C   UNL d   1      13.120  12.486  -4.100  0.00  0.00     0.089 A 
ATOM      7  O   UNL d   1      12.921  14.130  -3.260  0.00  0.00    -0.267 OA
ATOM      8  O   UNL d   1      13.767  14.531  -6.021  0.00  0.00    -0.267 OA
ATOM      9  C   UNL d   1      13.339  15.372  -4.509  0.00  0.00     0.105 C 
ATOM     10  C   UNL d   1      13.599  12.708  -5.663  0.00  0.00     0.005 A 
ATOM     11  C   UNL d   1      13.246  11.833  -4.589  0.00  0.00     0.019 A 
ATOM     12  C   UNL d   1      13.485  11.944  -5.371  0.00  0.00     0.002 A 
ENDROOT
BRANCH   6  13
ATOM     13  N   UNL d   1      12.881  12.375  -3.318  0.00  0.00    -0.208 NA
ATOM     14  C   UNL d   1      13.396  12.027  -2.779  0.00  0.00     0.279 C 
ATOM     15  O   UNL d   1      14.149  11.788  -3.013  0.00  0.00    -0.265 OA
BRANCH  14  16
ATOM     16  C   UNL d   1      13.157  11.916  -1.997  0.00  0.00     0.062 C 
BRANCH  16  17
ATOM     17  C   UNL d   1      13.720  11.888  -1.394  0.00  0.00     0.005 A 
ATOM     18  C   UNL d   1      14.522  11.942  -1.577  0.00  0.00     0.000 A 
ATOM     19  C   UNL d   1      15.083  11.915  -0.987  0.00  0.00     0.000 A 
ATOM     20  C   UNL d   1      14.844  11.833  -0.197  0.00  0.00     0.000 A 
ATOM     21  C   UNL d   1      14.041  11.780  -0.014  0.00  0.00     0.000 A 
ATOM     22  C   UNL d   1      13.478  11.808  -0.617  0.00  0.00     0.000 A 
ENDBRANCH  16  17
ENDBRANCH  14  16
ENDBRANCH   6  13
TORSDOF 3
ENDMDL
