MODEL 1
REMARK VINA RESULT:      26.9      0.000      0.000
REMARK  4 active torsions:
REMARK  status: ('A' for Active; 'I' for Inactive)
REMARK    1  A    between atoms: C_6  and  C_1 
REMARK    2  A    between atoms: S_7  and  C_3 
REMARK    3  A    between atoms: C_17  and  S_7 
REMARK    4  A    between atoms: C_18  and  C_17 
ROOT
ATOM      1  C   UNL d   1      13.868  12.383  -2.976  0.00  0.00     0.087 A 
ATOM      2  N   UNL d   1      13.668  11.779  -3.506  0.00  0.00    -0.245 NA
ATOM      3  C   UNL d   1      13.675  13.108  -3.325  0.00  0.00     0.049 A 
ATOM      4  C   UNL d   1      13.355  12.962  -4.070  0.00  0.00     0.025 A 
ATOM      5  C   UNL d   1      13.352  12.137  -4.181  0.00  0.00     0.082 A 
ATOM      6  C   UNL d   1      13.070  13.456  -4.656  0.00  0.00     0.002 A 
ATOM      7  C   UNL d   1      13.060  11.818  -4.883  0.00  0.00     0.019 A 
ATOM      8  C   UNL d   1      12.778  13.136  -5.359  0.00  0.00     0.000 A 
ATOM      9  C   UNL d   1      12.774  12.320  -5.471  0.00  0.00     0.002 A 
ENDROOT
BRANCH   1  10
ATOM     10  C   UNL d   1      14.197  12.237  -2.247  0.00  0.00     0.018 A 
ATOM     11  C   UNL d   1      13.715  11.962  -1.624  0.00  0.00     0.004 A 
ATOM     12  C   UNL d   1      14.049  11.815  -0.886  0.00  0.00     0.030 A 
ATOM     13  C   UNL d   1      14.857  11.937  -0.759  0.00  0.00     0.140 A 
ATOM     14  C   UNL d   1      15.339  12.211  -1.376  0.00  0.00     0.030 A 
ATOM     15  F   UNL d   1      15.200  11.790  -0.015  0.00  0.00    -0.204 F 
ATOM     16  C   UNL d   1      15.005  12.359  -2.115  0.00  0.00     0.004 A 
ENDBRANCH   1  10
BRANCH   3  17
ATOM     17  S   UNL d   1      13.783  13.852  -2.986  0.00  0.00    -0.083 SA
BRANCH  17  18
ATOM     18  C   UNL d   1      14.007  14.493  -3.477  0.00  0.00     0.058 C 
BRANCH  18  19
ATOM     19  C   UNL d   1      14.239  15.208  -3.118  0.00  0.00     0.129 C 
ATOM     20  N   UNL d   1      14.329  15.870  -3.586  0.00  0.00    -0.146 N 
ENDBRANCH  18  19
ENDBRANCH  17  18
ENDBRANCH   3  17
TORSDOF 4
ENDMDL
MODEL 2
REMARK VINA RESULT:      27.6      1.612      3.360
REMARK  4 active torsions:
REMARK  status: ('A' for Active; 'I' for Inactive)
REMARK    1  A    between atoms: C_6  and  C_1 
REMARK    2  A    between atoms: S_7  and  C_3 
REMARK    3  A    between atoms: C_17  and  S_7 
REMARK    4  A    between atoms: C_18  and  C_17 
ROOT
ATOM      1  C   UNL d   1      13.796  12.450  -2.678  0.00  0.00     0.087 A 
ATOM      2  N   UNL d   1      13.567  11.892  -2.110  0.00  0.00    -0.245 NA
ATOM      3  C   UNL d   1      14.275  13.015  -2.308  0.00  0.00     0.049 A 
ATOM      4  C   UNL d   1      14.347  12.815  -1.512  0.00  0.00     0.025 A 
ATOM      5  C   UNL d   1      13.907  12.118  -1.390  0.00  0.00     0.082 A 
ATOM      6  C   UNL d   1      14.746  13.162  -0.889  0.00  0.00     0.002 A 
ATOM      7  C   UNL d   1      13.875  11.779  -0.639  0.00  0.00     0.019 A 
ATOM      8  C   UNL d   1      14.712  12.822  -0.137  0.00  0.00     0.000 A 
ATOM      9  C   UNL d   1      14.278  12.134  -0.015  0.00  0.00     0.002 A 
ENDROOT
BRANCH   1  10
ATOM     10  C   UNL d   1      13.562  12.406  -3.455  0.00  0.00     0.018 A 
ATOM     11  C   UNL d   1      13.005  12.951  -3.750  0.00  0.00     0.004 A 
ATOM     12  C   UNL d   1      12.769  12.906  -4.538  0.00  0.00     0.030 A 
ATOM     13  C   UNL d   1      13.081  12.324  -5.037  0.00  0.00     0.140 A 
ATOM     14  C   UNL d   1      13.637  11.780  -4.746  0.00  0.00     0.030 A 
ATOM     15  F   UNL d   1      12.847  12.273  -5.834  0.00  0.00    -0.204 F 
ATOM     16  C   UNL d   1      13.872  11.826  -3.958  0.00  0.00     0.004 A 
ENDBRANCH   1  10
BRANCH   3  17
ATOM     17  S   UNL d   1      14.621  13.668  -2.672  0.00  0.00    -0.083 SA
BRANCH  17  18
ATOM     18  C   UNL d   1      14.366  14.436  -2.457  0.00  0.00     0.058 C 
BRANCH  18  19
ATOM     19  C   UNL d   1      14.718  15.093  -2.831  0.00  0.00     0.129 C 
ATOM     20  N   UNL d   1      14.381  15.828  -2.728  0.00  0.00    -0.146 N 
ENDBRANCH  18  19
ENDBRANCH  17  18
ENDBRANCH   3  17
TORSDOF 4
ENDMDL
