MODEL 1
REMARK VINA RESULT:      -2.5      0.000      0.000
REMARK  3 active torsions:
REMARK  status: ('A' for Active; 'I' for Inactive)
REMARK    1  A    between atoms: S_6  and  C_2 
REMARK    2  A    between atoms: C_9  and  S_6 
REMARK    3  A    between atoms: C_7  and  C_9 
ROOT
ATOM      1  N   UNL d   1      28.971  17.236 -24.668  0.00  0.00    -0.243 NA
ATOM      2  C   UNL d   1      30.252  17.066 -24.365  0.00  0.00     0.046 A 
ATOM      3  C   UNL d   1      29.810  16.521 -23.932  0.00  0.00     0.025 A 
ATOM      4  C   UNL d   1      29.736  17.506 -24.817  0.00  0.00     0.105 A 
ATOM      5  C   UNL d   1      29.013  16.625 -24.120  0.00  0.00     0.082 A 
ATOM      6  C   UNL d   1      30.030  15.942 -23.391  0.00  0.00     0.002 A 
ATOM      7  C   UNL d   1      28.434  16.147 -23.764  0.00  0.00     0.019 A 
ATOM      8  C   UNL d   1      29.451  15.453 -23.025  0.00  0.00     0.000 A 
ATOM      9  C   UNL d   1      28.662  15.560 -23.215  0.00  0.00     0.002 A 
ENDROOT
BRANCH   2  10
ATOM     10  S   UNL d   1      31.077  17.161 -24.351  0.00  0.00    -0.101 SA
BRANCH  10  11
ATOM     11  C   UNL d   1      31.429  17.810 -24.729  0.00  0.00     0.160 C 
BRANCH  11  12
ATOM     12  C   UNL d   1      32.241  17.948 -24.664  0.00  0.00     0.197 C 
ATOM     13  O   UNL d   1      32.515  18.547 -24.152  0.00  0.00    -0.647 OA
ATOM     14  O   UNL d   1      32.786  17.505 -25.095  0.00  0.00    -0.647 OA
ENDBRANCH  11  12
ENDBRANCH  10  11
ENDBRANCH   2  10
TORSDOF 3
ENDMDL
MODEL 2
REMARK VINA RESULT:      -2.4      2.356      3.567
REMARK  3 active torsions:
REMARK  status: ('A' for Active; 'I' for Inactive)
REMARK    1  A    between atoms: S_6  and  C_2 
REMARK    2  A    between atoms: C_9  and  S_6 
REMARK    3  A    between atoms: C_7  and  C_9 
ROOT
ATOM      1  N   UNL d   1      31.727  15.720 -23.218  0.00  0.00    -0.243 NA
ATOM      2  C   UNL d   1      30.587  16.196 -23.704  0.00  0.00     0.046 A 
ATOM      3  C   UNL d   1      31.194  16.712 -23.918  0.00  0.00     0.025 A 
ATOM      4  C   UNL d   1      30.915  15.587 -23.274  0.00  0.00     0.105 A 
ATOM      5  C   UNL d   1      31.903  16.418 -23.616  0.00  0.00     0.082 A 
ATOM      6  C   UNL d   1      31.192  17.413 -24.348  0.00  0.00     0.002 A 
ATOM      7  C   UNL d   1      32.615  16.827 -23.746  0.00  0.00     0.019 A 
ATOM      8  C   UNL d   1      31.908  17.835 -24.485  0.00  0.00     0.000 A 
ATOM      9  C   UNL d   1      32.609  17.538 -24.183  0.00  0.00     0.002 A 
ENDROOT
BRANCH   2  10
ATOM     10  S   UNL d   1      29.781  16.273 -23.889  0.00  0.00    -0.101 SA
BRANCH  10  11
ATOM     11  C   UNL d   1      29.211  15.860 -23.449  0.00  0.00     0.160 C 
BRANCH  11  12
ATOM     12  C   UNL d   1      28.405  15.970 -23.594  0.00  0.00     0.197 C 
ATOM     13  O   UNL d   1      28.008  15.453 -24.114  0.00  0.00    -0.647 OA
ATOM     14  O   UNL d   1      27.984  16.580 -23.234  0.00  0.00    -0.647 OA
ENDBRANCH  11  12
ENDBRANCH  10  11
ENDBRANCH   2  10
TORSDOF 3
ENDMDL
MODEL 3
REMARK VINA RESULT:      -2.4      4.978      6.254
REMARK  3 active torsions:
REMARK  status: ('A' for Active; 'I' for Inactive)
REMARK    1  A    between atoms: S_6  and  C_2 
REMARK    2  A    between atoms: C_9  and  S_6 
REMARK    3  A    between atoms: C_7  and  C_9 
ROOT
ATOM      1  N   UNL d   1      31.842  21.706 -20.587  0.00  0.00    -0.243 NA
ATOM      2  C   UNL d   1      32.596  21.241 -21.577  0.00  0.00     0.046 A 
ATOM      3  C   UNL d   1      32.640  22.064 -21.584  0.00  0.00     0.025 A 
ATOM      4  C   UNL d   1      32.105  21.021 -20.964  0.00  0.00     0.105 A 
ATOM      5  C   UNL d   1      32.172  22.356 -20.969  0.00  0.00     0.082 A 
ATOM      6  C   UNL d   1      33.047  22.588 -22.071  0.00  0.00     0.002 A 
ATOM      7  C   UNL d   1      32.112  23.174 -20.842  0.00  0.00     0.019 A 
ATOM      8  C   UNL d   1      32.991  23.419 -21.950  0.00  0.00     0.000 A 
ATOM      9  C   UNL d   1      32.526  23.702 -21.339  0.00  0.00     0.002 A 
ENDROOT
BRANCH   2  10
ATOM     10  S   UNL d   1      32.978  20.717 -22.096  0.00  0.00    -0.101 SA
BRANCH  10  11
ATOM     11  C   UNL d   1      32.905  19.898 -21.991  0.00  0.00     0.160 C 
BRANCH  11  12
ATOM     12  C   UNL d   1      33.124  19.373 -22.590  0.00  0.00     0.197 C 
ATOM     13  O   UNL d   1      33.229  18.566 -22.410  0.00  0.00    -0.647 OA
ATOM     14  O   UNL d   1      33.240  19.633 -23.364  0.00  0.00    -0.647 OA
ENDBRANCH  11  12
ENDBRANCH  10  11
ENDBRANCH   2  10
TORSDOF 3
ENDMDL
MODEL 4
REMARK VINA RESULT:      -2.1      2.021      3.708
REMARK  3 active torsions:
REMARK  status: ('A' for Active; 'I' for Inactive)
REMARK    1  A    between atoms: S_6  and  C_2 
REMARK    2  A    between atoms: C_9  and  S_6 
REMARK    3  A    between atoms: C_7  and  C_9 
ROOT
ATOM      1  N   UNL d   1      32.434  17.261 -23.285  0.00  0.00    -0.243 NA
ATOM      2  C   UNL d   1      31.428  17.283 -24.151  0.00  0.00     0.046 A 
ATOM      3  C   UNL d   1      31.973  17.859 -24.375  0.00  0.00     0.025 A 
ATOM      4  C   UNL d   1      31.711  16.915 -23.480  0.00  0.00     0.105 A 
ATOM      5  C   UNL d   1      32.600  17.847 -23.837  0.00  0.00     0.082 A 
ATOM      6  C   UNL d   1      31.981  18.394 -24.999  0.00  0.00     0.002 A 
ATOM      7  C   UNL d   1      33.237  18.373 -23.926  0.00  0.00     0.019 A 
ATOM      8  C   UNL d   1      32.622  18.931 -25.097  0.00  0.00     0.000 A 
ATOM      9  C   UNL d   1      33.241  18.914 -24.561  0.00  0.00     0.002 A 
ENDROOT
BRANCH   2  10
ATOM     10  S   UNL d   1      30.713  17.099 -24.531  0.00  0.00    -0.101 SA
BRANCH  10  11
ATOM     11  C   UNL d   1      30.185  16.557 -24.191  0.00  0.00     0.160 C 
BRANCH  11  12
ATOM     12  C   UNL d   1      29.443  16.422 -24.527  0.00  0.00     0.197 C 
ATOM     13  O   UNL d   1      29.343  15.784 -25.056  0.00  0.00    -0.647 OA
ATOM     14  O   UNL d   1      28.799  16.904 -24.351  0.00  0.00    -0.647 OA
ENDBRANCH  11  12
ENDBRANCH  10  11
ENDBRANCH   2  10
TORSDOF 3
ENDMDL
MODEL 5
REMARK VINA RESULT:      -1.7      2.696      3.256
REMARK  3 active torsions:
REMARK  status: ('A' for Active; 'I' for Inactive)
REMARK    1  A    between atoms: S_6  and  C_2 
REMARK    2  A    between atoms: C_9  and  S_6 
REMARK    3  A    between atoms: C_7  and  C_9 
ROOT
ATOM      1  N   UNL d   1      32.444  18.318 -24.921  0.00  0.00    -0.243 NA
ATOM      2  C   UNL d   1      32.655  18.466 -23.619  0.00  0.00     0.046 A 
ATOM      3  C   UNL d   1      32.360  17.707 -23.748  0.00  0.00     0.025 A 
ATOM      4  C   UNL d   1      32.707  18.842 -24.341  0.00  0.00     0.105 A 
ATOM      5  C   UNL d   1      32.228  17.613 -24.557  0.00  0.00     0.082 A 
ATOM      6  C   UNL d   1      32.194  17.088 -23.232  0.00  0.00     0.002 A 
ATOM      7  C   UNL d   1      31.929  16.896 -24.851  0.00  0.00     0.019 A 
ATOM      8  C   UNL d   1      31.890  16.358 -23.521  0.00  0.00     0.000 A 
ATOM      9  C   UNL d   1      31.762  16.270 -24.325  0.00  0.00     0.002 A 
ENDROOT
BRANCH   2  10
ATOM     10  S   UNL d   1      32.865  18.802 -22.889  0.00  0.00    -0.101 SA
BRANCH  10  11
ATOM     11  C   UNL d   1      33.020  19.614 -22.831  0.00  0.00     0.160 C 
BRANCH  11  12
ATOM     12  C   UNL d   1      33.164  19.966 -22.098  0.00  0.00     0.197 C 
ATOM     13  O   UNL d   1      33.234  19.486 -21.420  0.00  0.00    -0.647 OA
ATOM     14  O   UNL d   1      33.240  20.784 -22.023  0.00  0.00    -0.647 OA
ENDBRANCH  11  12
ENDBRANCH  10  11
ENDBRANCH   2  10
TORSDOF 3
ENDMDL
MODEL 6
REMARK VINA RESULT:      -1.0      6.172      6.840
REMARK  3 active torsions:
REMARK  status: ('A' for Active; 'I' for Inactive)
REMARK    1  A    between atoms: S_6  and  C_2 
REMARK    2  A    between atoms: C_9  and  S_6 
REMARK    3  A    between atoms: C_7  and  C_9 
ROOT
ATOM      1  N   UNL d   1      33.036  23.635 -21.128  0.00  0.00    -0.243 NA
ATOM      2  C   UNL d   1      33.117  22.967 -22.273  0.00  0.00     0.046 A 
ATOM      3  C   UNL d   1      32.888  22.440 -21.682  0.00  0.00     0.025 A 
ATOM      4  C   UNL d   1      33.208  23.702 -21.932  0.00  0.00     0.105 A 
ATOM      5  C   UNL d   1      32.836  22.853 -20.970  0.00  0.00     0.082 A 
ATOM      6  C   UNL d   1      32.718  21.635 -21.701  0.00  0.00     0.002 A 
ATOM      7  C   UNL d   1      32.615  22.459 -20.273  0.00  0.00     0.019 A 
ATOM      8  C   UNL d   1      32.493  21.227 -21.000  0.00  0.00     0.000 A 
ATOM      9  C   UNL d   1      32.444  21.642 -20.296  0.00  0.00     0.002 A 
ENDROOT
BRANCH   2  10
ATOM     10  S   UNL d   1      33.238  22.794 -23.076  0.00  0.00    -0.101 SA
BRANCH  10  11
ATOM     11  C   UNL d   1      32.780  23.169 -23.657  0.00  0.00     0.160 C 
BRANCH  11  12
ATOM     12  C   UNL d   1      32.946  23.061 -24.460  0.00  0.00     0.197 C 
ATOM     13  O   UNL d   1      32.832  23.695 -24.990  0.00  0.00    -0.647 OA
ATOM     14  O   UNL d   1      33.221  22.340 -24.747  0.00  0.00    -0.647 OA
ENDBRANCH  11  12
ENDBRANCH  10  11
ENDBRANCH   2  10
TORSDOF 3
ENDMDL
MODEL 7
REMARK VINA RESULT:       0.3      2.778      3.580
REMARK  3 active torsions:
REMARK  status: ('A' for Active; 'I' for Inactive)
REMARK    1  A    between atoms: S_6  and  C_2 
REMARK    2  A    between atoms: C_9  and  S_6 
REMARK    3  A    between atoms: C_7  and  C_9 
ROOT
ATOM      1  N   UNL d   1      29.819  15.925 -25.063  0.00  0.00    -0.243 NA
ATOM      2  C   UNL d   1      29.052  15.995 -23.982  0.00  0.00     0.046 A 
ATOM      3  C   UNL d   1      29.828  15.862 -23.739  0.00  0.00     0.025 A 
ATOM      4  C   UNL d   1      29.046  16.034 -24.796  0.00  0.00     0.105 A 
ATOM      5  C   UNL d   1      30.307  15.819 -24.410  0.00  0.00     0.082 A 
ATOM      6  C   UNL d   1      30.162  15.776 -22.992  0.00  0.00     0.002 A 
ATOM      7  C   UNL d   1      31.124  15.687 -24.332  0.00  0.00     0.019 A 
ATOM      8  C   UNL d   1      30.989  15.642 -22.904  0.00  0.00     0.000 A 
ATOM      9  C   UNL d   1      31.459  15.600 -23.573  0.00  0.00     0.002 A 
ENDROOT
BRANCH   2  10
ATOM     10  S   UNL d   1      28.384  16.077 -23.494  0.00  0.00    -0.101 SA
BRANCH  10  11
ATOM     11  C   UNL d   1      27.627  15.917 -23.792  0.00  0.00     0.160 C 
BRANCH  11  12
ATOM     12  C   UNL d   1      26.955  16.039 -23.327  0.00  0.00     0.197 C 
ATOM     13  O   UNL d   1      26.362  15.453 -23.302  0.00  0.00    -0.647 OA
ATOM     14  O   UNL d   1      26.859  16.730 -22.888  0.00  0.00    -0.647 OA
ENDBRANCH  11  12
ENDBRANCH  10  11
ENDBRANCH   2  10
TORSDOF 3
ENDMDL
