MODEL 1
REMARK VINA RESULT:      53.5      0.000      0.000
REMARK  4 active torsions:
REMARK  status: ('A' for Active; 'I' for Inactive)
REMARK    1  A    between atoms: N_10  and  C_3 
REMARK    2  A    between atoms: C_11  and  C_5 
REMARK    3  A    between atoms: C_12  and  N_10 
REMARK    4  A    between atoms: O_18  and  C_15 
ROOT
ATOM      1  N   UNL d   1      13.879  13.903  -3.342  0.00  0.00    -0.184 N 
ATOM      2  C   UNL d   1      13.728  14.266  -4.083  0.00  0.00     0.168 A 
ATOM      3  C   UNL d   1      13.676  13.110  -3.226  0.00  0.00     0.217 A 
ATOM      4  N   UNL d   1      14.425  15.120  -2.857  0.00  0.00    -0.162 NA
ATOM      5  C   UNL d   1      13.925  15.040  -4.197  0.00  0.00     0.055 A 
ATOM      6  N   UNL d   1      13.379  13.823  -4.682  0.00  0.00    -0.227 NA
ATOM      7  C   UNL d   1      13.333  12.685  -3.827  0.00  0.00     0.066 A 
ATOM      8  C   UNL d   1      14.276  15.477  -3.587  0.00  0.00     0.104 A 
ATOM      9  C   UNL d   1      13.178  13.041  -4.571  0.00  0.00     0.087 A 
ATOM     10  C   UNL d   1      13.078  11.917  -3.878  0.00  0.00     0.006 A 
ATOM     11  C   UNL d   1      14.473  16.262  -3.711  0.00  0.00     0.023 C 
ATOM     12  C   UNL d   1      12.832  12.483  -5.061  0.00  0.00     0.019 A 
ATOM     13  C   UNL d   1      12.771  11.779  -4.623  0.00  0.00     0.002 A 
ENDROOT
BRANCH   3  14
ATOM     14  N   UNL d   1      13.828  12.740  -2.479  0.00  0.00    -0.383 NA
BRANCH  14  15
ATOM     15  C   UNL d   1      13.953  12.508  -1.678  0.00  0.00     0.135 A 
ATOM     16  C   UNL d   1      14.639  12.775  -1.277  0.00  0.00     0.056 A 
ATOM     17  C   UNL d   1      14.771  12.542  -0.461  0.00  0.00     0.097 A 
ATOM     18  C   UNL d   1      14.202  12.043  -0.072  0.00  0.00     0.024 A 
ATOM     19  C   UNL d   1      13.516  11.781  -0.485  0.00  0.00     0.005 A 
ATOM     20  C   UNL d   1      13.386  12.012  -1.294  0.00  0.00     0.032 A 
BRANCH  17  21
ATOM     21  O   UNL d   1      15.452  12.803  -0.055  0.00  0.00    -0.328 OA
ATOM     22  C   UNL d   1      15.642  13.627  -0.022  0.00  0.00     0.181 C 
ENDBRANCH  17  21
ENDBRANCH  14  15
ENDBRANCH   3  14
BRANCH   5  23
ATOM     23  C   UNL d   1      13.777  15.396  -4.922  0.00  0.00     0.004 A 
ATOM     24  C   UNL d   1      13.119  15.869  -5.023  0.00  0.00     0.000 A 
ATOM     25  C   UNL d   1      12.969  16.228  -5.757  0.00  0.00     0.000 A 
ATOM     26  C   UNL d   1      13.480  16.107  -6.374  0.00  0.00     0.000 A 
ATOM     27  C   UNL d   1      14.146  15.630  -6.276  0.00  0.00     0.000 A 
ATOM     28  C   UNL d   1      14.290  15.278  -5.552  0.00  0.00     0.000 A 
ENDBRANCH   5  23
TORSDOF 4
ENDMDL
