MODEL 1
REMARK VINA RESULT:      72.2      0.000      0.000
REMARK  5 active torsions:
REMARK  status: ('A' for Active; 'I' for Inactive)
REMARK    1  A    between atoms: C_3  and  C_1 
REMARK    2  A    between atoms: S_2  and  C_3 
REMARK    3  A    between atoms: C_8  and  S_2 
REMARK    4  A    between atoms: C_9  and  C_3 
REMARK    5  A    between atoms: N_7  and  C_4 
ROOT
ATOM      1  C   UNL d   1     -57.904 -99.071 -44.068  0.00  0.00     0.128 A 
ATOM      2  C   UNL d   1     -58.628 -98.959 -44.447  0.00  0.00     0.166 A 
ATOM      3  N   UNL d   1     -57.865 -99.079 -43.248  0.00  0.00    -0.240 NA
ATOM      4  N   UNL d   1     -59.317 -98.855 -43.998  0.00  0.00    -0.225 NA
ATOM      5  C   UNL d   1     -58.547 -98.976 -42.808  0.00  0.00     0.099 A 
ATOM      6  C   UNL d   1     -59.271 -98.864 -43.181  0.00  0.00     0.101 A 
ATOM      7  C   UNL d   1     -59.957 -98.760 -42.729  0.00  0.00     0.021 A 
ATOM      8  C   UNL d   1     -58.506 -98.985 -41.984  0.00  0.00     0.021 A 
ATOM      9  C   UNL d   1     -59.910 -98.769 -41.911  0.00  0.00     0.002 A 
ATOM     10  C   UNL d   1     -59.187 -98.881 -41.539  0.00  0.00     0.002 A 
ENDROOT
BRANCH   1  11
ATOM     11  C   UNL d   1     -57.219 -99.175 -44.511  0.00  0.00     0.129 C 
BRANCH  11  12
ATOM     12  S   UNL d   1     -56.495 -99.482 -44.090  0.00  0.00     0.213 S 
ATOM     13  O   UNL d   1     -56.163 -98.980 -43.432  0.00  0.00    -0.217 OA
ATOM     14  O   UNL d   1     -56.679 -98.757 -43.730  0.00  0.00    -0.217 OA
BRANCH  12  15
ATOM     15  C   UNL d   1     -56.032-100.168 -44.174  0.00  0.00     0.088 A 
ATOM     16  C   UNL d   1     -56.023-100.574 -44.892  0.00  0.00     0.011 A 
ATOM     17  C   UNL d   1     -55.563-101.258 -44.980  0.00  0.00     0.001 A 
ATOM     18  C   UNL d   1     -55.555-101.657 -45.691  0.00  0.00     0.000 C 
ATOM     19  C   UNL d   1     -55.113-101.530 -44.340  0.00  0.00     0.000 A 
ATOM     20  C   UNL d   1     -55.124-101.116 -43.614  0.00  0.00     0.001 A 
ATOM     21  C   UNL d   1     -55.584-100.439 -43.537  0.00  0.00     0.011 A 
ENDBRANCH  12  15
ENDBRANCH  11  12
BRANCH  11  22
ATOM     22  C   UNL d   1     -57.072 -99.033 -45.349  0.00  0.00     0.135 C 
ATOM     23  N   UNL d   1     -56.294 -99.026 -45.776  0.00  0.00    -0.146 N 
ENDBRANCH  11  22
ENDBRANCH   1  11
BRANCH   2  24
ATOM     24  N   UNL d   1     -58.658 -98.952 -45.279  0.00  0.00    -0.288 N 
ATOM     25  C   UNL d   1     -59.331 -99.143 -45.737  0.00  0.00     0.082 A 
ATOM     26  C   UNL d   1     -59.117 -99.064 -46.544  0.00  0.00     0.021 A 
ATOM     27  C   UNL d   1     -58.317 -98.826 -46.574  0.00  0.00     0.021 A 
ATOM     28  C   UNL d   1     -58.036 -98.758 -45.788  0.00  0.00     0.082 A 
ENDBRANCH   2  24
TORSDOF 5
ENDMDL
