MODEL 1
REMARK VINA RESULT:      -5.0      0.000      0.000
REMARK  2 active torsions:
REMARK  status: ('A' for Active; 'I' for Inactive)
REMARK    1  A    between atoms: C_6  and  C_2 
REMARK    2  A    between atoms: O_13  and  C_10 
ROOT
ATOM      1  C   UNL d   1     -41.383-122.708 -52.865  0.00  0.00     0.026 A 
ATOM      2  C   UNL d   1     -41.464-122.016 -52.414  0.00  0.00     0.004 A 
ATOM      3  C   UNL d   1     -41.215-123.411 -52.483  0.00  0.00     0.004 A 
ATOM      4  C   UNL d   1     -41.208-122.749 -51.230  0.00  0.00     0.094 A 
ATOM      5  C   UNL d   1     -41.379-122.028 -51.601  0.00  0.00     0.024 A 
ATOM      6  C   UNL d   1     -41.126-123.433 -51.652  0.00  0.00     0.024 A 
ENDROOT
BRANCH   1   7
ATOM      7  C   UNL d   1     -41.471-122.688 -53.685  0.00  0.00     0.135 A 
ATOM      8  S   UNL d   1     -41.917-122.146 -54.113  0.00  0.00    -0.024 SA
ATOM      9  C   UNL d   1     -41.850-122.327 -54.904  0.00  0.00     0.236 A 
ATOM     10  N   UNL d   1     -41.360-122.988 -54.984  0.00  0.00    -0.119 NA
ATOM     11  N   UNL d   1     -42.211-121.920 -55.525  0.00  0.00    -0.118 N 
ATOM     12  N   UNL d   1     -41.123-123.213 -54.223  0.00  0.00    -0.139 NA
ENDBRANCH   1   7
BRANCH   4  13
ATOM     13  O   UNL d   1     -41.123-122.759 -50.412  0.00  0.00    -0.328 OA
ATOM     14  C   UNL d   1     -41.784-122.817 -49.925  0.00  0.00     0.181 C 
ENDBRANCH   4  13
TORSDOF 2
ENDMDL
MODEL 2
REMARK VINA RESULT:      -4.9      2.255      3.442
REMARK  2 active torsions:
REMARK  status: ('A' for Active; 'I' for Inactive)
REMARK    1  A    between atoms: C_6  and  C_2 
REMARK    2  A    between atoms: O_13  and  C_10 
ROOT
ATOM      1  C   UNL d   1     -41.458-122.847 -52.954  0.00  0.00     0.026 A 
ATOM      2  C   UNL d   1     -41.796-122.125 -53.183  0.00  0.00     0.004 A 
ATOM      3  C   UNL d   1     -41.146-123.337 -53.528  0.00  0.00     0.004 A 
ATOM      4  C   UNL d   1     -41.499-122.407 -54.538  0.00  0.00     0.094 A 
ATOM      5  C   UNL d   1     -41.820-121.899 -53.968  0.00  0.00     0.024 A 
ATOM      6  C   UNL d   1     -41.166-123.114 -54.334  0.00  0.00     0.024 A 
ENDROOT
BRANCH   1   7
ATOM      7  C   UNL d   1     -41.438-123.069 -52.159  0.00  0.00     0.135 A 
ATOM      8  S   UNL d   1     -41.229-122.588 -51.526  0.00  0.00    -0.024 SA
ATOM      9  C   UNL d   1     -41.284-123.026 -50.842  0.00  0.00     0.236 A 
ATOM     10  N   UNL d   1     -41.530-123.791 -51.037  0.00  0.00    -0.119 NA
ATOM     11  N   UNL d   1     -41.123-122.754 -50.080  0.00  0.00    -0.118 N 
ATOM     12  N   UNL d   1     -41.626-123.817 -51.859  0.00  0.00    -0.139 NA
ENDBRANCH   1   7
BRANCH   4  13
ATOM     13  O   UNL d   1     -41.523-122.178 -55.327  0.00  0.00    -0.328 OA
ATOM     14  C   UNL d   1     -42.234-121.945 -55.671  0.00  0.00     0.181 C 
ENDBRANCH   4  13
TORSDOF 2
ENDMDL
MODEL 3
REMARK VINA RESULT:      -4.5      2.957      3.934
REMARK  2 active torsions:
REMARK  status: ('A' for Active; 'I' for Inactive)
REMARK    1  A    between atoms: C_6  and  C_2 
REMARK    2  A    between atoms: O_13  and  C_10 
ROOT
ATOM      1  C   UNL d   1     -41.555-122.863 -50.889  0.00  0.00     0.026 A 
ATOM      2  C   UNL d   1     -41.627-122.080 -51.156  0.00  0.00     0.004 A 
ATOM      3  C   UNL d   1     -41.339-123.444 -51.421  0.00  0.00     0.004 A 
ATOM      4  C   UNL d   1     -41.267-122.486 -52.464  0.00  0.00     0.094 A 
ATOM      5  C   UNL d   1     -41.486-121.885 -51.937  0.00  0.00     0.024 A 
ATOM      6  C   UNL d   1     -41.192-123.253 -52.222  0.00  0.00     0.024 A 
ENDROOT
BRANCH   1   7
ATOM      7  C   UNL d   1     -41.700-123.052 -50.099  0.00  0.00     0.135 A 
ATOM      8  S   UNL d   1     -42.434-123.213 -49.765  0.00  0.00    -0.024 SA
ATOM      9  C   UNL d   1     -42.325-123.372 -48.973  0.00  0.00     0.236 A 
ATOM     10  N   UNL d   1     -41.519-123.313 -48.800  0.00  0.00    -0.119 NA
ATOM     11  N   UNL d   1     -42.919-123.561 -48.433  0.00  0.00    -0.118 N 
ATOM     12  N   UNL d   1     -41.129-123.113 -49.502  0.00  0.00    -0.139 NA
ENDBRANCH   1   7
BRANCH   4  13
ATOM     13  O   UNL d   1     -41.125-122.289 -53.249  0.00  0.00    -0.328 OA
ATOM     14  C   UNL d   1     -41.467-122.725 -53.857  0.00  0.00     0.181 C 
ENDBRANCH   4  13
TORSDOF 2
ENDMDL
MODEL 4
REMARK VINA RESULT:      -4.4      2.191      3.330
REMARK  2 active torsions:
REMARK  status: ('A' for Active; 'I' for Inactive)
REMARK    1  A    between atoms: C_6  and  C_2 
REMARK    2  A    between atoms: O_13  and  C_10 
ROOT
ATOM      1  C   UNL d   1     -41.888-123.226 -49.742  0.00  0.00     0.026 A 
ATOM      2  C   UNL d   1     -41.378-123.701 -49.293  0.00  0.00     0.004 A 
ATOM      3  C   UNL d   1     -42.525-122.870 -49.373  0.00  0.00     0.004 A 
ATOM      4  C   UNL d   1     -42.152-123.450 -48.134  0.00  0.00     0.094 A 
ATOM      5  C   UNL d   1     -41.502-123.817 -48.493  0.00  0.00     0.024 A 
ATOM      6  C   UNL d   1     -42.660-122.984 -48.556  0.00  0.00     0.024 A 
ENDROOT
BRANCH   1   7
ATOM      7  C   UNL d   1     -41.756-123.113 -50.548  0.00  0.00     0.135 A 
ATOM      8  S   UNL d   1     -41.440-122.440 -50.899  0.00  0.00    -0.024 SA
ATOM      9  C   UNL d   1     -41.406-122.563 -51.704  0.00  0.00     0.236 A 
ATOM     10  N   UNL d   1     -41.702-123.317 -51.869  0.00  0.00    -0.119 NA
ATOM     11  N   UNL d   1     -41.123-122.026 -52.263  0.00  0.00    -0.118 N 
ATOM     12  N   UNL d   1     -41.921-123.660 -51.148  0.00  0.00    -0.139 NA
ENDBRANCH   1   7
BRANCH   4  13
ATOM     13  O   UNL d   1     -42.276-123.568 -47.330  0.00  0.00    -0.328 OA
ATOM     14  C   UNL d   1     -42.111-122.968 -46.791  0.00  0.00     0.181 C 
ENDBRANCH   4  13
TORSDOF 2
ENDMDL
MODEL 5
REMARK VINA RESULT:      -3.8      0.878      1.082
REMARK  2 active torsions:
REMARK  status: ('A' for Active; 'I' for Inactive)
REMARK    1  A    between atoms: C_6  and  C_2 
REMARK    2  A    between atoms: O_13  and  C_10 
ROOT
ATOM      1  C   UNL d   1     -41.433-122.645 -52.088  0.00  0.00     0.026 A 
ATOM      2  C   UNL d   1     -41.717-122.059 -51.573  0.00  0.00     0.004 A 
ATOM      3  C   UNL d   1     -41.139-123.338 -51.772  0.00  0.00     0.004 A 
ATOM      4  C   UNL d   1     -41.403-122.874 -50.459  0.00  0.00     0.094 A 
ATOM      5  C   UNL d   1     -41.705-122.165 -50.763  0.00  0.00     0.024 A 
ATOM      6  C   UNL d   1     -41.122-123.456 -50.945  0.00  0.00     0.024 A 
ENDROOT
BRANCH   1   7
ATOM      7  C   UNL d   1     -41.449-122.530 -52.905  0.00  0.00     0.135 A 
ATOM      8  S   UNL d   1     -41.193-123.064 -53.475  0.00  0.00    -0.024 SA
ATOM      9  C   UNL d   1     -41.307-122.730 -54.209  0.00  0.00     0.236 A 
ATOM     10  N   UNL d   1     -41.638-121.979 -54.108  0.00  0.00    -0.119 NA
ATOM     11  N   UNL d   1     -41.124-123.080 -54.933  0.00  0.00    -0.118 N 
ATOM     12  N   UNL d   1     -41.726-121.854 -53.295  0.00  0.00    -0.139 NA
ENDBRANCH   1   7
BRANCH   4  13
ATOM     13  O   UNL d   1     -41.391-122.980 -49.644  0.00  0.00    -0.328 OA
ATOM     14  C   UNL d   1     -42.095-123.048 -49.223  0.00  0.00     0.181 C 
ENDBRANCH   4  13
TORSDOF 2
ENDMDL
