MODEL 1
REMARK VINA RESULT:       1.7      0.000      0.000
REMARK  4 active torsions:
REMARK  status: ('A' for Active; 'I' for Inactive)
REMARK    1  A    between atoms: C_7  and  C_1 
REMARK    2  A    between atoms: C_8  and  C_4 
REMARK    3  A    between atoms: O_9  and  C_7 
REMARK    4  A    between atoms: C_16  and  O_9 
ROOT
ATOM      1  C   UNL d   1      58.935  -0.922  29.551  0.00  0.00     0.098 A 
ATOM      2  C   UNL d   1      59.318  -0.200  29.659  0.00  0.00     0.075 A 
ATOM      3  C   UNL d   1      60.388  -0.643  28.820  0.00  0.00     0.354 A 
ATOM      4  C   UNL d   1      59.288  -1.485  29.081  0.00  0.00     0.093 A 
ATOM      5  N   UNL d   1      60.056  -0.040  29.297  0.00  0.00    -0.256 N 
ATOM      6  N   UNL d   1      60.005  -1.365  28.713  0.00  0.00    -0.192 NA
ATOM      7  O   UNL d   1      61.129  -0.485  28.455  0.00  0.00    -0.244 OA
ATOM      8  C   UNL d   1      58.986   0.403  30.136  0.00  0.00     0.019 C 
ATOM      9  C   UNL d   1      60.439   0.682  29.405  0.00  0.00     0.104 C 
ENDROOT
BRANCH   1  10
ATOM     10  C   UNL d   1      58.218  -1.042  29.920  0.00  0.00     0.303 C 
ATOM     11  O   UNL d   1      57.527  -0.940  29.482  0.00  0.00    -0.259 OA
BRANCH  10  12
ATOM     12  O   UNL d   1      58.156  -1.258  30.703  0.00  0.00    -0.273 OA
BRANCH  12  13
ATOM     13  C   UNL d   1      57.558  -0.992  31.187  0.00  0.00     0.103 A 
ATOM     14  C   UNL d   1      57.026  -1.542  31.497  0.00  0.00     0.025 A 
ATOM     15  C   UNL d   1      56.365  -1.414  32.006  0.00  0.00     0.002 A 
ATOM     16  C   UNL d   1      56.113  -0.700  32.303  0.00  0.00     0.000 A 
ATOM     17  C   UNL d   1      56.399   0.050  32.206  0.00  0.00     0.000 A 
ATOM     18  C   UNL d   1      57.070   0.289  31.746  0.00  0.00     0.002 A 
ATOM     19  C   UNL d   1      57.559  -0.180  31.311  0.00  0.00     0.025 A 
ENDBRANCH  12  13
ENDBRANCH  10  12
ENDBRANCH   1  10
BRANCH   4  20
ATOM     20  C   UNL d   1      58.905  -2.207  28.973  0.00  0.00     0.023 A 
ATOM     21  C   UNL d   1      59.296  -2.933  29.117  0.00  0.00     0.032 A 
ATOM     22  I   UNL d   1      60.091  -2.897  29.375  0.00  0.00    -0.043 I 
ATOM     23  C   UNL d   1      58.912  -3.656  29.009  0.00  0.00     0.006 A 
ATOM     24  C   UNL d   1      58.142  -3.655  28.759  0.00  0.00     0.000 A 
ATOM     25  C   UNL d   1      57.736  -2.957  28.611  0.00  0.00     0.000 A 
ATOM     26  C   UNL d   1      58.120  -2.234  28.719  0.00  0.00     0.002 A 
ENDBRANCH   4  20
TORSDOF 4
ENDMDL
MODEL 2
REMARK VINA RESULT:       2.0      1.611      2.265
REMARK  4 active torsions:
REMARK  status: ('A' for Active; 'I' for Inactive)
REMARK    1  A    between atoms: C_7  and  C_1 
REMARK    2  A    between atoms: C_8  and  C_4 
REMARK    3  A    between atoms: O_9  and  C_7 
REMARK    4  A    between atoms: C_16  and  O_9 
ROOT
ATOM      1  C   UNL d   1      58.735   0.288  30.979  0.00  0.00     0.098 A 
ATOM      2  C   UNL d   1      59.306   0.434  31.557  0.00  0.00     0.075 A 
ATOM      3  C   UNL d   1      60.318   0.467  30.548  0.00  0.00     0.354 A 
ATOM      4  C   UNL d   1      58.971   0.236  30.202  0.00  0.00     0.093 A 
ATOM      5  N   UNL d   1      60.113   0.527  31.357  0.00  0.00    -0.256 N 
ATOM      6  N   UNL d   1      59.747   0.321  29.970  0.00  0.00    -0.192 NA
ATOM      7  O   UNL d   1      61.129   0.560  30.344  0.00  0.00    -0.244 OA
ATOM      8  C   UNL d   1      59.100   0.494  32.366  0.00  0.00     0.019 C 
ATOM      9  C   UNL d   1      60.684   0.673  31.935  0.00  0.00     0.104 C 
ENDROOT
BRANCH   1  10
ATOM     10  C   UNL d   1      57.959   0.203  31.211  0.00  0.00     0.303 C 
ATOM     11  O   UNL d   1      57.374   0.602  30.787  0.00  0.00    -0.259 OA
BRANCH  10  12
ATOM     12  O   UNL d   1      57.735  -0.259  31.843  0.00  0.00    -0.273 OA
BRANCH  12  13
ATOM     13  C   UNL d   1      56.987  -0.237  32.163  0.00  0.00     0.103 A 
ATOM     14  C   UNL d   1      56.649   0.498  32.326  0.00  0.00     0.025 A 
ATOM     15  C   UNL d   1      55.891   0.675  32.653  0.00  0.00     0.002 A 
ATOM     16  C   UNL d   1      55.325   0.137  32.882  0.00  0.00     0.000 A 
ATOM     17  C   UNL d   1      55.318  -0.671  32.865  0.00  0.00     0.000 A 
ATOM     18  C   UNL d   1      55.934  -1.186  32.590  0.00  0.00     0.002 A 
ATOM     19  C   UNL d   1      56.650  -0.975  32.289  0.00  0.00     0.025 A 
ENDBRANCH  12  13
ENDBRANCH  10  12
ENDBRANCH   1  10
BRANCH   4  20
ATOM     20  C   UNL d   1      58.400   0.091  29.624  0.00  0.00     0.023 A 
ATOM     21  C   UNL d   1      58.345  -0.654  29.246  0.00  0.00     0.032 A 
ATOM     22  I   UNL d   1      58.891  -1.245  29.476  0.00  0.00    -0.043 I 
ATOM     23  C   UNL d   1      57.774  -0.799  28.668  0.00  0.00     0.006 A 
ATOM     24  C   UNL d   1      57.261  -0.205  28.469  0.00  0.00     0.000 A 
ATOM     25  C   UNL d   1      57.294   0.534  28.825  0.00  0.00     0.000 A 
ATOM     26  C   UNL d   1      57.865   0.679  29.402  0.00  0.00     0.002 A 
ENDBRANCH   4  20
TORSDOF 4
ENDMDL
MODEL 3
REMARK VINA RESULT:       2.5      1.106      2.503
REMARK  4 active torsions:
REMARK  status: ('A' for Active; 'I' for Inactive)
REMARK    1  A    between atoms: C_7  and  C_1 
REMARK    2  A    between atoms: C_8  and  C_4 
REMARK    3  A    between atoms: O_9  and  C_7 
REMARK    4  A    between atoms: C_16  and  O_9 
ROOT
ATOM      1  C   UNL d   1      58.813  -1.648  29.428  0.00  0.00     0.098 A 
ATOM      2  C   UNL d   1      58.473  -2.399  29.468  0.00  0.00     0.075 A 
ATOM      3  C   UNL d   1      59.601  -2.947  28.780  0.00  0.00     0.354 A 
ATOM      4  C   UNL d   1      59.538  -1.568  29.066  0.00  0.00     0.093 A 
ATOM      5  N   UNL d   1      58.857  -3.069  29.145  0.00  0.00    -0.256 N 
ATOM      6  N   UNL d   1      59.941  -2.196  28.741  0.00  0.00    -0.192 NA
ATOM      7  O   UNL d   1      59.989  -3.618  28.455  0.00  0.00    -0.244 OA
ATOM      8  C   UNL d   1      57.729  -2.521  29.832  0.00  0.00     0.019 C 
ATOM      9  C   UNL d   1      58.517  -3.819  29.184  0.00  0.00     0.104 C 
ENDROOT
BRANCH   1  10
ATOM     10  C   UNL d   1      58.410  -1.020  29.753  0.00  0.00     0.303 C 
ATOM     11  O   UNL d   1      57.963  -0.537  29.256  0.00  0.00    -0.259 OA
BRANCH  10  12
ATOM     12  O   UNL d   1      58.430  -0.847  30.549  0.00  0.00    -0.273 OA
BRANCH  12  13
ATOM     13  C   UNL d   1      57.810  -0.491  30.939  0.00  0.00     0.103 A 
ATOM     14  C   UNL d   1      57.498   0.207  30.629  0.00  0.00     0.025 A 
ATOM     15  C   UNL d   1      56.864   0.682  30.921  0.00  0.00     0.002 A 
ATOM     16  C   UNL d   1      56.419   0.539  31.587  0.00  0.00     0.000 A 
ATOM     17  C   UNL d   1      56.448  -0.057  32.132  0.00  0.00     0.000 A 
ATOM     18  C   UNL d   1      56.980  -0.718  32.143  0.00  0.00     0.002 A 
ATOM     19  C   UNL d   1      57.564  -0.886  31.615  0.00  0.00     0.025 A 
ENDBRANCH  12  13
ENDBRANCH  10  12
ENDBRANCH   1  10
BRANCH   4  20
ATOM     20  C   UNL d   1      59.879  -0.817  29.027  0.00  0.00     0.023 A 
ATOM     21  C   UNL d   1      60.636  -0.666  29.349  0.00  0.00     0.032 A 
ATOM     22  I   UNL d   1      61.034  -1.306  29.713  0.00  0.00    -0.043 I 
ATOM     23  C   UNL d   1      60.976   0.085  29.309  0.00  0.00     0.006 A 
ATOM     24  C   UNL d   1      60.564   0.682  28.950  0.00  0.00     0.000 A 
ATOM     25  C   UNL d   1      59.819   0.560  28.627  0.00  0.00     0.000 A 
ATOM     26  C   UNL d   1      59.479  -0.191  28.666  0.00  0.00     0.002 A 
ENDBRANCH   4  20
TORSDOF 4
ENDMDL
