MODEL 1
REMARK VINA RESULT:      -8.3      0.000      0.000
REMARK  5 active torsions:
REMARK  status: ('A' for Active; 'I' for Inactive)
REMARK    1  A    between atoms: C_4  and  S_1 
REMARK    2  A    between atoms: N_5  and  S_1 
REMARK    3  A    between atoms: C_2  and  C_9 
REMARK       I    between atoms: N_3  and  C_2 
REMARK    4  A    between atoms: C_8  and  N_3 
REMARK    5  A    between atoms: O_16  and  C_11 
ROOT
ATOM      1  C   UNL d   1      52.180  33.609  53.353  0.00  0.00     0.104 A 
ATOM      2  C   UNL d   1      50.742  34.201  52.723  0.00  0.00     0.058 A 
ATOM      3  C   UNL d   1      52.169  34.246  52.879  0.00  0.00     0.013 A 
ATOM      4  C   UNL d   1      51.472  33.253  53.523  0.00  0.00     0.013 A 
ATOM      5  C   UNL d   1      50.748  33.519  53.230  0.00  0.00     0.005 A 
ATOM      6  C   UNL d   1      51.459  34.541  52.566  0.00  0.00     0.005 A 
ENDROOT
BRANCH   2   7
ATOM      7  C   UNL d   1      50.016  34.502  52.403  0.00  0.00     0.279 C 
ATOM      8  N   UNL d   1      49.518  34.935  52.823  0.00  0.00    -0.206 NA
ATOM      9  O   UNL d   1      49.851  34.309  51.590  0.00  0.00    -0.265 OA
BRANCH   8  10
ATOM     10  C   UNL d   1      48.818  35.215  52.486  0.00  0.00     0.107 A 
ATOM     11  C   UNL d   1      48.386  35.774  52.878  0.00  0.00     0.112 A 
ATOM     12  C   UNL d   1      47.687  36.053  52.540  0.00  0.00     0.026 A 
ATOM     13  C   UNL d   1      47.422  35.774  51.810  0.00  0.00     0.002 A 
ATOM     14  C   UNL d   1      47.878  35.196  51.413  0.00  0.00     0.002 A 
ATOM     15  C   UNL d   1      48.575  34.920  51.755  0.00  0.00     0.021 A 
BRANCH  11  16
ATOM     16  O   UNL d   1      48.644  36.012  53.538  0.00  0.00    -0.327 OA
ATOM     17  C   UNL d   1      47.976  36.598  53.935  0.00  0.00     0.181 C 
ENDBRANCH  11  16
ENDBRANCH   8  10
ENDBRANCH   2   7
BRANCH   1  18
ATOM     18  S   UNL d   1      52.900  33.241  53.722  0.00  0.00     0.271 S 
ATOM     19  O   UNL d   1      52.854  33.694  54.431  0.00  0.00    -0.200 OA
ATOM     20  O   UNL d   1      52.940  32.811  53.041  0.00  0.00    -0.200 OA
BRANCH  18  21
ATOM     21  N   UNL d   1      53.620  32.837  54.026  0.00  0.00    -0.226 N 
ATOM     22  C   UNL d   1      53.982  32.244  53.582  0.00  0.00     0.111 C 
ATOM     23  C   UNL d   1      53.936  33.057  54.769  0.00  0.00     0.111 C 
ENDBRANCH  18  21
ENDBRANCH   1  18
TORSDOF 5
ENDMDL
MODEL 2
REMARK VINA RESULT:      -8.1      1.482      5.199
REMARK  5 active torsions:
REMARK  status: ('A' for Active; 'I' for Inactive)
REMARK    1  A    between atoms: C_4  and  S_1 
REMARK    2  A    between atoms: N_5  and  S_1 
REMARK    3  A    between atoms: C_2  and  C_9 
REMARK       I    between atoms: N_3  and  C_2 
REMARK    4  A    between atoms: C_8  and  N_3 
REMARK    5  A    between atoms: O_16  and  C_11 
ROOT
ATOM      1  C   UNL d   1      49.675  34.593  52.091  0.00  0.00     0.104 A 
ATOM      2  C   UNL d   1      51.173  34.086  52.652  0.00  0.00     0.058 A 
ATOM      3  C   UNL d   1      49.812  34.490  52.867  0.00  0.00     0.013 A 
ATOM      4  C   UNL d   1      50.285  34.444  51.578  0.00  0.00     0.013 A 
ATOM      5  C   UNL d   1      51.032  34.194  51.822  0.00  0.00     0.005 A 
ATOM      6  C   UNL d   1      50.552  34.239  53.148  0.00  0.00     0.005 A 
ENDROOT
BRANCH   2   7
ATOM      7  C   UNL d   1      51.930  33.829  52.939  0.00  0.00     0.279 C 
ATOM      8  N   UNL d   1      52.075  33.087  53.138  0.00  0.00    -0.206 NA
ATOM      9  O   UNL d   1      52.534  34.427  53.002  0.00  0.00    -0.265 OA
BRANCH   8  10
ATOM     10  C   UNL d   1      52.821  32.866  53.414  0.00  0.00     0.107 A 
ATOM     11  C   UNL d   1      53.087  32.115  53.278  0.00  0.00     0.112 A 
ATOM     12  C   UNL d   1      53.832  31.895  53.554  0.00  0.00     0.026 A 
ATOM     13  C   UNL d   1      54.311  32.425  53.966  0.00  0.00     0.002 A 
ATOM     14  C   UNL d   1      54.026  33.200  54.101  0.00  0.00     0.002 A 
ATOM     15  C   UNL d   1      53.280  33.415  53.823  0.00  0.00     0.021 A 
BRANCH  11  16
ATOM     16  O   UNL d   1      52.637  31.650  52.902  0.00  0.00    -0.327 OA
ATOM     17  C   UNL d   1      52.962  30.741  53.027  0.00  0.00     0.181 C 
ENDBRANCH  11  16
ENDBRANCH   8  10
ENDBRANCH   2   7
BRANCH   1  18
ATOM     18  S   UNL d   1      48.910  34.858  51.723  0.00  0.00     0.271 S 
ATOM     19  O   UNL d   1      49.038  34.449  50.997  0.00  0.00    -0.200 OA
ATOM     20  O   UNL d   1      48.794  35.247  52.419  0.00  0.00    -0.200 OA
BRANCH  18  21
ATOM     21  N   UNL d   1      48.141  35.156  51.420  0.00  0.00    -0.226 N 
ATOM     22  C   UNL d   1      47.835  34.867  50.710  0.00  0.00     0.111 C 
ATOM     23  C   UNL d   1      47.720  35.733  51.855  0.00  0.00     0.111 C 
ENDBRANCH  18  21
ENDBRANCH   1  18
TORSDOF 5
ENDMDL
MODEL 3
REMARK VINA RESULT:      -7.6      1.245      5.040
REMARK  5 active torsions:
REMARK  status: ('A' for Active; 'I' for Inactive)
REMARK    1  A    between atoms: C_4  and  S_1 
REMARK    2  A    between atoms: N_5  and  S_1 
REMARK    3  A    between atoms: C_2  and  C_9 
REMARK       I    between atoms: N_3  and  C_2 
REMARK    4  A    between atoms: C_8  and  N_3 
REMARK    5  A    between atoms: O_16  and  C_11 
ROOT
ATOM      1  C   UNL d   1      49.903  34.517  52.336  0.00  0.00     0.104 A 
ATOM      2  C   UNL d   1      51.327  33.728  52.743  0.00  0.00     0.058 A 
ATOM      3  C   UNL d   1      50.539  34.541  51.860  0.00  0.00     0.013 A 
ATOM      4  C   UNL d   1      49.966  34.098  53.027  0.00  0.00     0.013 A 
ATOM      5  C   UNL d   1      50.650  33.699  53.256  0.00  0.00     0.005 A 
ATOM      6  C   UNL d   1      51.244  34.152  52.058  0.00  0.00     0.005 A 
ENDROOT
BRANCH   2   7
ATOM      7  C   UNL d   1      52.049  33.329  52.946  0.00  0.00     0.279 C 
ATOM      8  N   UNL d   1      52.485  33.537  53.561  0.00  0.00    -0.206 NA
ATOM      9  O   UNL d   1      52.279  32.683  52.442  0.00  0.00    -0.265 OA
BRANCH   8  10
ATOM     10  C   UNL d   1      53.183  33.131  53.735  0.00  0.00     0.107 A 
ATOM     11  C   UNL d   1      53.703  33.448  54.267  0.00  0.00     0.112 A 
ATOM     12  C   UNL d   1      54.399  33.042  54.440  0.00  0.00     0.026 A 
ATOM     13  C   UNL d   1      54.576  32.320  54.082  0.00  0.00     0.002 A 
ATOM     14  C   UNL d   1      54.031  32.001  53.533  0.00  0.00     0.002 A 
ATOM     15  C   UNL d   1      53.335  32.411  53.363  0.00  0.00     0.021 A 
BRANCH  11  16
ATOM     16  O   UNL d   1      53.523  34.103  54.579  0.00  0.00    -0.327 OA
ATOM     17  C   UNL d   1      54.221  34.340  55.214  0.00  0.00     0.181 C 
ENDBRANCH  11  16
ENDBRANCH   8  10
ENDBRANCH   2   7
BRANCH   1  18
ATOM     18  S   UNL d   1      49.120  34.910  52.186  0.00  0.00     0.271 S 
ATOM     19  O   UNL d   1      49.087  35.289  52.938  0.00  0.00    -0.200 OA
ATOM     20  O   UNL d   1      49.156  34.545  51.469  0.00  0.00    -0.200 OA
BRANCH  18  21
ATOM     21  N   UNL d   1      48.345  35.267  51.973  0.00  0.00    -0.226 N 
ATOM     22  C   UNL d   1      47.986  35.812  52.478  0.00  0.00     0.111 C 
ATOM     23  C   UNL d   1      47.973  35.051  51.256  0.00  0.00     0.111 C 
ENDBRANCH  18  21
ENDBRANCH   1  18
TORSDOF 5
ENDMDL
