MODEL 1
REMARK VINA RESULT:      -3.2      0.000      0.000
REMARK  4 active torsions:
REMARK  status: ('A' for Active; 'I' for Inactive)
REMARK    1  A    between atoms: C_2  and  S_1 
REMARK    2  A    between atoms: N_5  and  S_1 
REMARK    3  A    between atoms: C_10  and  N_5 
REMARK    4  A    between atoms: C_11  and  C_10 
ROOT
ATOM      1  S   UNL d   1      33.185  19.826 -22.310  0.00  0.00     0.291 S 
ATOM      2  O   UNL d   1      33.221  19.257 -21.713  0.00  0.00    -0.198 OA
ATOM      3  O   UNL d   1      33.149  20.391 -22.909  0.00  0.00    -0.198 OA
ENDROOT
BRANCH   1   4
ATOM      4  C   UNL d   1      33.129  19.231 -22.879  0.00  0.00     0.135 A 
ATOM      5  S   UNL d   1      33.211  19.321 -23.687  0.00  0.00    -0.074 SA
ATOM      6  C   UNL d   1      33.112  18.585 -24.043  0.00  0.00     0.030 A 
ATOM      7  C   UNL d   1      33.150  18.418 -24.852  0.00  0.00     0.007 C 
ATOM      8  C   UNL d   1      32.967  18.035 -23.446  0.00  0.00     0.008 A 
ATOM      9  C   UNL d   1      32.977  18.432 -22.726  0.00  0.00     0.020 A 
ENDBRANCH   1   4
BRANCH   1  10
ATOM     10  N   UNL d   1      33.241  20.423 -21.755  0.00  0.00    -0.156 NA
BRANCH  10  11
ATOM     11  C   UNL d   1      32.558  20.766 -21.449  0.00  0.00     0.112 C 
BRANCH  11  12
ATOM     12  C   UNL d   1      32.613  21.420 -20.949  0.00  0.00     0.020 A 
ATOM     13  C   UNL d   1      32.103  22.067 -21.057  0.00  0.00     0.002 A 
ATOM     14  C   UNL d   1      32.157  22.720 -20.557  0.00  0.00     0.000 A 
ATOM     15  C   UNL d   1      32.722  22.727 -19.948  0.00  0.00     0.000 A 
ATOM     16  C   UNL d   1      33.226  22.081 -19.846  0.00  0.00     0.000 A 
ATOM     17  C   UNL d   1      32.777  23.381 -19.448  0.00  0.00     0.000 C 
ATOM     18  C   UNL d   1      33.171  21.428 -20.346  0.00  0.00     0.002 A 
ENDBRANCH  11  12
ENDBRANCH  10  11
ENDBRANCH   1  10
TORSDOF 4
ENDMDL
MODEL 2
REMARK VINA RESULT:      -3.0      1.009      1.375
REMARK  4 active torsions:
REMARK  status: ('A' for Active; 'I' for Inactive)
REMARK    1  A    between atoms: C_2  and  S_1 
REMARK    2  A    between atoms: N_5  and  S_1 
REMARK    3  A    between atoms: C_10  and  N_5 
REMARK    4  A    between atoms: C_11  and  C_10 
ROOT
ATOM      1  S   UNL d   1      32.952  19.154 -22.973  0.00  0.00     0.291 S 
ATOM      2  O   UNL d   1      33.128  18.824 -22.238  0.00  0.00    -0.198 OA
ATOM      3  O   UNL d   1      32.774  19.481 -23.709  0.00  0.00    -0.198 OA
ENDROOT
BRANCH   1   4
ATOM      4  C   UNL d   1      32.820  18.401 -23.284  0.00  0.00     0.135 A 
ATOM      5  S   UNL d   1      33.241  17.722 -23.110  0.00  0.00    -0.074 SA
ATOM      6  C   UNL d   1      32.922  17.100 -23.544  0.00  0.00     0.030 A 
ATOM      7  C   UNL d   1      33.176  16.312 -23.539  0.00  0.00     0.007 C 
ATOM      8  C   UNL d   1      32.296  17.399 -23.991  0.00  0.00     0.008 A 
ATOM      9  C   UNL d   1      32.232  18.203 -23.831  0.00  0.00     0.020 A 
ENDBRANCH   1   4
BRANCH   1  10
ATOM     10  N   UNL d   1      33.080  19.904 -22.675  0.00  0.00    -0.156 NA
BRANCH  10  11
ATOM     11  C   UNL d   1      32.851  20.087 -21.906  0.00  0.00     0.112 C 
BRANCH  11  12
ATOM     12  C   UNL d   1      32.816  20.874 -21.661  0.00  0.00     0.020 A 
ATOM     13  C   UNL d   1      32.387  21.076 -20.979  0.00  0.00     0.002 A 
ATOM     14  C   UNL d   1      32.351  21.863 -20.735  0.00  0.00     0.000 A 
ATOM     15  C   UNL d   1      32.745  22.448 -21.173  0.00  0.00     0.000 A 
ATOM     16  C   UNL d   1      33.170  22.242 -21.850  0.00  0.00     0.000 A 
ATOM     17  C   UNL d   1      32.709  23.235 -20.928  0.00  0.00     0.000 C 
ATOM     18  C   UNL d   1      33.205  21.454 -22.094  0.00  0.00     0.002 A 
ENDBRANCH  11  12
ENDBRANCH  10  11
ENDBRANCH   1  10
TORSDOF 4
ENDMDL
MODEL 3
REMARK VINA RESULT:      -2.9      1.049      4.464
REMARK  4 active torsions:
REMARK  status: ('A' for Active; 'I' for Inactive)
REMARK    1  A    between atoms: C_2  and  S_1 
REMARK    2  A    between atoms: N_5  and  S_1 
REMARK    3  A    between atoms: C_10  and  N_5 
REMARK    4  A    between atoms: C_11  and  C_10 
ROOT
ATOM      1  S   UNL d   1      32.931  20.663 -21.719  0.00  0.00     0.291 S 
ATOM      2  O   UNL d   1      33.240  20.914 -22.442  0.00  0.00    -0.198 OA
ATOM      3  O   UNL d   1      32.621  20.416 -20.996  0.00  0.00    -0.198 OA
ENDROOT
BRANCH   1   4
ATOM      4  C   UNL d   1      32.886  21.446 -21.462  0.00  0.00     0.135 A 
ATOM      5  S   UNL d   1      32.579  21.707 -20.751  0.00  0.00    -0.074 SA
ATOM      6  C   UNL d   1      32.646  22.527 -20.724  0.00  0.00     0.030 A 
ATOM      7  C   UNL d   1      32.405  23.023 -20.107  0.00  0.00     0.007 C 
ATOM      8  C   UNL d   1      32.998  22.774 -21.428  0.00  0.00     0.008 A 
ATOM      9  C   UNL d   1      33.147  22.107 -21.885  0.00  0.00     0.020 A 
ENDBRANCH   1   4
BRANCH   1  10
ATOM     10  N   UNL d   1      32.971  19.884 -21.964  0.00  0.00    -0.156 NA
BRANCH  10  11
ATOM     11  C   UNL d   1      32.991  19.705 -22.767  0.00  0.00     0.112 C 
BRANCH  11  12
ATOM     12  C   UNL d   1      32.888  18.927 -23.020  0.00  0.00     0.020 A 
ATOM     13  C   UNL d   1      32.431  18.769 -23.696  0.00  0.00     0.002 A 
ATOM     14  C   UNL d   1      32.328  17.990 -23.948  0.00  0.00     0.000 A 
ATOM     15  C   UNL d   1      32.681  17.369 -23.524  0.00  0.00     0.000 A 
ATOM     16  C   UNL d   1      33.133  17.533 -22.853  0.00  0.00     0.000 A 
ATOM     17  C   UNL d   1      32.577  16.591 -23.776  0.00  0.00     0.000 C 
ATOM     18  C   UNL d   1      33.237  18.311 -22.601  0.00  0.00     0.002 A 
ENDBRANCH  11  12
ENDBRANCH  10  11
ENDBRANCH   1  10
TORSDOF 4
ENDMDL
MODEL 4
REMARK VINA RESULT:      -2.7      1.449      2.074
REMARK  4 active torsions:
REMARK  status: ('A' for Active; 'I' for Inactive)
REMARK    1  A    between atoms: C_2  and  S_1 
REMARK    2  A    between atoms: N_5  and  S_1 
REMARK    3  A    between atoms: C_10  and  N_5 
REMARK    4  A    between atoms: C_11  and  C_10 
ROOT
ATOM      1  S   UNL d   1      32.725  18.449 -23.311  0.00  0.00     0.291 S 
ATOM      2  O   UNL d   1      32.229  18.737 -23.904  0.00  0.00    -0.198 OA
ATOM      3  O   UNL d   1      33.220  18.157 -22.720  0.00  0.00    -0.198 OA
ENDROOT
BRANCH   1   4
ATOM      4  C   UNL d   1      32.582  17.676 -23.562  0.00  0.00     0.135 A 
ATOM      5  S   UNL d   1      31.861  17.290 -23.564  0.00  0.00    -0.074 SA
ATOM      6  C   UNL d   1      31.974  16.529 -23.858  0.00  0.00     0.030 A 
ATOM      7  C   UNL d   1      31.395  15.947 -23.958  0.00  0.00     0.007 C 
ATOM      8  C   UNL d   1      32.775  16.446 -24.039  0.00  0.00     0.008 A 
ATOM      9  C   UNL d   1      33.152  17.153 -23.856  0.00  0.00     0.020 A 
ENDBRANCH   1   4
BRANCH   1  10
ATOM     10  N   UNL d   1      32.873  19.210 -23.055  0.00  0.00    -0.156 NA
BRANCH  10  11
ATOM     11  C   UNL d   1      32.898  19.376 -22.249  0.00  0.00     0.112 C 
BRANCH  11  12
ATOM     12  C   UNL d   1      32.895  20.159 -21.988  0.00  0.00     0.020 A 
ATOM     13  C   UNL d   1      32.544  20.351 -21.260  0.00  0.00     0.002 A 
ATOM     14  C   UNL d   1      32.542  21.133 -20.999  0.00  0.00     0.000 A 
ATOM     15  C   UNL d   1      32.891  21.724 -21.466  0.00  0.00     0.000 A 
ATOM     16  C   UNL d   1      33.239  21.527 -22.189  0.00  0.00     0.000 A 
ATOM     17  C   UNL d   1      32.889  22.507 -21.206  0.00  0.00     0.000 C 
ATOM     18  C   UNL d   1      33.241  20.745 -22.450  0.00  0.00     0.002 A 
ENDBRANCH  11  12
ENDBRANCH  10  11
ENDBRANCH   1  10
TORSDOF 4
ENDMDL
MODEL 5
REMARK VINA RESULT:      -2.5      1.182      4.509
REMARK  4 active torsions:
REMARK  status: ('A' for Active; 'I' for Inactive)
REMARK    1  A    between atoms: C_2  and  S_1 
REMARK    2  A    between atoms: N_5  and  S_1 
REMARK    3  A    between atoms: C_10  and  N_5 
REMARK    4  A    between atoms: C_11  and  C_10 
ROOT
ATOM      1  S   UNL d   1      33.053  21.489 -21.478  0.00  0.00     0.291 S 
ATOM      2  O   UNL d   1      33.044  22.091 -22.042  0.00  0.00    -0.198 OA
ATOM      3  O   UNL d   1      33.060  20.890 -20.910  0.00  0.00    -0.198 OA
ENDROOT
BRANCH   1   4
ATOM      4  C   UNL d   1      32.886  22.038 -20.885  0.00  0.00     0.135 A 
ATOM      5  S   UNL d   1      33.202  22.050 -20.131  0.00  0.00    -0.074 SA
ATOM      6  C   UNL d   1      32.883  22.692 -19.725  0.00  0.00     0.030 A 
ATOM      7  C   UNL d   1      33.048  22.916 -18.946  0.00  0.00     0.007 C 
ATOM      8  C   UNL d   1      32.365  23.080 -20.236  0.00  0.00     0.008 A 
ATOM      9  C   UNL d   1      32.365  22.677 -20.953  0.00  0.00     0.020 A 
ENDBRANCH   1   4
BRANCH   1  10
ATOM     10  N   UNL d   1      33.217  20.937 -22.057  0.00  0.00    -0.156 NA
BRANCH  10  11
ATOM     11  C   UNL d   1      32.963  20.159 -21.969  0.00  0.00     0.112 C 
BRANCH  11  12
ATOM     12  C   UNL d   1      33.017  19.632 -22.602  0.00  0.00     0.020 A 
ATOM     13  C   UNL d   1      32.900  18.820 -22.474  0.00  0.00     0.002 A 
ATOM     14  C   UNL d   1      32.954  18.293 -23.107  0.00  0.00     0.000 A 
ATOM     15  C   UNL d   1      33.124  18.580 -23.868  0.00  0.00     0.000 A 
ATOM     16  C   UNL d   1      33.239  19.389 -23.988  0.00  0.00     0.000 A 
ATOM     17  C   UNL d   1      33.178  18.054 -24.501  0.00  0.00     0.000 C 
ATOM     18  C   UNL d   1      33.185  19.915 -23.355  0.00  0.00     0.002 A 
ENDBRANCH  11  12
ENDBRANCH  10  11
ENDBRANCH   1  10
TORSDOF 4
ENDMDL
MODEL 6
REMARK VINA RESULT:      -2.2      3.574      5.678
REMARK  4 active torsions:
REMARK  status: ('A' for Active; 'I' for Inactive)
REMARK    1  A    between atoms: C_2  and  S_1 
REMARK    2  A    between atoms: N_5  and  S_1 
REMARK    3  A    between atoms: C_10  and  N_5 
REMARK    4  A    between atoms: C_11  and  C_10 
ROOT
ATOM      1  S   UNL d   1      31.490  17.561 -24.284  0.00  0.00     0.291 S 
ATOM      2  O   UNL d   1      31.402  17.449 -25.097  0.00  0.00    -0.198 OA
ATOM      3  O   UNL d   1      31.582  17.676 -23.472  0.00  0.00    -0.198 OA
ENDROOT
BRANCH   1   4
ATOM      4  C   UNL d   1      32.109  18.089 -24.421  0.00  0.00     0.135 A 
ATOM      5  S   UNL d   1      32.229  18.806 -24.046  0.00  0.00    -0.074 SA
ATOM      6  C   UNL d   1      32.912  19.149 -24.352  0.00  0.00     0.030 A 
ATOM      7  C   UNL d   1      33.241  19.876 -24.134  0.00  0.00     0.007 C 
ATOM      8  C   UNL d   1      33.216  18.637 -24.923  0.00  0.00     0.008 A 
ATOM      9  C   UNL d   1      32.722  17.982 -24.966  0.00  0.00     0.020 A 
ENDBRANCH   1   4
BRANCH   1  10
ATOM     10  N   UNL d   1      30.878  17.040 -24.138  0.00  0.00    -0.156 NA
BRANCH  10  11
ATOM     11  C   UNL d   1      30.119  17.209 -24.408  0.00  0.00     0.112 C 
BRANCH  11  12
ATOM     12  C   UNL d   1      29.476  16.770 -24.135  0.00  0.00     0.020 A 
ATOM     13  C   UNL d   1      29.532  15.942 -24.088  0.00  0.00     0.002 A 
ATOM     14  C   UNL d   1      28.889  15.503 -23.815  0.00  0.00     0.000 A 
ATOM     15  C   UNL d   1      28.191  15.892 -23.589  0.00  0.00     0.000 A 
ATOM     16  C   UNL d   1      28.142  16.714 -23.638  0.00  0.00     0.000 A 
ATOM     17  C   UNL d   1      27.548  15.453 -23.316  0.00  0.00     0.000 C 
ATOM     18  C   UNL d   1      28.785  17.154 -23.911  0.00  0.00     0.002 A 
ENDBRANCH  11  12
ENDBRANCH  10  11
ENDBRANCH   1  10
TORSDOF 4
ENDMDL
MODEL 7
REMARK VINA RESULT:      -1.5      2.539      3.468
REMARK  4 active torsions:
REMARK  status: ('A' for Active; 'I' for Inactive)
REMARK    1  A    between atoms: C_2  and  S_1 
REMARK    2  A    between atoms: N_5  and  S_1 
REMARK    3  A    between atoms: C_10  and  N_5 
REMARK    4  A    between atoms: C_11  and  C_10 
ROOT
ATOM      1  S   UNL d   1      32.949  22.262 -20.287  0.00  0.00     0.291 S 
ATOM      2  O   UNL d   1      32.753  23.056 -20.398  0.00  0.00    -0.198 OA
ATOM      3  O   UNL d   1      33.144  21.468 -20.180  0.00  0.00    -0.198 OA
ENDROOT
BRANCH   1   4
ATOM      4  C   UNL d   1      32.769  22.103 -21.076  0.00  0.00     0.135 A 
ATOM      5  S   UNL d   1      33.097  22.466 -21.732  0.00  0.00    -0.074 SA
ATOM      6  C   UNL d   1      32.757  22.138 -22.407  0.00  0.00     0.030 A 
ATOM      7  C   UNL d   1      32.924  22.338 -23.192  0.00  0.00     0.007 C 
ATOM      8  C   UNL d   1      32.214  21.566 -22.163  0.00  0.00     0.008 A 
ATOM      9  C   UNL d   1      32.221  21.544 -21.341  0.00  0.00     0.020 A 
ENDBRANCH   1   4
BRANCH   1  10
ATOM     10  N   UNL d   1      33.130  22.408 -19.504  0.00  0.00    -0.156 NA
BRANCH  10  11
ATOM     11  C   UNL d   1      32.577  22.771 -19.014  0.00  0.00     0.112 C 
BRANCH  11  12
ATOM     12  C   UNL d   1      32.741  22.874 -18.212  0.00  0.00     0.020 A 
ATOM     13  C   UNL d   1      32.565  23.599 -17.844  0.00  0.00     0.002 A 
ATOM     14  C   UNL d   1      32.729  23.702 -17.042  0.00  0.00     0.000 A 
ATOM     15  C   UNL d   1      33.068  23.081 -16.608  0.00  0.00     0.000 A 
ATOM     16  C   UNL d   1      33.240  22.364 -16.978  0.00  0.00     0.000 A 
ATOM     17  C   UNL d   1      33.232  23.185 -15.806  0.00  0.00     0.000 C 
ATOM     18  C   UNL d   1      33.077  22.261 -17.780  0.00  0.00     0.002 A 
ENDBRANCH  11  12
ENDBRANCH  10  11
ENDBRANCH   1  10
TORSDOF 4
ENDMDL
