MODEL 1
REMARK VINA RESULT:       4.8      0.000      0.000
REMARK  7 active torsions:
REMARK  status: ('A' for Active; 'I' for Inactive)
REMARK    1  A    between atoms: N_3  and  S_1 
REMARK    2  A    between atoms: C_6  and  S_1 
REMARK    3  A    between atoms: N_2  and  C_5 
REMARK    4  A    between atoms: C_4  and  N_3 
REMARK    5  A    between atoms: C_5  and  C_4 
REMARK    6  A    between atoms: C_10  and  C_5 
REMARK    7  A    between atoms: C_22  and  N_7 
ROOT
ATOM      1  C   UNL d   1      58.464  -0.381  30.259  0.00  0.00     0.086 C 
ENDROOT
BRANCH   1   2
ATOM      2  N   UNL d   1      58.849  -1.093  30.092  0.00  0.00    -0.300 N 
ATOM      3  C   UNL d   1      59.660  -1.099  29.967  0.00  0.00     0.100 A 
ATOM      4  C   UNL d   1      60.051  -1.809  29.799  0.00  0.00     0.100 A 
ATOM      5  N   UNL d   1      59.622  -2.512  29.758  0.00  0.00    -0.300 N 
ATOM      6  C   UNL d   1      58.804  -2.502  29.885  0.00  0.00     0.100 A 
ATOM      7  C   UNL d   1      58.420  -1.795  30.051  0.00  0.00     0.100 A 
BRANCH   5   8
ATOM      8  C   UNL d   1      60.005  -3.227  29.590  0.00  0.00     0.080 C 
ATOM      9  C   UNL d   1      59.945  -3.561  28.835  0.00  0.00     0.021 C 
ENDBRANCH   5   8
ENDBRANCH   1   2
BRANCH   1  10
ATOM     10  C   UNL d   1      58.560  -0.019  30.998  0.00  0.00     0.130 C 
BRANCH  10  11
ATOM     11  N   UNL d   1      57.948  -0.050  31.554  0.00  0.00    -0.155 NA
BRANCH  11  12
ATOM     12  S   UNL d   1      58.043   0.302  32.290  0.00  0.00     0.285 S 
ATOM     13  O   UNL d   1      58.139   0.655  33.029  0.00  0.00    -0.198 OA
ATOM     14  O   UNL d   1      58.802   0.563  32.065  0.00  0.00    -0.198 OA
BRANCH  12  15
ATOM     15  C   UNL d   1      57.284   0.038  32.510  0.00  0.00     0.105 A 
ATOM     16  C   UNL d   1      57.153  -0.756  32.679  0.00  0.00     0.013 A 
ATOM     17  C   UNL d   1      56.403  -1.014  32.896  0.00  0.00     0.001 A 
ATOM     18  C   UNL d   1      55.780  -0.475  32.943  0.00  0.00     0.000 A 
ATOM     19  C   UNL d   1      55.911   0.320  32.773  0.00  0.00     0.001 A 
ATOM     20  C   UNL d   1      55.018  -0.733  33.162  0.00  0.00     0.000 C 
ATOM     21  C   UNL d   1      56.661   0.576  32.557  0.00  0.00     0.013 A 
ENDBRANCH  12  15
ENDBRANCH  11  12
ENDBRANCH  10  11
ENDBRANCH   1  10
BRANCH   1  22
ATOM     22  C   UNL d   1      57.977  -0.024  29.686  0.00  0.00     0.037 A 
ATOM     23  C   UNL d   1      57.155  -0.026  29.786  0.00  0.00     0.100 A 
ATOM     24  N   UNL d   1      56.674   0.327  29.219  0.00  0.00    -0.242 NA
ATOM     25  C   UNL d   1      57.015   0.681  28.552  0.00  0.00     0.099 A 
ATOM     26  C   UNL d   1      57.831   0.680  28.457  0.00  0.00     0.021 A 
ATOM     27  C   UNL d   1      58.312   0.328  29.024  0.00  0.00     0.005 A 
ENDBRANCH   1  22
TORSDOF 7
ENDMDL
MODEL 2
REMARK VINA RESULT:       5.8      1.255      3.935
REMARK  7 active torsions:
REMARK  status: ('A' for Active; 'I' for Inactive)
REMARK    1  A    between atoms: N_3  and  S_1 
REMARK    2  A    between atoms: C_6  and  S_1 
REMARK    3  A    between atoms: N_2  and  C_5 
REMARK    4  A    between atoms: C_4  and  N_3 
REMARK    5  A    between atoms: C_5  and  C_4 
REMARK    6  A    between atoms: C_10  and  C_5 
REMARK    7  A    between atoms: C_22  and  N_7 
ROOT
ATOM      1  C   UNL d   1      58.169   0.184  30.694  0.00  0.00     0.086 C 
ENDROOT
BRANCH   1   2
ATOM      2  N   UNL d   1      57.679  -0.104  31.295  0.00  0.00    -0.300 N 
ATOM      3  C   UNL d   1      57.432  -0.887  31.280  0.00  0.00     0.100 A 
ATOM      4  C   UNL d   1      56.941  -1.180  31.879  0.00  0.00     0.100 A 
ATOM      5  N   UNL d   1      56.701  -0.684  32.491  0.00  0.00    -0.300 N 
ATOM      6  C   UNL d   1      56.953   0.105  32.503  0.00  0.00     0.100 A 
ATOM      7  C   UNL d   1      57.439   0.393  31.907  0.00  0.00     0.100 A 
BRANCH   5   8
ATOM      8  C   UNL d   1      56.210  -0.970  33.094  0.00  0.00     0.080 C 
ATOM      9  C   UNL d   1      55.448  -0.660  33.187  0.00  0.00     0.021 C 
ENDBRANCH   5   8
ENDBRANCH   1   2
BRANCH   1  10
ATOM     10  C   UNL d   1      58.975   0.308  30.839  0.00  0.00     0.130 C 
BRANCH  10  11
ATOM     11  N   UNL d   1      59.537  -0.184  30.482  0.00  0.00    -0.155 NA
BRANCH  11  12
ATOM     12  S   UNL d   1      60.333  -0.098  30.664  0.00  0.00     0.285 S 
ATOM     13  O   UNL d   1      61.133  -0.011  30.847  0.00  0.00    -0.198 OA
ATOM     14  O   UNL d   1      60.143   0.510  31.200  0.00  0.00    -0.198 OA
BRANCH  12  15
ATOM     15  C   UNL d   1      60.518  -0.707  30.126  0.00  0.00     0.105 A 
ATOM     16  C   UNL d   1      60.449  -1.496  30.353  0.00  0.00     0.013 A 
ATOM     17  C   UNL d   1      60.631  -2.094  29.820  0.00  0.00     0.001 A 
ATOM     18  C   UNL d   1      60.884  -1.905  29.058  0.00  0.00     0.000 A 
ATOM     19  C   UNL d   1      60.953  -1.117  28.832  0.00  0.00     0.001 A 
ATOM     20  C   UNL d   1      61.070  -2.511  28.516  0.00  0.00     0.000 C 
ATOM     21  C   UNL d   1      60.770  -0.519  29.364  0.00  0.00     0.013 A 
ENDBRANCH  12  15
ENDBRANCH  11  12
ENDBRANCH  10  11
ENDBRANCH   1  10
BRANCH   1  22
ATOM     22  C   UNL d   1      57.855   0.351  29.943  0.00  0.00     0.037 A 
ATOM     23  C   UNL d   1      57.047   0.514  29.862  0.00  0.00     0.100 A 
ATOM     24  N   UNL d   1      56.735   0.680  29.119  0.00  0.00    -0.242 NA
ATOM     25  C   UNL d   1      57.232   0.682  28.455  0.00  0.00     0.099 A 
ATOM     26  C   UNL d   1      58.033   0.519  28.540  0.00  0.00     0.021 A 
ATOM     27  C   UNL d   1      58.344   0.354  29.283  0.00  0.00     0.005 A 
ENDBRANCH   1  22
TORSDOF 7
ENDMDL
