MODEL 1
REMARK VINA RESULT:      39.1      0.000      0.000
REMARK  3 active torsions:
REMARK  status: ('A' for Active; 'I' for Inactive)
REMARK    1  A    between atoms: C_6  and  N_1 
REMARK    2  A    between atoms: C_2  and  C_8 
REMARK    3  A    between atoms: N_3  and  C_2 
REMARK       I    between atoms: C_5  and  N_4 
ROOT
ATOM      1  C   UNL d   1     -56.024 -99.331 -44.808  0.00  0.00     0.120 C 
ATOM      2  S   UNL d   1     -55.501 -98.756 -45.091  0.00  0.00    -0.059 SA
ENDROOT
BRANCH   1   3
ATOM      3  C   UNL d   1     -55.733-100.030 -44.487  0.00  0.00     0.027 A 
ATOM      4  C   UNL d   1     -55.110-100.009 -43.946  0.00  0.00     0.004 A 
ATOM      5  C   UNL d   1     -54.819-100.714 -43.625  0.00  0.00     0.024 A 
ATOM      6  C   UNL d   1     -55.150-101.435 -43.845  0.00  0.00     0.127 A 
ATOM      7  C   UNL d   1     -55.773-101.456 -44.386  0.00  0.00     0.024 A 
ATOM      8  C   UNL d   1     -56.064-100.755 -44.706  0.00  0.00     0.004 A 
BRANCH   6   9
ATOM      9  N   UNL d   1     -54.859-102.135 -43.523  0.00  0.00    -0.114 N 
ATOM     10  O   UNL d   1     -54.712-102.749 -44.057  0.00  0.00    -0.532 OA
ATOM     11  O   UNL d   1     -54.712-102.248 -42.716  0.00  0.00    -0.532 OA
ENDBRANCH   6   9
ENDBRANCH   1   3
BRANCH   1  12
ATOM     12  N   UNL d   1     -56.836 -99.203 -44.847  0.00  0.00    -0.293 N 
ATOM     13  C   UNL d   1     -57.215 -99.139 -45.583  0.00  0.00     0.100 A 
ATOM     14  C   UNL d   1     -58.027 -99.012 -45.622  0.00  0.00     0.102 A 
ATOM     15  N   UNL d   1     -58.468 -98.948 -44.928  0.00  0.00    -0.269 N 
ATOM     16  C   UNL d   1     -58.091 -99.011 -44.191  0.00  0.00     0.102 A 
ATOM     17  C   UNL d   1     -59.281 -98.820 -44.966  0.00  0.00     0.265 C 
ATOM     18  C   UNL d   1     -57.278 -99.139 -44.153  0.00  0.00     0.100 A 
ATOM     19  O   UNL d   1     -59.723 -98.756 -44.272  0.00  0.00    -0.267 OA
ATOM     20  C   UNL d   1     -59.658 -98.757 -45.697  0.00  0.00     0.066 C 
ENDBRANCH   1  12
TORSDOF 3
ENDMDL
