MODEL 1
REMARK VINA RESULT:      -5.2      0.000      0.000
REMARK  6 active torsions:
REMARK  status: ('A' for Active; 'I' for Inactive)
REMARK    1  A    between atoms: S_2  and  C_1 
REMARK    2  A    between atoms: N_3  and  C_1 
REMARK    3  A    between atoms: C_4  and  C_1 
REMARK    4  A    between atoms: C_6  and  S_2 
REMARK       I    between atoms: C_5  and  N_3 
REMARK    5  A    between atoms: C_9  and  C_5 
REMARK    6  A    between atoms: O_23  and  C_17 
ROOT
ATOM      1  C   UNL d   1      58.450  -0.419  29.535  0.00  0.00     0.193 C 
ENDROOT
BRANCH   1   2
ATOM      2  S   UNL d   1      58.847  -1.107  29.339  0.00  0.00     0.228 S 
ATOM      3  O   UNL d   1      58.188  -1.365  28.905  0.00  0.00    -0.216 OA
ATOM      4  O   UNL d   1      59.509  -0.856  29.770  0.00  0.00    -0.216 OA
BRANCH   2   5
ATOM      5  C   UNL d   1      59.247  -1.811  29.135  0.00  0.00     0.089 A 
ATOM      6  C   UNL d   1      60.051  -1.792  28.987  0.00  0.00     0.011 A 
ATOM      7  C   UNL d   1      60.446  -2.489  28.785  0.00  0.00     0.001 A 
ATOM      8  C   UNL d   1      60.030  -3.199  28.734  0.00  0.00     0.000 A 
ATOM      9  C   UNL d   1      59.218  -3.213  28.885  0.00  0.00     0.001 A 
ATOM     10  C   UNL d   1      60.428  -3.907  28.530  0.00  0.00     0.000 C 
ATOM     11  C   UNL d   1      58.831  -2.521  29.084  0.00  0.00     0.011 A 
ENDBRANCH   2   5
ENDBRANCH   1   2
BRANCH   1  12
ATOM     12  N   UNL d   1      57.843  -0.443  30.095  0.00  0.00    -0.195 NA
ATOM     13  C   UNL d   1      57.902   0.005  30.782  0.00  0.00     0.280 C 
ATOM     14  O   UNL d   1      58.566   0.477  30.913  0.00  0.00    -0.265 OA
BRANCH  13  15
ATOM     15  C   UNL d   1      57.290  -0.020  31.344  0.00  0.00     0.058 A 
ATOM     16  C   UNL d   1      56.947   0.680  31.613  0.00  0.00     0.007 A 
ATOM     17  C   UNL d   1      56.339   0.654  32.172  0.00  0.00     0.024 A 
ATOM     18  C   UNL d   1      56.077  -0.071  32.458  0.00  0.00     0.094 A 
ATOM     19  C   UNL d   1      56.421  -0.771  32.188  0.00  0.00     0.024 A 
ATOM     20  C   UNL d   1      57.025  -0.746  31.632  0.00  0.00     0.007 A 
BRANCH  18  21
ATOM     21  O   UNL d   1      55.463  -0.092  33.021  0.00  0.00    -0.328 OA
ATOM     22  C   UNL d   1      55.618   0.101  33.815  0.00  0.00     0.181 C 
ENDBRANCH  18  21
ENDBRANCH  13  15
ENDBRANCH   1  12
BRANCH   1  23
ATOM     23  C   UNL d   1      58.654   0.296  29.178  0.00  0.00     0.144 C 
ATOM     24 CL   UNL d   1      58.162   0.625  28.603  0.00  0.00    -0.068 Cl
ATOM     25 CL   UNL d   1      59.347   0.682  29.394  0.00  0.00    -0.068 Cl
ENDBRANCH   1  23
TORSDOF 6
ENDMDL
MODEL 2
REMARK VINA RESULT:      -4.5      1.065      4.600
REMARK  6 active torsions:
REMARK  status: ('A' for Active; 'I' for Inactive)
REMARK    1  A    between atoms: S_2  and  C_1 
REMARK    2  A    between atoms: N_3  and  C_1 
REMARK    3  A    between atoms: C_4  and  C_1 
REMARK    4  A    between atoms: C_6  and  S_2 
REMARK       I    between atoms: C_5  and  N_3 
REMARK    5  A    between atoms: C_9  and  C_5 
REMARK    6  A    between atoms: O_23  and  C_17 
ROOT
ATOM      1  C   UNL d   1      58.103  -0.359  30.388  0.00  0.00     0.193 C 
ENDROOT
BRANCH   1   2
ATOM      2  S   UNL d   1      57.564  -0.339  31.003  0.00  0.00     0.228 S 
ATOM      3  O   UNL d   1      57.000  -0.715  30.524  0.00  0.00    -0.216 OA
ATOM      4  O   UNL d   1      58.122   0.037  31.488  0.00  0.00    -0.216 OA
BRANCH   2   5
ATOM      5  C   UNL d   1      57.010  -0.321  31.628  0.00  0.00     0.089 A 
ATOM      6  C   UNL d   1      56.808   0.393  31.971  0.00  0.00     0.011 A 
ATOM      7  C   UNL d   1      56.260   0.409  32.588  0.00  0.00     0.001 A 
ATOM      8  C   UNL d   1      55.920  -0.293  32.857  0.00  0.00     0.000 A 
ATOM      9  C   UNL d   1      56.127  -1.011  32.508  0.00  0.00     0.001 A 
ATOM     10  C   UNL d   1      55.364  -0.278  33.483  0.00  0.00     0.000 C 
ATOM     11  C   UNL d   1      56.670  -1.023  31.896  0.00  0.00     0.011 A 
ENDBRANCH   2   5
ENDBRANCH   1   2
BRANCH   1  12
ATOM     12  N   UNL d   1      58.451  -1.076  30.172  0.00  0.00    -0.195 NA
ATOM     13  C   UNL d   1      58.589  -1.242  29.379  0.00  0.00     0.280 C 
ATOM     14  O   UNL d   1      58.380  -0.694  28.799  0.00  0.00    -0.265 OA
BRANCH  13  15
ATOM     15  C   UNL d   1      58.940  -1.964  29.164  0.00  0.00     0.058 A 
ATOM     16  C   UNL d   1      59.759  -2.053  29.202  0.00  0.00     0.007 A 
ATOM     17  C   UNL d   1      60.107  -2.771  28.988  0.00  0.00     0.024 A 
ATOM     18  C   UNL d   1      59.634  -3.396  28.737  0.00  0.00     0.094 A 
ATOM     19  C   UNL d   1      58.815  -3.306  28.699  0.00  0.00     0.024 A 
ATOM     20  C   UNL d   1      58.468  -2.592  28.912  0.00  0.00     0.007 A 
BRANCH  18  21
ATOM     21  O   UNL d   1      59.990  -4.118  28.522  0.00  0.00    -0.328 OA
ATOM     22  C   UNL d   1      60.818  -4.182  28.486  0.00  0.00     0.181 C 
ENDBRANCH  18  21
ENDBRANCH  13  15
ENDBRANCH   1  12
BRANCH   1  23
ATOM     23  C   UNL d   1      58.298   0.333  29.983  0.00  0.00     0.144 C 
ATOM     24 CL   UNL d   1      57.753   0.678  29.469  0.00  0.00    -0.068 Cl
ATOM     25 CL   UNL d   1      59.036   0.679  30.091  0.00  0.00    -0.068 Cl
ENDBRANCH   1  23
TORSDOF 6
ENDMDL
