MODEL 1
REMARK VINA RESULT:      -4.0      0.000      0.000
REMARK  3 active torsions:
REMARK  status: ('A' for Active; 'I' for Inactive)
REMARK    1  A    between atoms: C_9  and  C_1 
REMARK    2  A    between atoms: C_4  and  C_9 
REMARK       I    between atoms: N_5  and  C_4 
REMARK    3  A    between atoms: C_10  and  N_8 
ROOT
ATOM      1  C   UNL d   1      56.544  -0.144  32.525  0.00  0.00     0.265 C 
ATOM      2  N   UNL d   1      57.061  -0.124  31.881  0.00  0.00    -0.269 N 
ATOM      3  N   UNL d   1      58.107  -0.073  30.587  0.00  0.00    -0.299 N 
ATOM      4  C   UNL d   1      57.526   0.559  31.748  0.00  0.00     0.102 A 
ATOM      5  C   UNL d   1      57.121  -0.763  31.377  0.00  0.00     0.102 A 
ATOM      6  C   UNL d   1      57.640  -0.735  30.737  0.00  0.00     0.100 A 
ATOM      7  C   UNL d   1      58.045   0.587  31.108  0.00  0.00     0.100 A 
ATOM      8  O   UNL d   1      56.085  -0.815  32.658  0.00  0.00    -0.267 OA
ENDROOT
BRANCH   1   9
ATOM      9  C   UNL d   1      56.482   0.506  33.039  0.00  0.00     0.063 C 
BRANCH   9  10
ATOM     10  C   UNL d   1      55.840   0.554  33.561  0.00  0.00     0.024 A 
ATOM     11  C   UNL d   1      55.053   0.571  33.340  0.00  0.00     0.080 A 
ATOM     12  N   UNL d   1      54.596   0.621  34.028  0.00  0.00    -0.303 N 
ATOM     13  C   UNL d   1      53.775   0.652  34.073  0.00  0.00     0.100 C 
ATOM     14  C   UNL d   1      55.114   0.634  34.667  0.00  0.00     0.064 A 
ATOM     15  C   UNL d   1      55.875   0.593  34.376  0.00  0.00     0.018 A 
ATOM     16  C   UNL d   1      54.978   0.679  35.484  0.00  0.00     0.018 A 
ATOM     17  C   UNL d   1      56.514   0.596  34.899  0.00  0.00     0.002 A 
ATOM     18  C   UNL d   1      56.384   0.640  35.705  0.00  0.00     0.000 A 
ATOM     19  C   UNL d   1      55.615   0.682  36.001  0.00  0.00     0.002 A 
ENDBRANCH   9  10
ENDBRANCH   1   9
BRANCH   3  20
ATOM     20  C   UNL d   1      58.620  -0.040  29.957  0.00  0.00     0.092 A 
ATOM     21  C   UNL d   1      58.390   0.314  29.245  0.00  0.00     0.156 A 
ATOM     22  F   UNL d   1      57.640   0.632  29.178  0.00  0.00    -0.203 F 
ATOM     23  C   UNL d   1      58.920   0.342  28.610  0.00  0.00     0.031 A 
ATOM     24  C   UNL d   1      59.677   0.015  28.693  0.00  0.00     0.002 A 
ATOM     25  C   UNL d   1      59.900  -0.334  29.397  0.00  0.00     0.002 A 
ATOM     26  C   UNL d   1      59.369  -0.360  30.029  0.00  0.00     0.020 A 
ENDBRANCH   3  20
TORSDOF 3
ENDMDL
