MODEL 1
REMARK VINA RESULT:      -8.2      0.000      0.000
REMARK  4 active torsions:
REMARK  status: ('A' for Active; 'I' for Inactive)
REMARK    1  A    between atoms: N_4  and  S_1 
REMARK    2  A    between atoms: C_6  and  S_1 
REMARK    3  A    between atoms: N_3  and  C_2 
REMARK    4  A    between atoms: C_7  and  N_4 
ROOT
ATOM      1  S   UNL d   1     -49.051  12.428  22.912  0.00  0.00     0.285 S 
ATOM      2  O   UNL d   1     -48.819  12.552  22.103  0.00  0.00    -0.198 OA
ATOM      3  O   UNL d   1     -49.316  12.319  23.698  0.00  0.00    -0.198 OA
ENDROOT
BRANCH   1   4
ATOM      4  N   UNL d   1     -49.837  12.688  22.713  0.00  0.00    -0.158 NA
BRANCH   4   5
ATOM      5  C   UNL d   1     -50.061  13.488  22.834  0.00  0.00     0.094 A 
ATOM      6  C   UNL d   1     -49.985  14.021  22.194  0.00  0.00     0.023 A 
ATOM      7  C   UNL d   1     -50.210  14.822  22.315  0.00  0.00     0.044 A 
ATOM      8  C   UNL d   1     -50.497  15.043  23.068  0.00  0.00     0.196 A 
ATOM      9  C   UNL d   1     -50.568  14.515  23.687  0.00  0.00     0.044 A 
ATOM     10  O   UNL d   1     -50.723  15.849  23.190  0.00  0.00    -0.287 OA
ATOM     11  C   UNL d   1     -50.343  13.714  23.566  0.00  0.00     0.023 A 
ENDBRANCH   4   5
ENDBRANCH   1   4
BRANCH   1  12
ATOM     12  C   UNL d   1     -48.287  12.174  23.111  0.00  0.00     0.107 A 
ATOM     13  C   UNL d   1     -47.659  12.700  23.017  0.00  0.00     0.037 A 
ATOM     14  C   UNL d   1     -46.901  12.445  23.216  0.00  0.00     0.138 A 
ATOM     15  C   UNL d   1     -46.775  11.693  23.498  0.00  0.00     0.080 A 
ATOM     16  C   UNL d   1     -47.403  11.166  23.592  0.00  0.00     0.014 A 
ATOM     17 CL   UNL d   1     -46.005  11.440  23.697  0.00  0.00    -0.081 Cl
ATOM     18  C   UNL d   1     -48.161  11.422  23.393  0.00  0.00     0.014 A 
BRANCH  14  19
ATOM     19  N   UNL d   1     -46.261  12.973  23.122  0.00  0.00    -0.113 N 
ATOM     20  O   UNL d   1     -45.705  12.853  22.527  0.00  0.00    -0.532 OA
ATOM     21  O   UNL d   1     -46.180  13.611  23.616  0.00  0.00    -0.532 OA
ENDBRANCH  14  19
ENDBRANCH   1  12
TORSDOF 4
ENDMDL
MODEL 2
REMARK VINA RESULT:      -7.6      1.918      4.285
REMARK  4 active torsions:
REMARK  status: ('A' for Active; 'I' for Inactive)
REMARK    1  A    between atoms: N_4  and  S_1 
REMARK    2  A    between atoms: C_6  and  S_1 
REMARK    3  A    between atoms: N_3  and  C_2 
REMARK    4  A    between atoms: C_7  and  N_4 
ROOT
ATOM      1  S   UNL d   1     -47.947  13.689  22.960  0.00  0.00     0.285 S 
ATOM      2  O   UNL d   1     -48.158  12.922  23.261  0.00  0.00    -0.198 OA
ATOM      3  O   UNL d   1     -47.703  14.440  22.684  0.00  0.00    -0.198 OA
ENDROOT
BRANCH   1   4
ATOM      4  N   UNL d   1     -47.208  13.636  23.380  0.00  0.00    -0.158 NA
BRANCH   4   5
ATOM      5  C   UNL d   1     -46.510  13.393  22.980  0.00  0.00     0.094 A 
ATOM      6  C   UNL d   1     -46.310  12.582  22.991  0.00  0.00     0.023 A 
ATOM      7  C   UNL d   1     -45.611  12.339  22.591  0.00  0.00     0.044 A 
ATOM      8  C   UNL d   1     -45.155  12.922  22.204  0.00  0.00     0.196 A 
ATOM      9  C   UNL d   1     -45.359  13.712  22.199  0.00  0.00     0.044 A 
ATOM     10  O   UNL d   1     -44.452  12.678  21.801  0.00  0.00    -0.287 OA
ATOM     11  C   UNL d   1     -46.057  13.955  22.599  0.00  0.00     0.023 A 
ENDBRANCH   4   5
ENDBRANCH   1   4
BRANCH   1  12
ATOM     12  C   UNL d   1     -48.665  13.745  22.549  0.00  0.00     0.107 A 
ATOM     13  C   UNL d   1     -49.256  14.232  22.852  0.00  0.00     0.037 A 
ATOM     14  C   UNL d   1     -49.969  14.286  22.442  0.00  0.00     0.138 A 
ATOM     15  C   UNL d   1     -50.085  13.869  21.753  0.00  0.00     0.080 A 
ATOM     16  C   UNL d   1     -49.494  13.382  21.449  0.00  0.00     0.014 A 
ATOM     17 CL   UNL d   1     -50.809  13.928  21.341  0.00  0.00    -0.081 Cl
ATOM     18  C   UNL d   1     -48.781  13.329  21.860  0.00  0.00     0.014 A 
BRANCH  14  19
ATOM     19  N   UNL d   1     -50.572  14.778  22.744  0.00  0.00    -0.113 N 
ATOM     20  O   UNL d   1     -50.673  15.541  22.451  0.00  0.00    -0.532 OA
ATOM     21  O   UNL d   1     -51.064  14.511  23.330  0.00  0.00    -0.532 OA
ENDBRANCH  14  19
ENDBRANCH   1  12
TORSDOF 4
ENDMDL
MODEL 3
REMARK VINA RESULT:      -6.0      9.042     10.297
REMARK  4 active torsions:
REMARK  status: ('A' for Active; 'I' for Inactive)
REMARK    1  A    between atoms: N_4  and  S_1 
REMARK    2  A    between atoms: C_6  and  S_1 
REMARK    3  A    between atoms: N_3  and  C_2 
REMARK    4  A    between atoms: C_7  and  N_4 
ROOT
ATOM      1  S   UNL d   1     -40.250  14.744  18.384  0.00  0.00     0.285 S 
ATOM      2  O   UNL d   1     -40.723  14.039  18.431  0.00  0.00    -0.198 OA
ATOM      3  O   UNL d   1     -39.810  15.456  18.366  0.00  0.00    -0.198 OA
ENDROOT
BRANCH   1   4
ATOM      4  N   UNL d   1     -40.777  15.119  18.939  0.00  0.00    -0.158 NA
BRANCH   4   5
ATOM      5  C   UNL d   1     -40.556  15.197  19.746  0.00  0.00     0.094 A 
ATOM      6  C   UNL d   1     -40.804  14.607  20.283  0.00  0.00     0.023 A 
ATOM      7  C   UNL d   1     -40.583  14.686  21.090  0.00  0.00     0.044 A 
ATOM      8  C   UNL d   1     -40.128  15.351  21.312  0.00  0.00     0.196 A 
ATOM      9  C   UNL d   1     -39.890  15.922  20.780  0.00  0.00     0.044 A 
ATOM     10  O   UNL d   1     -39.905  15.430  22.124  0.00  0.00    -0.287 OA
ATOM     11  C   UNL d   1     -40.111  15.843  19.972  0.00  0.00     0.023 A 
ENDBRANCH   4   5
ENDBRANCH   1   4
BRANCH   1  12
ATOM     12  C   UNL d   1     -39.733  14.384  17.844  0.00  0.00     0.107 A 
ATOM     13  C   UNL d   1     -39.373  13.674  18.056  0.00  0.00     0.037 A 
ATOM     14  C   UNL d   1     -38.861  13.318  17.517  0.00  0.00     0.138 A 
ATOM     15  C   UNL d   1     -38.714  13.660  16.795  0.00  0.00     0.080 A 
ATOM     16  C   UNL d   1     -39.073  14.371  16.582  0.00  0.00     0.014 A 
ATOM     17 CL   UNL d   1     -38.193  13.296  16.252  0.00  0.00    -0.081 Cl
ATOM     18  C   UNL d   1     -39.586  14.726  17.122  0.00  0.00     0.014 A 
BRANCH  14  19
ATOM     19  N   UNL d   1     -38.493  12.599  17.726  0.00  0.00    -0.113 N 
ATOM     20  O   UNL d   1     -37.940  12.575  18.336  0.00  0.00    -0.532 OA
ATOM     21  O   UNL d   1     -38.676  11.914  17.332  0.00  0.00    -0.532 OA
ENDBRANCH  14  19
ENDBRANCH   1  12
TORSDOF 4
ENDMDL
MODEL 4
REMARK VINA RESULT:      -5.9      9.039     10.277
REMARK  4 active torsions:
REMARK  status: ('A' for Active; 'I' for Inactive)
REMARK    1  A    between atoms: N_4  and  S_1 
REMARK    2  A    between atoms: C_6  and  S_1 
REMARK    3  A    between atoms: N_3  and  C_2 
REMARK    4  A    between atoms: C_7  and  N_4 
ROOT
ATOM      1  S   UNL d   1     -40.555  14.756  18.692  0.00  0.00     0.285 S 
ATOM      2  O   UNL d   1     -40.408  15.537  18.388  0.00  0.00    -0.198 OA
ATOM      3  O   UNL d   1     -40.704  13.975  18.953  0.00  0.00    -0.198 OA
ENDROOT
BRANCH   1   4
ATOM      4  N   UNL d   1     -40.653  14.477  17.893  0.00  0.00    -0.158 NA
BRANCH   4   5
ATOM      5  C   UNL d   1     -39.982  14.354  17.403  0.00  0.00     0.094 A 
ATOM      6  C   UNL d   1     -39.763  14.962  16.873  0.00  0.00     0.023 A 
ATOM      7  C   UNL d   1     -39.091  14.838  16.382  0.00  0.00     0.044 A 
ATOM      8  C   UNL d   1     -38.680  14.115  16.451  0.00  0.00     0.196 A 
ATOM      9  C   UNL d   1     -38.902  13.527  16.971  0.00  0.00     0.044 A 
ATOM     10  O   UNL d   1     -38.004  13.990  15.957  0.00  0.00    -0.287 OA
ATOM     11  C   UNL d   1     -39.574  13.650  17.462  0.00  0.00     0.023 A 
ENDBRANCH   4   5
ENDBRANCH   1   4
BRANCH   1  12
ATOM     12  C   UNL d   1     -40.460  15.022  19.472  0.00  0.00     0.107 A 
ATOM     13  C   UNL d   1     -39.921  14.634  19.959  0.00  0.00     0.037 A 
ATOM     14  C   UNL d   1     -39.829  14.901  20.733  0.00  0.00     0.138 A 
ATOM     15  C   UNL d   1     -40.260  15.532  21.010  0.00  0.00     0.080 A 
ATOM     16  C   UNL d   1     -40.800  15.921  20.523  0.00  0.00     0.014 A 
ATOM     17 CL   UNL d   1     -40.163  15.799  21.795  0.00  0.00    -0.081 Cl
ATOM     18  C   UNL d   1     -40.891  15.654  19.749  0.00  0.00     0.014 A 
BRANCH  14  19
ATOM     19  N   UNL d   1     -39.284  14.512  21.231  0.00  0.00    -0.113 N 
ATOM     20  O   UNL d   1     -38.480  14.689  21.189  0.00  0.00    -0.532 OA
ATOM     21  O   UNL d   1     -39.537  13.955  21.763  0.00  0.00    -0.532 OA
ENDBRANCH  14  19
ENDBRANCH   1  12
TORSDOF 4
ENDMDL
