MODEL 1
REMARK VINA RESULT:      -7.5      0.000      0.000
REMARK  7 active torsions:
REMARK  status: ('A' for Active; 'I' for Inactive)
REMARK    1  A    between atoms: S_9  and  C_2 
REMARK    2  A    between atoms: C_6  and  C_8 
REMARK       I    between atoms: N_7  and  C_6 
REMARK    3  A    between atoms: C_11  and  N_7 
REMARK    4  A    between atoms: C_8  and  C_12 
REMARK    5  A    between atoms: C_12  and  S_9 
REMARK    6  A    between atoms: O_18  and  C_13 
REMARK    7  A    between atoms: C_20  and  O_18 
ROOT
ATOM      1  C   UNL d   1      53.660  33.196  53.745  0.00  0.00     0.280 C 
ATOM      2  N   UNL d   1      53.291  33.934  53.715  0.00  0.00    -0.208 NA
ATOM      3  O   UNL d   1      54.412  33.123  54.085  0.00  0.00    -0.265 OA
ENDROOT
BRANCH   1   4
ATOM      4  C   UNL d   1      53.280  32.531  53.436  0.00  0.00     0.070 C 
BRANCH   4   5
ATOM      5  C   UNL d   1      53.558  31.775  53.617  0.00  0.00     0.042 C 
BRANCH   5   6
ATOM      6  S   UNL d   1      53.354  31.127  53.131  0.00  0.00    -0.059 SA
BRANCH   6   7
ATOM      7  C   UNL d   1      53.223  30.384  53.466  0.00  0.00     0.164 A 
ATOM      8  S   UNL d   1      53.635  29.952  54.035  0.00  0.00    -0.039 SA
ATOM      9  C   UNL d   1      53.245  29.241  54.153  0.00  0.00     0.134 A 
ATOM     10  N   UNL d   1      52.582  29.220  53.657  0.00  0.00    -0.140 NA
ATOM     11  C   UNL d   1      53.476  28.639  54.683  0.00  0.00     0.030 C 
ATOM     12  N   UNL d   1      52.573  29.936  53.231  0.00  0.00    -0.134 NA
ENDBRANCH   6   7
ENDBRANCH   5   6
ENDBRANCH   4   5
ENDBRANCH   1   4
BRANCH   2  13
ATOM     13  C   UNL d   1      52.532  34.012  53.373  0.00  0.00     0.085 A 
ATOM     14  C   UNL d   1      52.461  34.251  52.585  0.00  0.00     0.021 A 
ATOM     15  C   UNL d   1      51.716  34.330  52.242  0.00  0.00     0.026 A 
ATOM     16  C   UNL d   1      51.039  34.170  52.688  0.00  0.00     0.100 A 
ATOM     17  C   UNL d   1      51.110  33.931  53.476  0.00  0.00     0.026 A 
ATOM     18  C   UNL d   1      51.857  33.852  53.819  0.00  0.00     0.021 A 
BRANCH  16  19
ATOM     19  O   UNL d   1      50.280  34.251  52.334  0.00  0.00    -0.305 OA
BRANCH  19  20
ATOM     20  C   UNL d   1      49.722  34.767  52.662  0.00  0.00     0.123 C 
ATOM     21  C   UNL d   1      49.025  34.931  52.253  0.00  0.00     0.029 C 
ENDBRANCH  19  20
ENDBRANCH  16  19
ENDBRANCH   2  13
TORSDOF 7
ENDMDL
MODEL 2
REMARK VINA RESULT:      -7.2      2.286      4.700
REMARK  7 active torsions:
REMARK  status: ('A' for Active; 'I' for Inactive)
REMARK    1  A    between atoms: S_9  and  C_2 
REMARK    2  A    between atoms: C_6  and  C_8 
REMARK       I    between atoms: N_7  and  C_6 
REMARK    3  A    between atoms: C_11  and  N_7 
REMARK    4  A    between atoms: C_8  and  C_12 
REMARK    5  A    between atoms: C_12  and  S_9 
REMARK    6  A    between atoms: O_18  and  C_13 
REMARK    7  A    between atoms: C_20  and  O_18 
ROOT
ATOM      1  C   UNL d   1      52.911  34.600  53.731  0.00  0.00     0.280 C 
ATOM      2  N   UNL d   1      53.622  34.242  53.948  0.00  0.00    -0.208 NA
ATOM      3  O   UNL d   1      52.844  35.426  53.744  0.00  0.00    -0.265 OA
ENDROOT
BRANCH   1   4
ATOM      4  C   UNL d   1      52.267  34.137  53.502  0.00  0.00     0.070 C 
BRANCH   4   5
ATOM      5  C   UNL d   1      51.584  34.495  53.206  0.00  0.00     0.042 C 
BRANCH   5   6
ATOM      6  S   UNL d   1      50.861  34.078  53.201  0.00  0.00    -0.059 SA
BRANCH   6   7
ATOM      7  C   UNL d   1      50.228  34.354  52.750  0.00  0.00     0.164 A 
ATOM      8  S   UNL d   1      50.009  34.227  51.965  0.00  0.00    -0.039 SA
ATOM      9  C   UNL d   1      49.321  34.648  51.817  0.00  0.00     0.134 A 
ATOM     10  N   UNL d   1      49.101  35.044  52.510  0.00  0.00    -0.140 NA
ATOM     11  C   UNL d   1      48.911  34.673  51.090  0.00  0.00     0.030 C 
ATOM     12  N   UNL d   1      49.670  34.858  53.089  0.00  0.00    -0.134 NA
ENDBRANCH   6   7
ENDBRANCH   5   6
ENDBRANCH   4   5
ENDBRANCH   1   4
BRANCH   2  13
ATOM     13  C   UNL d   1      53.694  33.408  53.937  0.00  0.00     0.085 A 
ATOM     14  C   UNL d   1      53.589  32.980  54.635  0.00  0.00     0.021 A 
ATOM     15  C   UNL d   1      53.659  32.158  54.631  0.00  0.00     0.026 A 
ATOM     16  C   UNL d   1      53.835  31.765  53.926  0.00  0.00     0.100 A 
ATOM     17  C   UNL d   1      53.940  32.194  53.228  0.00  0.00     0.026 A 
ATOM     18  C   UNL d   1      53.870  33.017  53.233  0.00  0.00     0.021 A 
BRANCH  16  19
ATOM     19  O   UNL d   1      53.905  30.926  53.925  0.00  0.00    -0.305 OA
BRANCH  19  20
ATOM     20  C   UNL d   1      53.307  30.459  53.596  0.00  0.00     0.123 C 
ATOM     21  C   UNL d   1      53.304  29.645  53.726  0.00  0.00     0.029 C 
ENDBRANCH  19  20
ENDBRANCH  16  19
ENDBRANCH   2  13
TORSDOF 7
ENDMDL
