MODEL 1
REMARK VINA RESULT:      -2.6      0.000      0.000
REMARK  5 active torsions:
REMARK  status: ('A' for Active; 'I' for Inactive)
REMARK    1  A    between atoms: C_2  and  C_1 
REMARK    2  A    between atoms: C_3  and  C_1 
REMARK    3  A    between atoms: C_4  and  C_1 
REMARK    4  A    between atoms: C_5  and  C_2 
REMARK    5  A    between atoms: C_13  and  C_5 
ROOT
ATOM      1  C   UNL d   1      58.913  -1.031  29.673  0.00  0.00     0.029 C 
ENDROOT
BRANCH   1   2
ATOM      2  C   UNL d   1      58.554  -0.951  30.409  0.00  0.00     0.044 C 
BRANCH   2   3
ATOM      3  C   UNL d   1      57.791  -0.652  30.462  0.00  0.00     0.196 C 
ATOM      4  O   UNL d   1      57.465  -0.515  29.912  0.00  0.00    -0.287 OA
BRANCH   3   5
ATOM      5  C   UNL d   1      57.416  -0.515  31.202  0.00  0.00     0.039 A 
ATOM      6  C   UNL d   1      57.587   0.184  31.599  0.00  0.00     0.003 A 
ATOM      7  C   UNL d   1      57.216   0.325  32.336  0.00  0.00     0.000 A 
ATOM      8  C   UNL d   1      56.690  -0.229  32.655  0.00  0.00     0.000 A 
ATOM      9  C   UNL d   1      56.540  -0.916  32.236  0.00  0.00     0.000 A 
ATOM     10  C   UNL d   1      56.894  -1.065  31.518  0.00  0.00     0.003 A 
ENDBRANCH   3   5
ENDBRANCH   2   3
ENDBRANCH   1   2
BRANCH   1  11
ATOM     11  C   UNL d   1      59.185  -0.359  29.272  0.00  0.00     0.100 A 
ATOM     12  O   UNL d   1      59.841   0.048  29.554  0.00  0.00    -0.305 OA
ATOM     13  C   UNL d   1      59.977   0.682  29.046  0.00  0.00     0.123 A 
ATOM     14  C   UNL d   1      59.403   0.659  28.455  0.00  0.00     0.029 A 
ATOM     15  C   UNL d   1      58.918   0.024  28.590  0.00  0.00     0.027 A 
ENDBRANCH   1  11
BRANCH   1  16
ATOM     16  C   UNL d   1      58.998  -1.788  29.343  0.00  0.00     0.041 A 
ATOM     17  C   UNL d   1      59.634  -2.271  29.550  0.00  0.00     0.196 A 
ATOM     18  O   UNL d   1      60.205  -2.013  30.094  0.00  0.00    -0.287 OA
ATOM     19  C   UNL d   1      59.703  -3.032  29.206  0.00  0.00     0.042 A 
ATOM     20  C   UNL d   1      59.141  -3.297  28.666  0.00  0.00     0.003 A 
ATOM     21  C   UNL d   1      58.505  -2.814  28.459  0.00  0.00     0.000 A 
ATOM     22  C   UNL d   1      58.431  -2.066  28.792  0.00  0.00     0.003 A 
ENDBRANCH   1  16
TORSDOF 5
ENDMDL
MODEL 2
REMARK VINA RESULT:       0.2      1.276      2.184
REMARK  5 active torsions:
REMARK  status: ('A' for Active; 'I' for Inactive)
REMARK    1  A    between atoms: C_2  and  C_1 
REMARK    2  A    between atoms: C_3  and  C_1 
REMARK    3  A    between atoms: C_4  and  C_1 
REMARK    4  A    between atoms: C_5  and  C_2 
REMARK    5  A    between atoms: C_13  and  C_5 
ROOT
ATOM      1  C   UNL d   1      58.119  -0.035  30.772  0.00  0.00     0.029 C 
ENDROOT
BRANCH   1   2
ATOM      2  C   UNL d   1      57.362   0.060  31.078  0.00  0.00     0.044 C 
BRANCH   2   3
ATOM      3  C   UNL d   1      57.022  -0.540  31.523  0.00  0.00     0.196 C 
ATOM      4  O   UNL d   1      57.221  -1.155  31.431  0.00  0.00    -0.287 OA
BRANCH   3   5
ATOM      5  C   UNL d   1      56.424  -0.388  32.095  0.00  0.00     0.039 A 
ATOM      6  C   UNL d   1      56.052   0.345  32.081  0.00  0.00     0.003 A 
ATOM      7  C   UNL d   1      55.457   0.502  32.648  0.00  0.00     0.000 A 
ATOM      8  C   UNL d   1      55.249  -0.070  33.209  0.00  0.00     0.000 A 
ATOM      9  C   UNL d   1      55.638  -0.791  33.198  0.00  0.00     0.000 A 
ATOM     10  C   UNL d   1      56.218  -0.957  32.652  0.00  0.00     0.003 A 
ENDBRANCH   3   5
ENDBRANCH   2   3
ENDBRANCH   1   2
BRANCH   1  11
ATOM     11  C   UNL d   1      58.773   0.245  31.195  0.00  0.00     0.100 A 
ATOM     12  O   UNL d   1      59.480   0.395  30.803  0.00  0.00    -0.305 OA
ATOM     13  C   UNL d   1      60.022   0.665  31.362  0.00  0.00     0.123 A 
ATOM     14  C   UNL d   1      59.643   0.679  32.094  0.00  0.00     0.029 A 
ATOM     15  C   UNL d   1      58.881   0.423  31.996  0.00  0.00     0.027 A 
ENDBRANCH   1  11
BRANCH   1  16
ATOM     16  C   UNL d   1      58.216  -0.414  30.040  0.00  0.00     0.041 A 
ATOM     17  C   UNL d   1      57.948  -0.062  29.343  0.00  0.00     0.196 A 
ATOM     18  O   UNL d   1      57.575   0.679  29.356  0.00  0.00    -0.287 OA
ATOM     19  C   UNL d   1      58.055  -0.459  28.613  0.00  0.00     0.042 A 
ATOM     20  C   UNL d   1      58.424  -1.194  28.589  0.00  0.00     0.003 A 
ATOM     21  C   UNL d   1      58.692  -1.546  29.285  0.00  0.00     0.000 A 
ATOM     22  C   UNL d   1      58.591  -1.162  30.006  0.00  0.00     0.003 A 
ENDBRANCH   1  16
TORSDOF 5
ENDMDL
