MODEL 1
REMARK VINA RESULT:      -8.1      0.000      0.000
REMARK  2 active torsions:
REMARK  status: ('A' for Active; 'I' for Inactive)
REMARK    1  A    between atoms: C_7  and  C_3 
REMARK    2  A    between atoms: N_9  and  C_8 
ROOT
ATOM      1  N   UNL d   1     -48.523  14.035  23.136  0.00  0.00    -0.227 NA
ATOM      2  N   UNL d   1     -48.986  13.083  22.192  0.00  0.00    -0.227 NA
ATOM      3  C   UNL d   1     -48.400  13.337  22.726  0.00  0.00     0.162 A 
ATOM      4  C   UNL d   1     -49.668  13.538  22.092  0.00  0.00     0.085 A 
ATOM      5  C   UNL d   1     -49.211  14.499  23.039  0.00  0.00     0.085 A 
ATOM      6  C   UNL d   1     -49.786  14.249  22.514  0.00  0.00     0.035 A 
ATOM      7  C   UNL d   1     -50.484  14.698  22.400  0.00  0.00     0.003 A 
ATOM      8  C   UNL d   1     -50.264  13.279  21.548  0.00  0.00     0.019 A 
ATOM      9  C   UNL d   1     -49.323  15.202  23.459  0.00  0.00     0.019 A 
ATOM     10  C   UNL d   1     -50.010  15.663  23.361  0.00  0.00     0.002 A 
ATOM     11  C   UNL d   1     -50.952  13.743  21.451  0.00  0.00     0.002 A 
ATOM     12  C   UNL d   1     -50.585  15.413  22.836  0.00  0.00     0.000 A 
ATOM     13  C   UNL d   1     -51.064  14.446  21.871  0.00  0.00     0.000 A 
ENDROOT
BRANCH   3  14
ATOM     14  C   UNL d   1     -47.713  12.915  22.852  0.00  0.00     0.036 A 
ATOM     15  C   UNL d   1     -47.714  12.257  23.346  0.00  0.00     0.004 A 
ATOM     16  C   UNL d   1     -47.024  11.829  23.476  0.00  0.00     0.018 A 
ATOM     17  C   UNL d   1     -46.328  12.051  23.115  0.00  0.00     0.064 A 
ATOM     18  C   UNL d   1     -46.318  12.713  22.616  0.00  0.00     0.018 A 
ATOM     19  C   UNL d   1     -47.008  13.134  22.492  0.00  0.00     0.004 A 
BRANCH  17  20
ATOM     20  N   UNL d   1     -45.638  11.623  23.245  0.00  0.00    -0.301 N 
ATOM     21  C   UNL d   1     -45.654  10.938  23.696  0.00  0.00     0.100 C 
ATOM     22  C   UNL d   1     -44.933  11.884  22.920  0.00  0.00     0.100 C 
ENDBRANCH  17  20
ENDBRANCH   3  14
TORSDOF 2
ENDMDL
MODEL 2
REMARK VINA RESULT:      -7.9      1.205      1.814
REMARK  2 active torsions:
REMARK  status: ('A' for Active; 'I' for Inactive)
REMARK    1  A    between atoms: C_7  and  C_3 
REMARK    2  A    between atoms: N_9  and  C_8 
ROOT
ATOM      1  N   UNL d   1     -48.683  13.055  23.118  0.00  0.00    -0.227 NA
ATOM      2  N   UNL d   1     -48.413  14.437  22.938  0.00  0.00    -0.227 NA
ATOM      3  C   UNL d   1     -48.148  13.647  22.932  0.00  0.00     0.162 A 
ATOM      4  C   UNL d   1     -49.200  14.599  23.129  0.00  0.00     0.085 A 
ATOM      5  C   UNL d   1     -49.480  13.214  23.311  0.00  0.00     0.085 A 
ATOM      6  C   UNL d   1     -49.740  13.989  23.317  0.00  0.00     0.035 A 
ATOM      7  C   UNL d   1     -50.534  14.172  23.508  0.00  0.00     0.003 A 
ATOM      8  C   UNL d   1     -49.470  15.402  23.135  0.00  0.00     0.019 A 
ATOM      9  C   UNL d   1     -50.010  12.607  23.497  0.00  0.00     0.019 A 
ATOM     10  C   UNL d   1     -50.804  12.767  23.690  0.00  0.00     0.002 A 
ATOM     11  C   UNL d   1     -50.267  15.560  23.328  0.00  0.00     0.002 A 
ATOM     12  C   UNL d   1     -51.064  13.542  23.696  0.00  0.00     0.000 A 
ATOM     13  C   UNL d   1     -50.797  14.954  23.514  0.00  0.00     0.000 A 
ENDROOT
BRANCH   3  14
ATOM     14  C   UNL d   1     -47.379  13.448  22.749  0.00  0.00     0.036 A 
ATOM     15  C   UNL d   1     -46.776  13.566  23.297  0.00  0.00     0.004 A 
ATOM     16  C   UNL d   1     -45.999  13.366  23.116  0.00  0.00     0.018 A 
ATOM     17  C   UNL d   1     -45.815  13.048  22.389  0.00  0.00     0.064 A 
ATOM     18  C   UNL d   1     -46.415  12.926  21.831  0.00  0.00     0.018 A 
ATOM     19  C   UNL d   1     -47.185  13.127  22.018  0.00  0.00     0.004 A 
BRANCH  17  20
ATOM     20  N   UNL d   1     -45.038  12.848  22.208  0.00  0.00    -0.301 N 
ATOM     21  C   UNL d   1     -44.590  13.330  21.716  0.00  0.00     0.100 C 
ATOM     22  C   UNL d   1     -44.712  12.165  22.522  0.00  0.00     0.100 C 
ENDBRANCH  17  20
ENDBRANCH   3  14
TORSDOF 2
ENDMDL
MODEL 3
REMARK VINA RESULT:      -6.1      8.621     10.570
REMARK  2 active torsions:
REMARK  status: ('A' for Active; 'I' for Inactive)
REMARK    1  A    between atoms: C_7  and  C_3 
REMARK    2  A    between atoms: N_9  and  C_8 
ROOT
ATOM      1  N   UNL d   1     -38.830  14.395  19.433  0.00  0.00    -0.227 NA
ATOM      2  N   UNL d   1     -39.824  15.335  19.055  0.00  0.00    -0.227 NA
ATOM      3  C   UNL d   1     -39.193  14.833  18.844  0.00  0.00     0.162 A 
ATOM      4  C   UNL d   1     -40.063  15.375  19.845  0.00  0.00     0.085 A 
ATOM      5  C   UNL d   1     -39.068  14.432  20.233  0.00  0.00     0.085 A 
ATOM      6  C   UNL d   1     -39.687  14.924  20.440  0.00  0.00     0.035 A 
ATOM      7  C   UNL d   1     -39.943  14.977  21.236  0.00  0.00     0.003 A 
ATOM      8  C   UNL d   1     -40.704  15.885  20.060  0.00  0.00     0.019 A 
ATOM      9  C   UNL d   1     -38.693  13.984  20.818  0.00  0.00     0.019 A 
ATOM     10  C   UNL d   1     -38.931  14.022  21.615  0.00  0.00     0.002 A 
ATOM     11  C   UNL d   1     -40.942  15.922  20.860  0.00  0.00     0.002 A 
ATOM     12  C   UNL d   1     -39.551  14.514  21.822  0.00  0.00     0.000 A 
ATOM     13  C   UNL d   1     -40.567  15.474  21.445  0.00  0.00     0.000 A 
ENDROOT
BRANCH   3  14
ATOM     14  C   UNL d   1     -38.929  14.767  18.075  0.00  0.00     0.036 A 
ATOM     15  C   UNL d   1     -38.210  15.099  17.852  0.00  0.00     0.004 A 
ATOM     16  C   UNL d   1     -37.940  15.034  17.078  0.00  0.00     0.018 A 
ATOM     17  C   UNL d   1     -38.382  14.639  16.520  0.00  0.00     0.064 A 
ATOM     18  C   UNL d   1     -39.108  14.301  16.736  0.00  0.00     0.018 A 
ATOM     19  C   UNL d   1     -39.370  14.370  17.507  0.00  0.00     0.004 A 
BRANCH  17  20
ATOM     20  N   UNL d   1     -38.112  14.574  15.746  0.00  0.00    -0.301 N 
ATOM     21  C   UNL d   1     -37.977  13.834  15.415  0.00  0.00     0.100 C 
ATOM     22  C   UNL d   1     -37.979  15.251  15.306  0.00  0.00     0.100 C 
ENDBRANCH  17  20
ENDBRANCH   3  14
TORSDOF 2
ENDMDL
MODEL 4
REMARK VINA RESULT:      -5.8      8.463     11.129
REMARK  2 active torsions:
REMARK  status: ('A' for Active; 'I' for Inactive)
REMARK    1  A    between atoms: C_7  and  C_3 
REMARK    2  A    between atoms: N_9  and  C_8 
ROOT
ATOM      1  N   UNL d   1     -39.007  14.016  18.005  0.00  0.00    -0.227 NA
ATOM      2  N   UNL d   1     -39.001  15.371  17.581  0.00  0.00    -0.227 NA
ATOM      3  C   UNL d   1     -39.183  14.800  18.161  0.00  0.00     0.162 A 
ATOM      4  C   UNL d   1     -38.651  15.130  16.872  0.00  0.00     0.085 A 
ATOM      5  C   UNL d   1     -38.653  13.768  17.289  0.00  0.00     0.085 A 
ATOM      6  C   UNL d   1     -38.474  14.328  16.720  0.00  0.00     0.035 A 
ATOM      7  C   UNL d   1     -38.120  14.102  15.996  0.00  0.00     0.003 A 
ATOM      8  C   UNL d   1     -38.466  15.710  16.283  0.00  0.00     0.019 A 
ATOM      9  C   UNL d   1     -38.481  12.973  17.144  0.00  0.00     0.019 A 
ATOM     10  C   UNL d   1     -38.129  12.727  16.430  0.00  0.00     0.002 A 
ATOM     11  C   UNL d   1     -38.112  15.462  15.568  0.00  0.00     0.002 A 
ATOM     12  C   UNL d   1     -37.950  13.287  15.861  0.00  0.00     0.000 A 
ATOM     13  C   UNL d   1     -37.940  14.667  15.423  0.00  0.00     0.000 A 
ENDROOT
BRANCH   3  14
ATOM     14  C   UNL d   1     -39.528  14.999  18.872  0.00  0.00     0.036 A 
ATOM     15  C   UNL d   1     -40.340  14.911  18.980  0.00  0.00     0.004 A 
ATOM     16  C   UNL d   1     -40.692  15.110  19.696  0.00  0.00     0.018 A 
ATOM     17  C   UNL d   1     -40.240  15.397  20.310  0.00  0.00     0.064 A 
ATOM     18  C   UNL d   1     -39.423  15.488  20.211  0.00  0.00     0.018 A 
ATOM     19  C   UNL d   1     -39.080  15.288  19.496  0.00  0.00     0.004 A 
BRANCH  17  20
ATOM     20  N   UNL d   1     -40.592  15.596  21.027  0.00  0.00    -0.301 N 
ATOM     21  C   UNL d   1     -40.195  15.468  21.734  0.00  0.00     0.100 C 
ATOM     22  C   UNL d   1     -41.343  15.922  21.032  0.00  0.00     0.100 C 
ENDBRANCH  17  20
ENDBRANCH   3  14
TORSDOF 2
ENDMDL
MODEL 5
REMARK VINA RESULT:      -5.6      0.989      1.405
REMARK  2 active torsions:
REMARK  status: ('A' for Active; 'I' for Inactive)
REMARK    1  A    between atoms: C_7  and  C_3 
REMARK    2  A    between atoms: N_9  and  C_8 
ROOT
ATOM      1  N   UNL d   1     -47.502  13.680  22.679  0.00  0.00    -0.227 NA
ATOM      2  N   UNL d   1     -48.035  12.395  22.957  0.00  0.00    -0.227 NA
ATOM      3  C   UNL d   1     -47.376  12.882  22.808  0.00  0.00     0.162 A 
ATOM      4  C   UNL d   1     -48.791  12.728  22.970  0.00  0.00     0.085 A 
ATOM      5  C   UNL d   1     -48.264  14.023  22.691  0.00  0.00     0.085 A 
ATOM      6  C   UNL d   1     -48.912  13.545  22.837  0.00  0.00     0.035 A 
ATOM      7  C   UNL d   1     -49.685  13.866  22.854  0.00  0.00     0.003 A 
ATOM      8  C   UNL d   1     -49.461  12.233  23.121  0.00  0.00     0.019 A 
ATOM      9  C   UNL d   1     -48.379  14.830  22.559  0.00  0.00     0.019 A 
ATOM     10  C   UNL d   1     -49.139  15.170  22.571  0.00  0.00     0.002 A 
ATOM     11  C   UNL d   1     -50.223  12.576  23.133  0.00  0.00     0.002 A 
ATOM     12  C   UNL d   1     -49.786  14.692  22.717  0.00  0.00     0.000 A 
ATOM     13  C   UNL d   1     -50.337  13.383  23.001  0.00  0.00     0.000 A 
ENDROOT
BRANCH   3  14
ATOM     14  C   UNL d   1     -46.615  12.589  22.787  0.00  0.00     0.036 A 
ATOM     15  C   UNL d   1     -46.323  12.144  23.416  0.00  0.00     0.004 A 
ATOM     16  C   UNL d   1     -45.556  11.847  23.399  0.00  0.00     0.018 A 
ATOM     17  C   UNL d   1     -45.074  11.990  22.758  0.00  0.00     0.064 A 
ATOM     18  C   UNL d   1     -45.359  12.437  22.121  0.00  0.00     0.018 A 
ATOM     19  C   UNL d   1     -46.123  12.729  22.145  0.00  0.00     0.004 A 
BRANCH  17  20
ATOM     20  N   UNL d   1     -44.307  11.693  22.741  0.00  0.00    -0.301 N 
ATOM     21  C   UNL d   1     -44.110  11.029  23.182  0.00  0.00     0.100 C 
ATOM     22  C   UNL d   1     -43.739  12.064  22.282  0.00  0.00     0.100 C 
ENDBRANCH  17  20
ENDBRANCH   3  14
TORSDOF 2
ENDMDL
