MODEL 1
REMARK VINA RESULT:       5.7      0.000      0.000
REMARK  8 active torsions:
REMARK  status: ('A' for Active; 'I' for Inactive)
REMARK    1  A    between atoms: N_2  and  C_1 
REMARK    2  A    between atoms: N_3  and  C_1 
REMARK    3  A    between atoms: C_6  and  C_1 
REMARK       I    between atoms: C_4  and  N_2 
REMARK       I    between atoms: C_5  and  N_3 
REMARK    4  A    between atoms: O_11  and  C_4 
REMARK    5  A    between atoms: O_12  and  C_5 
REMARK    6  A    between atoms: C_10  and  C_6 
REMARK    7  A    between atoms: C_15  and  O_11 
REMARK    8  A    between atoms: C_16  and  O_12 
ROOT
ATOM      1  C   UNL d   1     -42.005-122.600 -51.031  0.00  0.00     0.211 C 
ENDROOT
BRANCH   1   2
ATOM      2  N   UNL d   1     -42.359-123.146 -50.541  0.00  0.00    -0.163 NA
ATOM      3  C   UNL d   1     -43.062-122.963 -50.159  0.00  0.00     0.394 C 
ATOM      4  O   UNL d   1     -43.428-122.228 -50.257  0.00  0.00    -0.236 OA
BRANCH   3   5
ATOM      5  O   UNL d   1     -43.420-123.516 -49.663  0.00  0.00    -0.256 OA
BRANCH   5   6
ATOM      6  C   UNL d   1     -43.375-123.427 -48.834  0.00  0.00     0.128 C 
ATOM      7  C   UNL d   1     -44.019-123.618 -48.357  0.00  0.00     0.029 C 
ENDBRANCH   5   6
ENDBRANCH   3   5
ENDBRANCH   1   2
BRANCH   1   8
ATOM      8  N   UNL d   1     -42.138-122.615 -51.863  0.00  0.00    -0.163 NA
ATOM      9  C   UNL d   1     -41.779-123.182 -52.341  0.00  0.00     0.394 C 
ATOM     10  O   UNL d   1     -41.289-123.732 -51.988  0.00  0.00    -0.236 OA
BRANCH   9  11
ATOM     11  O   UNL d   1     -41.913-123.195 -53.169  0.00  0.00    -0.256 OA
BRANCH  11  12
ATOM     12  C   UNL d   1     -41.687-123.741 -53.487  0.00  0.00     0.128 C 
ATOM     13  C   UNL d   1     -41.516-123.656 -54.315  0.00  0.00     0.029 C 
ENDBRANCH  11  12
ENDBRANCH   9  11
ENDBRANCH   1   8
BRANCH   1  14
ATOM     14  C   UNL d   1     -41.503-122.014 -50.712  0.00  0.00     0.231 C 
ATOM     15  O   UNL d   1     -41.125-122.142 -49.989  0.00  0.00    -0.283 OA
BRANCH  14  16
ATOM     16  C   UNL d   1     -41.375-121.285 -51.121  0.00  0.00     0.042 A 
ATOM     17  C   UNL d   1     -41.323-120.584 -50.697  0.00  0.00     0.003 A 
ATOM     18  C   UNL d   1     -41.199-119.868 -51.079  0.00  0.00     0.000 A 
ATOM     19  C   UNL d   1     -41.125-119.853 -51.920  0.00  0.00     0.000 A 
ATOM     20  C   UNL d   1     -41.179-120.554 -52.330  0.00  0.00     0.000 A 
ATOM     21  C   UNL d   1     -41.303-121.269 -51.938  0.00  0.00     0.003 A 
ENDBRANCH  14  16
ENDBRANCH   1  14
TORSDOF 8
ENDMDL
MODEL 2
REMARK VINA RESULT:       6.4      1.537      3.437
REMARK  8 active torsions:
REMARK  status: ('A' for Active; 'I' for Inactive)
REMARK    1  A    between atoms: N_2  and  C_1 
REMARK    2  A    between atoms: N_3  and  C_1 
REMARK    3  A    between atoms: C_6  and  C_1 
REMARK       I    between atoms: C_4  and  N_2 
REMARK       I    between atoms: C_5  and  N_3 
REMARK    4  A    between atoms: O_11  and  C_4 
REMARK    5  A    between atoms: O_12  and  C_5 
REMARK    6  A    between atoms: C_10  and  C_6 
REMARK    7  A    between atoms: C_15  and  O_11 
REMARK    8  A    between atoms: C_16  and  O_12 
ROOT
ATOM      1  C   UNL d   1     -41.813-122.246 -52.976  0.00  0.00     0.211 C 
ENDROOT
BRANCH   1   2
ATOM      2  N   UNL d   1     -41.828-122.970 -52.602  0.00  0.00    -0.163 NA
ATOM      3  C   UNL d   1     -41.629-123.026 -51.807  0.00  0.00     0.394 C 
ATOM      4  O   UNL d   1     -41.412-122.360 -51.368  0.00  0.00    -0.236 OA
BRANCH   3   5
ATOM      5  O   UNL d   1     -41.644-123.759 -51.428  0.00  0.00    -0.256 OA
BRANCH   5   6
ATOM      6  C   UNL d   1     -41.446-123.816 -50.619  0.00  0.00     0.128 C 
ATOM      7  C   UNL d   1     -41.957-123.524 -50.042  0.00  0.00     0.029 C 
ENDBRANCH   5   6
ENDBRANCH   3   5
ENDBRANCH   1   2
BRANCH   1   8
ATOM      8  N   UNL d   1     -41.313-121.626 -52.701  0.00  0.00    -0.163 NA
ATOM      9  C   UNL d   1     -41.625-120.953 -52.345  0.00  0.00     0.394 C 
ATOM     10  O   UNL d   1     -42.436-120.899 -52.264  0.00  0.00    -0.236 OA
BRANCH   9  11
ATOM     11  O   UNL d   1     -41.125-120.338 -52.072  0.00  0.00    -0.256 OA
BRANCH  11  12
ATOM     12  C   UNL d   1     -41.341-119.716 -52.196  0.00  0.00     0.128 C 
ATOM     13  C   UNL d   1     -41.223-119.141 -51.581  0.00  0.00     0.029 C 
ENDBRANCH  11  12
ENDBRANCH   9  11
ENDBRANCH   1   8
BRANCH   1  14
ATOM     14  C   UNL d   1     -42.298-122.109 -53.642  0.00  0.00     0.231 C 
ATOM     15  O   UNL d   1     -43.053-121.786 -53.546  0.00  0.00    -0.283 OA
BRANCH  14  16
ATOM     16  C   UNL d   1     -42.027-122.298 -54.421  0.00  0.00     0.042 A 
ATOM     17  C   UNL d   1     -42.180-121.783 -55.041  0.00  0.00     0.003 A 
ATOM     18  C   UNL d   1     -41.923-121.951 -55.802  0.00  0.00     0.000 A 
ATOM     19  C   UNL d   1     -41.496-122.664 -55.949  0.00  0.00     0.000 A 
ATOM     20  C   UNL d   1     -41.349-123.168 -55.326  0.00  0.00     0.000 A 
ATOM     21  C   UNL d   1     -41.611-122.991 -54.563  0.00  0.00     0.003 A 
ENDBRANCH  14  16
ENDBRANCH   1  14
TORSDOF 8
ENDMDL
