MODEL 1
REMARK VINA RESULT:      -0.9      0.000      0.000
REMARK  5 active torsions:
REMARK  status: ('A' for Active; 'I' for Inactive)
REMARK    1  A    between atoms: N_2  and  C_1 
REMARK    2  A    between atoms: C_4  and  C_8 
REMARK    3  A    between atoms: N_15  and  C_5 
REMARK    4  A    between atoms: C_19  and  N_15 
REMARK    5  A    between atoms: C_20  and  N_15 
ROOT
ATOM      1  C   UNL d   1      30.906  17.190 -23.990  0.00  0.00     0.143 A 
ATOM      2  C   UNL d   1      31.424  16.679 -23.607  0.00  0.00     0.086 A 
ATOM      3  C   UNL d   1      30.106  16.989 -24.072  0.00  0.00     0.027 A 
ATOM      4  C   UNL d   1      29.827  16.267 -23.765  0.00  0.00     0.021 A 
ATOM      5  C   UNL d   1      31.148  15.964 -23.303  0.00  0.00     0.019 A 
ATOM      6  C   UNL d   1      30.352  15.754 -23.379  0.00  0.00     0.003 A 
ENDROOT
BRANCH   4   7
ATOM      7  C   UNL d   1      29.035  16.064 -23.844  0.00  0.00     0.103 A 
ATOM      8  N   UNL d   1      28.705  15.970 -24.596  0.00  0.00    -0.145 NA
ATOM      9  N   UNL d   1      27.912  15.767 -24.675  0.00  0.00    -0.106 NA
ATOM     10  C   UNL d   1      27.445  15.657 -24.005  0.00  0.00     0.297 A 
ATOM     11  C   UNL d   1      27.774  15.751 -23.254  0.00  0.00     0.066 A 
ATOM     12  O   UNL d   1      26.653  15.454 -24.085  0.00  0.00    -0.264 OA
ATOM     13  C   UNL d   1      28.574  15.956 -23.169  0.00  0.00     0.024 A 
ATOM     14  C   UNL d   1      28.900  16.049 -22.420  0.00  0.00     0.002 C 
ENDBRANCH   4   7
BRANCH   1  15
ATOM     15  N   UNL d   1      31.176  17.910 -24.298  0.00  0.00    -0.112 N 
ATOM     16  O   UNL d   1      31.507  17.927 -25.059  0.00  0.00    -0.532 OA
ATOM     17  O   UNL d   1      31.118  18.602 -23.858  0.00  0.00    -0.532 OA
ENDBRANCH   1  15
BRANCH   2  18
ATOM     18  N   UNL d   1      32.217  16.881 -23.527  0.00  0.00    -0.302 N 
BRANCH  18  19
ATOM     19  C   UNL d   1      32.452  17.383 -22.920  0.00  0.00     0.080 C 
ATOM     20  C   UNL d   1      33.241  17.391 -22.674  0.00  0.00     0.021 C 
ENDBRANCH  18  19
BRANCH  18  21
ATOM     21  C   UNL d   1      32.774  16.582 -24.056  0.00  0.00     0.080 C 
ATOM     22  C   UNL d   1      33.241  15.940 -23.843  0.00  0.00     0.021 C 
ENDBRANCH  18  21
ENDBRANCH   2  18
TORSDOF 5
ENDMDL
MODEL 2
REMARK VINA RESULT:      -0.7      4.091      5.910
REMARK  5 active torsions:
REMARK  status: ('A' for Active; 'I' for Inactive)
REMARK    1  A    between atoms: N_2  and  C_1 
REMARK    2  A    between atoms: C_4  and  C_8 
REMARK    3  A    between atoms: N_15  and  C_5 
REMARK    4  A    between atoms: C_19  and  N_15 
REMARK    5  A    between atoms: C_20  and  N_15 
ROOT
ATOM      1  C   UNL d   1      32.698  21.175 -21.467  0.00  0.00     0.143 A 
ATOM      2  C   UNL d   1      32.916  21.790 -21.968  0.00  0.00     0.086 A 
ATOM      3  C   UNL d   1      32.749  20.389 -21.725  0.00  0.00     0.027 A 
ATOM      4  C   UNL d   1      33.022  20.222 -22.494  0.00  0.00     0.021 A 
ATOM      5  C   UNL d   1      33.186  21.626 -22.729  0.00  0.00     0.019 A 
ATOM      6  C   UNL d   1      33.241  20.845 -22.997  0.00  0.00     0.003 A 
ENDROOT
BRANCH   4   7
ATOM      7  C   UNL d   1      33.075  19.445 -22.753  0.00  0.00     0.103 A 
ATOM      8  N   UNL d   1      33.178  18.833 -22.207  0.00  0.00    -0.145 NA
ATOM      9  N   UNL d   1      33.231  18.054 -22.467  0.00  0.00    -0.106 NA
ATOM     10  C   UNL d   1      33.181  17.883 -23.271  0.00  0.00     0.297 A 
ATOM     11  C   UNL d   1      33.077  18.494 -23.817  0.00  0.00     0.066 A 
ATOM     12  O   UNL d   1      33.233  17.105 -23.530  0.00  0.00    -0.264 OA
ATOM     13  C   UNL d   1      33.024  19.281 -23.559  0.00  0.00     0.024 A 
ATOM     14  C   UNL d   1      32.921  19.888 -24.105  0.00  0.00     0.002 C 
ENDBRANCH   4   7
BRANCH   1  15
ATOM     15  N   UNL d   1      32.426  21.333 -20.701  0.00  0.00    -0.112 N 
ATOM     16  O   UNL d   1      32.923  21.178 -20.055  0.00  0.00    -0.532 OA
ATOM     17  O   UNL d   1      31.672  21.639 -20.579  0.00  0.00    -0.532 OA
ENDBRANCH   1  15
BRANCH   2  18
ATOM     18  N   UNL d   1      32.863  22.569 -21.709  0.00  0.00    -0.302 N 
BRANCH  18  19
ATOM     19  C   UNL d   1      33.232  22.793 -21.010  0.00  0.00     0.080 C 
ATOM     20  C   UNL d   1      33.196  23.579 -20.757  0.00  0.00     0.021 C 
ENDBRANCH  18  19
BRANCH  18  21
ATOM     21  C   UNL d   1      32.442  23.123 -22.150  0.00  0.00     0.080 C 
ATOM     22  C   UNL d   1      32.835  23.617 -22.675  0.00  0.00     0.021 C 
ENDBRANCH  18  21
ENDBRANCH   2  18
TORSDOF 5
ENDMDL
MODEL 3
REMARK VINA RESULT:       1.4      1.241      1.782
REMARK  5 active torsions:
REMARK  status: ('A' for Active; 'I' for Inactive)
REMARK    1  A    between atoms: N_2  and  C_1 
REMARK    2  A    between atoms: C_4  and  C_8 
REMARK    3  A    between atoms: N_15  and  C_5 
REMARK    4  A    between atoms: C_19  and  N_15 
REMARK    5  A    between atoms: C_20  and  N_15 
ROOT
ATOM      1  C   UNL d   1      31.009  16.597 -23.694  0.00  0.00     0.143 A 
ATOM      2  C   UNL d   1      31.144  17.178 -24.260  0.00  0.00     0.086 A 
ATOM      3  C   UNL d   1      30.242  16.305 -23.572  0.00  0.00     0.027 A 
ATOM      4  C   UNL d   1      29.609  16.601 -24.026  0.00  0.00     0.021 A 
ATOM      5  C   UNL d   1      30.518  17.471 -24.709  0.00  0.00     0.019 A 
ATOM      6  C   UNL d   1      29.750  17.187 -24.596  0.00  0.00     0.003 A 
ENDROOT
BRANCH   4   7
ATOM      7  C   UNL d   1      28.848  16.314 -23.908  0.00  0.00     0.103 A 
ATOM      8  N   UNL d   1      28.390  16.601 -23.283  0.00  0.00    -0.145 NA
ATOM      9  N   UNL d   1      27.629  16.314 -23.165  0.00  0.00    -0.106 NA
ATOM     10  C   UNL d   1      27.321  15.740 -23.670  0.00  0.00     0.297 A 
ATOM     11  C   UNL d   1      27.779  15.453 -24.295  0.00  0.00     0.066 A 
ATOM     12  O   UNL d   1      26.560  15.452 -23.553  0.00  0.00    -0.264 OA
ATOM     13  C   UNL d   1      28.548  15.740 -24.417  0.00  0.00     0.024 A 
ATOM     14  C   UNL d   1      29.002  15.453 -25.040  0.00  0.00     0.002 C 
ENDBRANCH   4   7
BRANCH   1  15
ATOM     15  N   UNL d   1      31.633  16.298 -23.239  0.00  0.00    -0.112 N 
ATOM     16  O   UNL d   1      32.002  16.791 -22.684  0.00  0.00    -0.532 OA
ATOM     17  O   UNL d   1      31.885  15.521 -23.335  0.00  0.00    -0.532 OA
ENDBRANCH   1  15
BRANCH   2  18
ATOM     18  N   UNL d   1      31.906  17.466 -24.378  0.00  0.00    -0.302 N 
BRANCH  18  19
ATOM     19  C   UNL d   1      32.370  17.159 -24.983  0.00  0.00     0.080 C 
ATOM     20  C   UNL d   1      33.186  17.286 -24.982  0.00  0.00     0.021 C 
ENDBRANCH  18  19
BRANCH  18  21
ATOM     21  C   UNL d   1      32.202  18.060 -23.891  0.00  0.00     0.080 C 
ATOM     22  C   UNL d   1      32.410  18.789 -24.209  0.00  0.00     0.021 C 
ENDBRANCH  18  21
ENDBRANCH   2  18
TORSDOF 5
ENDMDL
MODEL 4
REMARK VINA RESULT:       1.7      4.244      6.285
REMARK  5 active torsions:
REMARK  status: ('A' for Active; 'I' for Inactive)
REMARK    1  A    between atoms: N_2  and  C_1 
REMARK    2  A    between atoms: C_4  and  C_8 
REMARK    3  A    between atoms: N_15  and  C_5 
REMARK    4  A    between atoms: C_19  and  N_15 
REMARK    5  A    between atoms: C_20  and  N_15 
ROOT
ATOM      1  C   UNL d   1      32.727  19.925 -22.278  0.00  0.00     0.143 A 
ATOM      2  C   UNL d   1      32.993  20.213 -23.001  0.00  0.00     0.086 A 
ATOM      3  C   UNL d   1      32.706  20.421 -21.613  0.00  0.00     0.027 A 
ATOM      4  C   UNL d   1      32.955  21.213 -21.680  0.00  0.00     0.021 A 
ATOM      5  C   UNL d   1      33.239  20.997 -23.067  0.00  0.00     0.019 A 
ATOM      6  C   UNL d   1      33.223  21.500 -22.411  0.00  0.00     0.003 A 
ENDROOT
BRANCH   4   7
ATOM      7  C   UNL d   1      32.936  21.708 -21.025  0.00  0.00     0.103 A 
ATOM      8  N   UNL d   1      33.239  21.447 -20.302  0.00  0.00    -0.145 NA
ATOM      9  N   UNL d   1      33.221  21.942 -19.645  0.00  0.00    -0.106 NA
ATOM     10  C   UNL d   1      32.899  22.699 -19.707  0.00  0.00     0.297 A 
ATOM     11  C   UNL d   1      32.596  22.959 -20.430  0.00  0.00     0.066 A 
ATOM     12  O   UNL d   1      32.880  23.193 -19.051  0.00  0.00    -0.264 OA
ATOM     13  C   UNL d   1      32.613  22.463 -21.095  0.00  0.00     0.024 A 
ATOM     14  C   UNL d   1      32.311  22.724 -21.814  0.00  0.00     0.002 C 
ENDBRANCH   4   7
BRANCH   1  15
ATOM     15  N   UNL d   1      32.477  19.139 -22.203  0.00  0.00    -0.112 N 
ATOM     16  O   UNL d   1      31.686  18.948 -22.362  0.00  0.00    -0.532 OA
ATOM     17  O   UNL d   1      33.006  18.551 -21.975  0.00  0.00    -0.532 OA
ENDBRANCH   1  15
BRANCH   2  18
ATOM     18  N   UNL d   1      33.012  19.718 -23.658  0.00  0.00    -0.302 N 
BRANCH  18  19
ATOM     19  C   UNL d   1      32.805  20.011 -24.397  0.00  0.00     0.080 C 
ATOM     20  C   UNL d   1      33.209  19.756 -25.070  0.00  0.00     0.021 C 
ENDBRANCH  18  19
BRANCH  18  21
ATOM     21  C   UNL d   1      33.238  18.930 -23.574  0.00  0.00     0.080 C 
ATOM     22  C   UNL d   1      33.205  18.422 -24.218  0.00  0.00     0.021 C 
ENDBRANCH  18  21
ENDBRANCH   2  18
TORSDOF 5
ENDMDL
