MODEL 1
REMARK VINA RESULT:       1.0      0.000      0.000
REMARK  6 active torsions:
REMARK  status: ('A' for Active; 'I' for Inactive)
REMARK    1  A    between atoms: C_2  and  C_1 
REMARK    2  A    between atoms: C_3  and  C_1 
REMARK    3  A    between atoms: N_4  and  C_1 
REMARK       I    between atoms: N_9  and  C_2 
REMARK    4  A    between atoms: C_7  and  C_3 
REMARK       I    between atoms: C_8  and  N_4 
REMARK    5  A    between atoms: C_14  and  C_5 
REMARK    6  A    between atoms: C_15  and  C_8 
ROOT
ATOM      1  C   UNL d   1      32.620  18.936 -23.097  0.00  0.00     0.143 C 
ENDROOT
BRANCH   1   2
ATOM      2  C   UNL d   1      32.926  18.756 -22.348  0.00  0.00     0.283 C 
ATOM      3  N   UNL d   1      32.920  19.319 -21.746  0.00  0.00    -0.267 N 
ATOM      4  C   UNL d   1      32.605  20.071 -21.890  0.00  0.00     0.110 A 
ATOM      5  C   UNL d   1      33.223  19.141 -21.005  0.00  0.00     0.110 A 
ATOM      6  C   UNL d   1      32.599  20.638 -21.284  0.00  0.00     0.142 A 
ATOM      7  O   UNL d   1      32.905  20.448 -20.545  0.00  0.00    -0.300 OA
ATOM      8  C   UNL d   1      33.218  19.696 -20.406  0.00  0.00     0.142 A 
ATOM      9  O   UNL d   1      33.241  18.000 -22.208  0.00  0.00    -0.265 OA
ENDBRANCH   1   2
BRANCH   1  10
ATOM     10  C   UNL d   1      33.237  19.132 -23.609  0.00  0.00     0.049 C 
BRANCH  10  11
ATOM     11  C   UNL d   1      33.199  19.827 -24.057  0.00  0.00     0.102 A 
ATOM     12  O   UNL d   1      33.230  20.587 -23.766  0.00  0.00    -0.307 OA
ATOM     13  C   UNL d   1      33.172  21.103 -24.416  0.00  0.00     0.100 A 
ATOM     14  C   UNL d   1      33.107  20.649 -25.096  0.00  0.00     0.027 A 
ATOM     15  C   UNL d   1      33.123  19.777 -24.874  0.00  0.00     0.027 A 
BRANCH  13  16
ATOM     16  C   UNL d   1      33.181  21.925 -24.368  0.00  0.00     0.023 A 
ATOM     17  C   UNL d   1      33.199  22.366 -25.068  0.00  0.00     0.002 A 
ATOM     18  C   UNL d   1      33.208  23.192 -25.034  0.00  0.00     0.000 A 
ATOM     19  C   UNL d   1      33.198  23.574 -24.300  0.00  0.00     0.000 A 
ATOM     20  C   UNL d   1      33.180  23.133 -23.600  0.00  0.00     0.000 A 
ATOM     21  C   UNL d   1      33.171  22.314 -23.635  0.00  0.00     0.002 A 
ENDBRANCH  13  16
ENDBRANCH  10  11
ENDBRANCH   1  10
BRANCH   1  22
ATOM     22  N   UNL d   1      31.843  18.942 -23.369  0.00  0.00    -0.203 NA
ATOM     23  C   UNL d   1      31.303  18.454 -23.754  0.00  0.00     0.279 C 
ATOM     24  O   UNL d   1      30.540  18.741 -23.910  0.00  0.00    -0.265 OA
BRANCH  23  25
ATOM     25  C   UNL d   1      31.509  17.694 -23.983  0.00  0.00     0.058 A 
ATOM     26  C   UNL d   1      31.395  17.067 -23.459  0.00  0.00     0.005 A 
ATOM     27  C   UNL d   1      31.602  16.303 -23.688  0.00  0.00     0.000 A 
ATOM     28  C   UNL d   1      31.921  16.163 -24.436  0.00  0.00     0.000 A 
ATOM     29  C   UNL d   1      32.033  16.797 -24.958  0.00  0.00     0.000 A 
ATOM     30  C   UNL d   1      31.826  17.561 -24.728  0.00  0.00     0.005 A 
ENDBRANCH  23  25
ENDBRANCH   1  22
TORSDOF 6
ENDMDL
MODEL 2
REMARK VINA RESULT:       3.4      1.851      4.373
REMARK  6 active torsions:
REMARK  status: ('A' for Active; 'I' for Inactive)
REMARK    1  A    between atoms: C_2  and  C_1 
REMARK    2  A    between atoms: C_3  and  C_1 
REMARK    3  A    between atoms: N_4  and  C_1 
REMARK       I    between atoms: N_9  and  C_2 
REMARK    4  A    between atoms: C_7  and  C_3 
REMARK       I    between atoms: C_8  and  N_4 
REMARK    5  A    between atoms: C_14  and  C_5 
REMARK    6  A    between atoms: C_15  and  C_8 
ROOT
ATOM      1  C   UNL d   1      32.288  18.508 -23.538  0.00  0.00     0.143 C 
ENDROOT
BRANCH   1   2
ATOM      2  C   UNL d   1      32.559  19.203 -23.177  0.00  0.00     0.283 C 
ATOM      3  N   UNL d   1      32.757  19.861 -23.631  0.00  0.00    -0.267 N 
ATOM      4  C   UNL d   1      32.684  19.829 -24.456  0.00  0.00     0.110 A 
ATOM      5  C   UNL d   1      33.025  20.549 -23.274  0.00  0.00     0.110 A 
ATOM      6  C   UNL d   1      32.884  20.491 -24.913  0.00  0.00     0.142 A 
ATOM      7  O   UNL d   1      33.152  21.176 -24.545  0.00  0.00    -0.300 OA
ATOM      8  C   UNL d   1      33.222  21.203 -23.721  0.00  0.00     0.142 A 
ATOM      9  O   UNL d   1      32.630  19.231 -22.350  0.00  0.00    -0.265 OA
ENDBRANCH   1   2
BRANCH   1  10
ATOM     10  C   UNL d   1      31.562  18.290 -23.211  0.00  0.00     0.049 C 
BRANCH  10  11
ATOM     11  C   UNL d   1      30.952  18.016 -23.698  0.00  0.00     0.102 A 
ATOM     12  O   UNL d   1      30.428  17.418 -23.521  0.00  0.00    -0.307 OA
ATOM     13  C   UNL d   1      29.917  17.336 -24.172  0.00  0.00     0.100 A 
ATOM     14  C   UNL d   1      30.137  17.887 -24.739  0.00  0.00     0.027 A 
ATOM     15  C   UNL d   1      30.841  18.360 -24.436  0.00  0.00     0.027 A 
BRANCH  13  16
ATOM     16  C   UNL d   1      29.302  16.792 -24.223  0.00  0.00     0.023 A 
ATOM     17  C   UNL d   1      29.334  16.204 -24.804  0.00  0.00     0.002 A 
ATOM     18  C   UNL d   1      28.723  15.651 -24.867  0.00  0.00     0.000 A 
ATOM     19  C   UNL d   1      28.080  15.688 -24.347  0.00  0.00     0.000 A 
ATOM     20  C   UNL d   1      28.047  16.276 -23.765  0.00  0.00     0.000 A 
ATOM     21  C   UNL d   1      28.655  16.824 -23.705  0.00  0.00     0.002 A 
ENDBRANCH  13  16
ENDBRANCH  10  11
ENDBRANCH   1  10
BRANCH   1  22
ATOM     22  N   UNL d   1      32.624  18.047 -24.132  0.00  0.00    -0.203 NA
ATOM     23  C   UNL d   1      32.973  17.310 -24.240  0.00  0.00     0.279 C 
ATOM     24  O   UNL d   1      33.238  17.095 -24.997  0.00  0.00    -0.265 OA
BRANCH  23  25
ATOM     25  C   UNL d   1      33.061  16.788 -23.613  0.00  0.00     0.058 A 
ATOM     26  C   UNL d   1      33.150  17.084 -22.848  0.00  0.00     0.005 A 
ATOM     27  C   UNL d   1      33.239  16.561 -22.218  0.00  0.00     0.000 A 
ATOM     28  C   UNL d   1      33.239  15.746 -22.347  0.00  0.00     0.000 A 
ATOM     29  C   UNL d   1      33.150  15.455 -23.118  0.00  0.00     0.000 A 
ATOM     30  C   UNL d   1      33.061  15.979 -23.748  0.00  0.00     0.005 A 
ENDBRANCH  23  25
ENDBRANCH   1  22
TORSDOF 6
ENDMDL
