MODEL 1
REMARK VINA RESULT:      -5.1      0.000      0.000
REMARK  5 active torsions:
REMARK  status: ('A' for Active; 'I' for Inactive)
REMARK    1  A    between atoms: C_2  and  C_1 
REMARK    2  A    between atoms: C_6  and  C_2 
REMARK    3  A    between atoms: C_3  and  O_5 
REMARK    4  A    between atoms: C_11  and  C_3 
REMARK    5  A    between atoms: O_5  and  C_6 
ROOT
ATOM      1  O   UNL d   1      57.214   0.158  31.058  0.00  0.00    -0.268 OA
ENDROOT
BRANCH   1   2
ATOM      2  C   UNL d   1      57.226   0.178  31.888  0.00  0.00     0.300 C 
ATOM      3  O   UNL d   1      57.855   0.527  32.267  0.00  0.00    -0.259 OA
BRANCH   2   4
ATOM      4  C   UNL d   1      56.613  -0.150  32.323  0.00  0.00     0.064 A 
ATOM      5  C   UNL d   1      56.522  -0.961  32.365  0.00  0.00     0.005 A 
ATOM      6  C   UNL d   1      55.911  -1.285  32.799  0.00  0.00     0.000 A 
ATOM      7  C   UNL d   1      55.384  -0.802  33.195  0.00  0.00     0.000 A 
ATOM      8  C   UNL d   1      55.472   0.017  33.155  0.00  0.00     0.000 A 
ATOM      9  C   UNL d   1      56.086   0.348  32.719  0.00  0.00     0.005 A 
ENDBRANCH   2   4
ENDBRANCH   1   2
BRANCH   1  10
ATOM     10  C   UNL d   1      57.924   0.301  30.637  0.00  0.00     0.168 C 
BRANCH  10  11
ATOM     11  C   UNL d   1      57.927   0.371  29.821  0.00  0.00     0.226 C 
ATOM     12  O   UNL d   1      57.286   0.681  29.404  0.00  0.00    -0.284 OA
BRANCH  11  13
ATOM     13  C   UNL d   1      58.635   0.105  29.402  0.00  0.00     0.070 A 
ATOM     14  S   UNL d   1      59.310   0.589  29.185  0.00  0.00    -0.083 SA
ATOM     15  C   UNL d   1      59.884   0.089  28.774  0.00  0.00     0.035 A 
ATOM     16  C   UNL d   1      59.561  -0.713  28.737  0.00  0.00     0.008 A 
ATOM     17  C   UNL d   1      58.789  -0.706  29.124  0.00  0.00     0.010 A 
ENDBRANCH  11  13
ENDBRANCH  10  11
ENDBRANCH   1  10
TORSDOF 5
ENDMDL
MODEL 2
REMARK VINA RESULT:      -4.4      1.455      4.293
REMARK  5 active torsions:
REMARK  status: ('A' for Active; 'I' for Inactive)
REMARK    1  A    between atoms: C_2  and  C_1 
REMARK    2  A    between atoms: C_6  and  C_2 
REMARK    3  A    between atoms: C_3  and  O_5 
REMARK    4  A    between atoms: C_11  and  C_3 
REMARK    5  A    between atoms: O_5  and  C_6 
ROOT
ATOM      1  O   UNL d   1      57.431  -0.491  30.962  0.00  0.00    -0.268 OA
ENDROOT
BRANCH   1   2
ATOM      2  C   UNL d   1      57.713   0.023  30.374  0.00  0.00     0.300 C 
ATOM      3  O   UNL d   1      57.278   0.682  30.181  0.00  0.00    -0.259 OA
BRANCH   2   4
ATOM      4  C   UNL d   1      58.421  -0.130  29.991  0.00  0.00     0.064 A 
ATOM      5  C   UNL d   1      58.490  -0.767  29.483  0.00  0.00     0.005 A 
ATOM      6  C   UNL d   1      59.196  -0.916  29.102  0.00  0.00     0.000 A 
ATOM      7  C   UNL d   1      59.842  -0.431  29.225  0.00  0.00     0.000 A 
ATOM      8  C   UNL d   1      59.778   0.212  29.736  0.00  0.00     0.000 A 
ATOM      9  C   UNL d   1      59.068   0.367  30.122  0.00  0.00     0.005 A 
ENDBRANCH   2   4
ENDBRANCH   1   2
BRANCH   1  10
ATOM     10  C   UNL d   1      56.944  -0.185  31.571  0.00  0.00     0.168 C 
BRANCH  10  11
ATOM     11  C   UNL d   1      56.609  -0.676  32.134  0.00  0.00     0.226 C 
ATOM     12  O   UNL d   1      56.617  -1.498  32.061  0.00  0.00    -0.284 OA
BRANCH  11  13
ATOM     13  C   UNL d   1      56.239  -0.300  32.819  0.00  0.00     0.070 A 
ATOM     14  S   UNL d   1      56.620   0.226  33.379  0.00  0.00    -0.083 SA
ATOM     15  C   UNL d   1      56.036   0.466  33.971  0.00  0.00     0.035 A 
ATOM     16  C   UNL d   1      55.286   0.084  33.775  0.00  0.00     0.008 A 
ATOM     17  C   UNL d   1      55.407  -0.390  33.064  0.00  0.00     0.010 A 
ENDBRANCH  11  13
ENDBRANCH  10  11
ENDBRANCH   1  10
TORSDOF 5
ENDMDL
MODEL 3
REMARK VINA RESULT:      -3.2      1.604      2.229
REMARK  5 active torsions:
REMARK  status: ('A' for Active; 'I' for Inactive)
REMARK    1  A    between atoms: C_2  and  C_1 
REMARK    2  A    between atoms: C_6  and  C_2 
REMARK    3  A    between atoms: C_3  and  O_5 
REMARK    4  A    between atoms: C_11  and  C_3 
REMARK    5  A    between atoms: O_5  and  C_6 
ROOT
ATOM      1  O   UNL d   1      58.498  -0.435  30.318  0.00  0.00    -0.268 OA
ENDROOT
BRANCH   1   2
ATOM      2  C   UNL d   1      57.786  -0.035  30.461  0.00  0.00     0.300 C 
ATOM      3  O   UNL d   1      57.392   0.309  29.838  0.00  0.00    -0.259 OA
BRANCH   2   4
ATOM      4  C   UNL d   1      57.480   0.015  31.220  0.00  0.00     0.064 A 
ATOM      5  C   UNL d   1      57.719   0.612  31.725  0.00  0.00     0.005 A 
ATOM      6  C   UNL d   1      57.412   0.659  32.480  0.00  0.00     0.000 A 
ATOM      7  C   UNL d   1      56.864   0.111  32.739  0.00  0.00     0.000 A 
ATOM      8  C   UNL d   1      56.621  -0.492  32.234  0.00  0.00     0.000 A 
ATOM      9  C   UNL d   1      56.926  -0.544  31.471  0.00  0.00     0.005 A 
ENDBRANCH   2   4
ENDBRANCH   1   2
BRANCH   1  10
ATOM     10  C   UNL d   1      58.590  -0.862  29.602  0.00  0.00     0.168 C 
BRANCH  10  11
ATOM     11  C   UNL d   1      59.319  -1.152  29.371  0.00  0.00     0.226 C 
ATOM     12  O   UNL d   1      60.008  -0.700  29.419  0.00  0.00    -0.284 OA
BRANCH  11  13
ATOM     13  C   UNL d   1      59.347  -1.961  29.068  0.00  0.00     0.070 A 
ATOM     14  S   UNL d   1      60.014  -2.500  29.115  0.00  0.00    -0.083 SA
ATOM     15  C   UNL d   1      59.788  -3.247  28.740  0.00  0.00     0.035 A 
ATOM     16  C   UNL d   1      58.975  -3.169  28.458  0.00  0.00     0.008 A 
ATOM     17  C   UNL d   1      58.699  -2.377  28.659  0.00  0.00     0.010 A 
ENDBRANCH  11  13
ENDBRANCH  10  11
ENDBRANCH   1  10
TORSDOF 5
ENDMDL
MODEL 4
REMARK VINA RESULT:      -3.0      9.021      9.791
REMARK  5 active torsions:
REMARK  status: ('A' for Active; 'I' for Inactive)
REMARK    1  A    between atoms: C_2  and  C_1 
REMARK    2  A    between atoms: C_6  and  C_2 
REMARK    3  A    between atoms: C_3  and  O_5 
REMARK    4  A    between atoms: C_11  and  C_3 
REMARK    5  A    between atoms: O_5  and  C_6 
ROOT
ATOM      1  O   UNL d   1      59.963  -8.809  34.509  0.00  0.00    -0.268 OA
ENDROOT
BRANCH   1   2
ATOM      2  C   UNL d   1      59.835  -8.674  35.318  0.00  0.00     0.300 C 
ATOM      3  O   UNL d   1      59.638  -9.300  35.797  0.00  0.00    -0.259 OA
BRANCH   2   4
ATOM      4  C   UNL d   1      59.905  -7.921  35.632  0.00  0.00     0.064 A 
ATOM      5  C   UNL d   1      59.273  -7.403  35.613  0.00  0.00     0.005 A 
ATOM      6  C   UNL d   1      59.345  -6.653  35.927  0.00  0.00     0.000 A 
ATOM      7  C   UNL d   1      60.050  -6.412  36.263  0.00  0.00     0.000 A 
ATOM      8  C   UNL d   1      60.690  -6.930  36.285  0.00  0.00     0.000 A 
ATOM      9  C   UNL d   1      60.622  -7.688  35.970  0.00  0.00     0.005 A 
ENDBRANCH   2   4
ENDBRANCH   1   2
BRANCH   1  10
ATOM     10  C   UNL d   1      59.517  -9.401  34.119  0.00  0.00     0.168 C 
BRANCH  10  11
ATOM     11  C   UNL d   1      59.703  -9.642  33.358  0.00  0.00     0.226 C 
ATOM     12  O   UNL d   1      60.476  -9.818  33.130  0.00  0.00    -0.284 OA
BRANCH  11  13
ATOM     13  C   UNL d   1      59.053  -9.706  32.792  0.00  0.00     0.070 A 
ATOM     14  S   UNL d   1      59.123  -9.726  31.937  0.00  0.00    -0.083 SA
ATOM     15  C   UNL d   1      58.329  -9.794  31.599  0.00  0.00     0.035 A 
ATOM     16  C   UNL d   1      57.763  -9.818  32.252  0.00  0.00     0.008 A 
ATOM     17  C   UNL d   1      58.206  -9.763  32.990  0.00  0.00     0.010 A 
ENDBRANCH  11  13
ENDBRANCH  10  11
ENDBRANCH   1  10
TORSDOF 5
ENDMDL
MODEL 5
REMARK VINA RESULT:      -2.5      9.222     10.292
REMARK  5 active torsions:
REMARK  status: ('A' for Active; 'I' for Inactive)
REMARK    1  A    between atoms: C_2  and  C_1 
REMARK    2  A    between atoms: C_6  and  C_2 
REMARK    3  A    between atoms: C_3  and  O_5 
REMARK    4  A    between atoms: C_11  and  C_3 
REMARK    5  A    between atoms: O_5  and  C_6 
ROOT
ATOM      1  O   UNL d   1      60.131  -9.089  34.544  0.00  0.00    -0.268 OA
ENDROOT
BRANCH   1   2
ATOM      2  C   UNL d   1      59.609  -9.508  34.054  0.00  0.00     0.300 C 
ATOM      3  O   UNL d   1      58.929  -9.818  34.373  0.00  0.00    -0.259 OA
BRANCH   2   4
ATOM      4  C   UNL d   1      59.775  -9.611  33.258  0.00  0.00     0.064 A 
ATOM      5  C   UNL d   1      60.548  -9.622  32.993  0.00  0.00     0.005 A 
ATOM      6  C   UNL d   1      60.710  -9.725  32.200  0.00  0.00     0.000 A 
ATOM      7  C   UNL d   1      60.102  -9.818  31.662  0.00  0.00     0.000 A 
ATOM      8  C   UNL d   1      59.321  -9.808  31.924  0.00  0.00     0.000 A 
ATOM      9  C   UNL d   1      59.152  -9.705  32.724  0.00  0.00     0.005 A 
ENDBRANCH   2   4
ENDBRANCH   1   2
BRANCH   1  10
ATOM     10  C   UNL d   1      59.839  -8.743  35.249  0.00  0.00     0.168 C 
BRANCH  10  11
ATOM     11  C   UNL d   1      60.344  -8.398  35.794  0.00  0.00     0.226 C 
ATOM     12  O   UNL d   1      60.940  -8.826  36.172  0.00  0.00    -0.284 OA
BRANCH  11  13
ATOM     13  C   UNL d   1      60.232  -7.558  35.964  0.00  0.00     0.070 A 
ATOM     14  S   UNL d   1      59.490  -7.172  36.152  0.00  0.00    -0.083 SA
ATOM     15  C   UNL d   1      59.645  -6.330  36.280  0.00  0.00     0.035 A 
ATOM     16  C   UNL d   1      60.492  -6.195  36.171  0.00  0.00     0.008 A 
ATOM     17  C   UNL d   1      60.858  -6.951  35.976  0.00  0.00     0.010 A 
ENDBRANCH  11  13
ENDBRANCH  10  11
ENDBRANCH   1  10
TORSDOF 5
ENDMDL
