MODEL 1
REMARK VINA RESULT:      -9.8      0.000      0.000
REMARK  6 active torsions:
REMARK  status: ('A' for Active; 'I' for Inactive)
REMARK    1  A    between atoms: N_6  and  C_1 
REMARK    2  A    between atoms: C_3  and  N_6 
REMARK    3  A    between atoms: N_4  and  C_3 
REMARK       I    between atoms: C_9  and  N_4 
REMARK    4  A    between atoms: C_12  and  C_9 
REMARK    5  A    between atoms: C_10  and  C_13 
REMARK    6  A    between atoms: C_16  and  C_10 
ROOT
ATOM      1  N   UNL d   1      49.641  34.844  52.951  0.00  0.00    -0.179 NA
ATOM      2  C   UNL d   1      50.096  34.469  52.410  0.00  0.00     0.281 C 
ATOM      3  O   UNL d   1      49.867  34.485  51.598  0.00  0.00    -0.265 OA
ENDROOT
BRANCH   2   4
ATOM      4  C   UNL d   1      50.782  34.064  52.605  0.00  0.00     0.058 A 
ATOM      5  C   UNL d   1      50.772  33.417  53.117  0.00  0.00     0.005 A 
ATOM      6  C   UNL d   1      51.427  33.030  53.303  0.00  0.00     0.003 A 
ATOM      7  C   UNL d   1      52.158  33.250  52.996  0.00  0.00     0.039 A 
ATOM      8  C   UNL d   1      52.174  33.898  52.482  0.00  0.00     0.003 A 
ATOM      9  C   UNL d   1      51.518  34.285  52.296  0.00  0.00     0.005 A 
BRANCH   7  10
ATOM     10  C   UNL d   1      52.845  32.844  53.191  0.00  0.00     0.196 C 
ATOM     11  O   UNL d   1      53.117  32.206  52.742  0.00  0.00    -0.287 OA
BRANCH  10  12
ATOM     12  C   UNL d   1      53.303  33.054  53.851  0.00  0.00     0.039 A 
ATOM     13  C   UNL d   1      53.528  33.793  53.978  0.00  0.00     0.003 A 
ATOM     14  C   UNL d   1      53.983  33.997  54.634  0.00  0.00     0.000 A 
ATOM     15  C   UNL d   1      54.192  33.389  55.153  0.00  0.00     0.000 A 
ATOM     16  C   UNL d   1      53.967  32.650  55.026  0.00  0.00     0.000 A 
ATOM     17  C   UNL d   1      53.509  32.440  54.366  0.00  0.00     0.003 A 
ENDBRANCH  10  12
ENDBRANCH   7  10
ENDBRANCH   2   4
BRANCH   1  18
ATOM     18  C   UNL d   1      48.992  35.221  52.721  0.00  0.00     0.225 C 
ATOM     19  S   UNL d   1      48.471  34.903  52.198  0.00  0.00    -0.037 SA
BRANCH  18  20
ATOM     20  N   UNL d   1      48.817  35.991  53.026  0.00  0.00    -0.192 NA
BRANCH  20  21
ATOM     21  C   UNL d   1      48.122  36.091  53.464  0.00  0.00     0.196 A 
ATOM     22  N   UNL d   1      47.382  35.889  53.255  0.00  0.00    -0.221 NA
ATOM     23  C   UNL d   1      46.902  36.106  53.881  0.00  0.00     0.090 A 
ATOM     24  C   UNL d   1      46.088  36.045  54.003  0.00  0.00     0.020 A 
ATOM     25  C   UNL d   1      47.400  36.440  54.454  0.00  0.00     0.050 A 
ATOM     26  C   UNL d   1      45.784  36.330  54.721  0.00  0.00     0.002 A 
ATOM     27  C   UNL d   1      46.281  36.663  55.294  0.00  0.00     0.001 A 
ATOM     28  C   UNL d   1      47.077  36.709  55.144  0.00  0.00     0.008 A 
ATOM     29  S   UNL d   1      48.158  36.410  54.150  0.00  0.00    -0.047 SA
ENDBRANCH  20  21
ENDBRANCH  18  20
ENDBRANCH   1  18
TORSDOF 6
ENDMDL
MODEL 2
REMARK VINA RESULT:      -8.8      1.635      6.101
REMARK  6 active torsions:
REMARK  status: ('A' for Active; 'I' for Inactive)
REMARK    1  A    between atoms: N_6  and  C_1 
REMARK    2  A    between atoms: C_3  and  N_6 
REMARK    3  A    between atoms: N_4  and  C_3 
REMARK       I    between atoms: C_9  and  N_4 
REMARK    4  A    between atoms: C_12  and  C_9 
REMARK    5  A    between atoms: C_10  and  C_13 
REMARK    6  A    between atoms: C_16  and  C_10 
ROOT
ATOM      1  N   UNL d   1      50.511  34.369  52.801  0.00  0.00    -0.179 NA
ATOM      2  C   UNL d   1      49.981  34.435  52.206  0.00  0.00     0.281 C 
ATOM      3  O   UNL d   1      50.144  34.064  51.466  0.00  0.00    -0.265 OA
ENDROOT
BRANCH   2   4
ATOM      4  C   UNL d   1      49.278  34.851  52.276  0.00  0.00     0.058 A 
ATOM      5  C   UNL d   1      49.120  35.325  52.932  0.00  0.00     0.005 A 
ATOM      6  C   UNL d   1      48.448  35.723  53.000  0.00  0.00     0.003 A 
ATOM      7  C   UNL d   1      47.867  35.687  52.418  0.00  0.00     0.039 A 
ATOM      8  C   UNL d   1      48.021  35.213  51.758  0.00  0.00     0.003 A 
ATOM      9  C   UNL d   1      48.693  34.815  51.690  0.00  0.00     0.005 A 
BRANCH   7  10
ATOM     10  C   UNL d   1      47.163  36.103  52.489  0.00  0.00     0.196 C 
ATOM     11  O   UNL d   1      46.959  36.709  51.964  0.00  0.00    -0.287 OA
BRANCH  10  12
ATOM     12  C   UNL d   1      46.617  35.938  53.093  0.00  0.00     0.039 A 
ATOM     13  C   UNL d   1      46.755  36.133  53.838  0.00  0.00     0.003 A 
ATOM     14  C   UNL d   1      46.211  35.968  54.433  0.00  0.00     0.000 A 
ATOM     15  C   UNL d   1      45.512  35.588  54.212  0.00  0.00     0.000 A 
ATOM     16  C   UNL d   1      45.373  35.393  53.466  0.00  0.00     0.000 A 
ATOM     17  C   UNL d   1      45.919  35.557  52.863  0.00  0.00     0.003 A 
ENDBRANCH  10  12
ENDBRANCH   7  10
ENDBRANCH   2   4
BRANCH   1  18
ATOM     18  C   UNL d   1      51.173  33.960  52.691  0.00  0.00     0.225 C 
ATOM     19  S   UNL d   1      51.677  34.110  52.083  0.00  0.00    -0.037 SA
BRANCH  18  20
ATOM     20  N   UNL d   1      51.380  33.335  53.224  0.00  0.00    -0.192 NA
BRANCH  20  21
ATOM     21  C   UNL d   1      52.098  33.389  53.631  0.00  0.00     0.196 A 
ATOM     22  N   UNL d   1      52.364  33.997  54.070  0.00  0.00    -0.221 NA
ATOM     23  C   UNL d   1      53.099  33.770  54.349  0.00  0.00     0.090 A 
ATOM     24  C   UNL d   1      53.652  34.152  54.830  0.00  0.00     0.020 A 
ATOM     25  C   UNL d   1      53.240  33.009  54.051  0.00  0.00     0.050 A 
ATOM     26  C   UNL d   1      54.355  33.746  55.004  0.00  0.00     0.002 A 
ATOM     27  C   UNL d   1      54.496  32.986  54.707  0.00  0.00     0.001 A 
ATOM     28  C   UNL d   1      53.932  32.638  54.237  0.00  0.00     0.008 A 
ATOM     29  S   UNL d   1      52.584  32.809  53.605  0.00  0.00    -0.047 SA
ENDBRANCH  20  21
ENDBRANCH  18  20
ENDBRANCH   1  18
TORSDOF 6
ENDMDL
MODEL 3
REMARK VINA RESULT:      -8.8      2.485      6.186
REMARK  6 active torsions:
REMARK  status: ('A' for Active; 'I' for Inactive)
REMARK    1  A    between atoms: N_6  and  C_1 
REMARK    2  A    between atoms: C_3  and  N_6 
REMARK    3  A    between atoms: N_4  and  C_3 
REMARK       I    between atoms: C_9  and  N_4 
REMARK    4  A    between atoms: C_12  and  C_9 
REMARK    5  A    between atoms: C_10  and  C_13 
REMARK    6  A    between atoms: C_16  and  C_10 
ROOT
ATOM      1  N   UNL d   1      52.059  33.375  53.067  0.00  0.00    -0.179 NA
ATOM      2  C   UNL d   1      51.790  34.106  52.886  0.00  0.00     0.281 C 
ATOM      3  O   UNL d   1      52.308  34.767  52.964  0.00  0.00    -0.265 OA
ENDROOT
BRANCH   2   4
ATOM      4  C   UNL d   1      51.026  34.250  52.626  0.00  0.00     0.058 A 
ATOM      5  C   UNL d   1      50.379  34.206  53.135  0.00  0.00     0.005 A 
ATOM      6  C   UNL d   1      49.648  34.343  52.886  0.00  0.00     0.003 A 
ATOM      7  C   UNL d   1      49.492  34.539  52.102  0.00  0.00     0.039 A 
ATOM      8  C   UNL d   1      50.137  34.585  51.587  0.00  0.00     0.003 A 
ATOM      9  C   UNL d   1      50.867  34.447  51.836  0.00  0.00     0.005 A 
BRANCH   7  10
ATOM     10  C   UNL d   1      48.727  34.683  51.841  0.00  0.00     0.196 C 
ATOM     11  O   UNL d   1      48.356  34.196  51.285  0.00  0.00    -0.287 OA
BRANCH  10  12
ATOM     12  C   UNL d   1      48.283  35.327  52.123  0.00  0.00     0.039 A 
ATOM     13  C   UNL d   1      48.297  35.539  52.876  0.00  0.00     0.003 A 
ATOM     14  C   UNL d   1      47.857  36.177  53.151  0.00  0.00     0.000 A 
ATOM     15  C   UNL d   1      47.398  36.586  52.599  0.00  0.00     0.000 A 
ATOM     16  C   UNL d   1      47.385  36.375  51.845  0.00  0.00     0.000 A 
ATOM     17  C   UNL d   1      47.827  35.731  51.564  0.00  0.00     0.003 A 
ENDBRANCH  10  12
ENDBRANCH   7  10
ENDBRANCH   2   4
BRANCH   1  18
ATOM     18  C   UNL d   1      52.799  33.281  53.313  0.00  0.00     0.225 C 
ATOM     19  S   UNL d   1      53.101  33.690  53.936  0.00  0.00    -0.037 SA
BRANCH  18  20
ATOM     20  N   UNL d   1      53.311  32.733  52.920  0.00  0.00    -0.192 NA
BRANCH  20  21
ATOM     21  C   UNL d   1      53.227  31.928  53.089  0.00  0.00     0.196 A 
ATOM     22  N   UNL d   1      52.726  31.409  52.754  0.00  0.00    -0.221 NA
ATOM     23  C   UNL d   1      52.866  30.691  53.118  0.00  0.00     0.090 A 
ATOM     24  C   UNL d   1      52.529  29.943  53.018  0.00  0.00     0.020 A 
ATOM     25  C   UNL d   1      53.467  30.821  53.674  0.00  0.00     0.050 A 
ATOM     26  C   UNL d   1      52.814  29.325  53.494  0.00  0.00     0.002 A 
ATOM     27  C   UNL d   1      53.415  29.456  54.050  0.00  0.00     0.001 A 
ATOM     28  C   UNL d   1      53.726  30.202  54.124  0.00  0.00     0.008 A 
ATOM     29  S   UNL d   1      53.665  31.613  53.622  0.00  0.00    -0.047 SA
ENDBRANCH  20  21
ENDBRANCH  18  20
ENDBRANCH   1  18
TORSDOF 6
ENDMDL
