MODEL 1
REMARK VINA RESULT:      25.5      0.000      0.000
REMARK  4 active torsions:
REMARK  status: ('A' for Active; 'I' for Inactive)
REMARK    1  A    between atoms: C_7  and  C_2 
REMARK    2  A    between atoms: O_8  and  C_7 
REMARK    3  A    between atoms: C_9  and  O_8 
REMARK    4  A    between atoms: O_11  and  C_10 
ROOT
ATOM      1  C   UNL d   1     -56.673 -98.826 -44.780  0.00  0.00     0.161 C 
ENDROOT
BRANCH   1   2
ATOM      2  C   UNL d   1     -56.227 -99.513 -44.715  0.00  0.00     0.188 A 
ATOM      3  N   UNL d   1     -55.982 -99.650 -43.924  0.00  0.00    -0.224 NA
ATOM      4  C   UNL d   1     -55.537-100.352 -43.917  0.00  0.00     0.101 A 
ATOM      5  C   UNL d   1     -55.504-100.648 -44.690  0.00  0.00     0.101 A 
ATOM      6  C   UNL d   1     -55.165-100.747 -43.300  0.00  0.00     0.021 A 
ATOM      7  C   UNL d   1     -55.089-101.351 -44.835  0.00  0.00     0.021 A 
ATOM      8  N   UNL d   1     -55.928-100.134 -45.182  0.00  0.00    -0.224 NA
ATOM      9  C   UNL d   1     -54.717-101.746 -44.219  0.00  0.00     0.002 A 
ATOM     10  C   UNL d   1     -54.754-101.443 -43.449  0.00  0.00     0.002 A 
ENDBRANCH   1   2
BRANCH   1  11
ATOM     11  O   UNL d   1     -57.284 -98.782 -45.318  0.00  0.00    -0.302 OA
BRANCH  11  12
ATOM     12  C   UNL d   1     -58.069 -98.774 -45.059  0.00  0.00     0.102 A 
ATOM     13  C   UNL d   1     -58.228 -98.772 -44.254  0.00  0.00     0.049 A 
ATOM     14  C   UNL d   1     -59.014 -98.764 -43.995  0.00  0.00     0.096 A 
ATOM     15  C   UNL d   1     -59.628 -98.759 -44.548  0.00  0.00     0.024 A 
ATOM     16  C   UNL d   1     -59.458 -98.761 -45.360  0.00  0.00     0.004 A 
ATOM     17  C   UNL d   1     -58.672 -98.769 -45.604  0.00  0.00     0.025 A 
BRANCH  14  18
ATOM     18  O   UNL d   1     -59.183 -98.762 -43.189  0.00  0.00    -0.328 OA
ATOM     19  C   UNL d   1     -59.729 -99.304 -42.884  0.00  0.00     0.181 C 
ENDBRANCH  14  18
ENDBRANCH  11  12
ENDBRANCH   1  11
TORSDOF 4
ENDMDL
