MODEL 1
REMARK VINA RESULT:      51.7      0.000      0.000
REMARK  4 active torsions:
REMARK  status: ('A' for Active; 'I' for Inactive)
REMARK    1  A    between atoms: N_6  and  S_1 
REMARK    2  A    between atoms: C_7  and  S_1 
REMARK    3  A    between atoms: C_13  and  N_6 
REMARK    4  A    between atoms: O_18  and  C_15 
ROOT
ATOM      1  S   UNL d   1     -55.691-101.940 -42.435  0.00  0.00     0.285 S 
ATOM      2  O   UNL d   1     -56.427-101.979 -42.789  0.00  0.00    -0.198 OA
ATOM      3  O   UNL d   1     -55.996-102.305 -41.761  0.00  0.00    -0.198 OA
ENDROOT
BRANCH   1   4
ATOM      4  N   UNL d   1     -54.950-101.902 -42.074  0.00  0.00    -0.158 NA
BRANCH   4   5
ATOM      5  C   UNL d   1     -54.893-101.798 -41.253  0.00  0.00     0.095 A 
ATOM      6  C   UNL d   1     -54.959-102.450 -40.752  0.00  0.00     0.040 A 
ATOM      7  C   UNL d   1     -54.901-102.338 -39.940  0.00  0.00     0.089 A 
ATOM      8  N   UNL d   1     -54.945-102.879 -39.311  0.00  0.00    -0.238 NA
ATOM      9  C   UNL d   1     -54.779-101.594 -39.621  0.00  0.00     0.049 A 
ATOM     10  C   UNL d   1     -54.850-102.461 -38.611  0.00  0.00     0.111 A 
ATOM     11  C   UNL d   1     -54.855-102.779 -37.839  0.00  0.00     0.028 C 
ATOM     12  S   UNL d   1     -54.746-101.663 -38.801  0.00  0.00    -0.066 SA
ATOM     13  C   UNL d   1     -54.712-100.938 -40.130  0.00  0.00     0.010 A 
ATOM     14  C   UNL d   1     -54.770-101.048 -40.948  0.00  0.00     0.021 A 
ENDBRANCH   4   5
ENDBRANCH   1   4
BRANCH   1  15
ATOM     15  C   UNL d   1     -55.379-101.574 -43.105  0.00  0.00     0.107 A 
ATOM     16  C   UNL d   1     -55.364-100.749 -43.164  0.00  0.00     0.037 A 
ATOM     17  C   UNL d   1     -55.051-100.391 -43.837  0.00  0.00     0.095 A 
ATOM     18  C   UNL d   1     -54.752-100.857 -44.453  0.00  0.00     0.024 A 
ATOM     19  C   UNL d   1     -54.769-101.678 -44.392  0.00  0.00     0.003 A 
ATOM     20  C   UNL d   1     -55.082-102.037 -43.718  0.00  0.00     0.013 A 
BRANCH  17  21
ATOM     21  O   UNL d   1     -55.034 -99.570 -43.899  0.00  0.00    -0.328 OA
ATOM     22  C   UNL d   1     -54.813 -99.212 -44.608  0.00  0.00     0.181 C 
ENDBRANCH  17  21
ENDBRANCH   1  15
TORSDOF 4
ENDMDL
