MODEL 1
REMARK VINA RESULT:      -7.8      0.000      0.000
REMARK  5 active torsions:
REMARK  status: ('A' for Active; 'I' for Inactive)
REMARK    1  A    between atoms: C_8  and  C_1 
REMARK    2  A    between atoms: C_6  and  O_10 
REMARK       I    between atoms: N_7  and  C_6 
REMARK    3  A    between atoms: C_15  and  C_8 
REMARK    4  A    between atoms: O_10  and  C_12 
REMARK    5  A    between atoms: C_27  and  C_18 
ROOT
ATOM      1  C   UNL d   1     -48.914  12.143  23.087  0.00  0.00     0.139 A 
ATOM      2  C   UNL d   1     -47.730  11.606  23.425  0.00  0.00     0.064 A 
ATOM      3  C   UNL d   1     -48.546  11.482  23.418  0.00  0.00     0.220 A 
ATOM      4  C   UNL d   1     -47.584  12.346  23.098  0.00  0.00     0.105 A 
ATOM      5  O   UNL d   1     -48.317  12.688  22.884  0.00  0.00    -0.304 OA
ATOM      6  C   UNL d   1     -46.814  12.621  23.032  0.00  0.00     0.050 A 
ATOM      7  C   UNL d   1     -47.108  11.137  23.689  0.00  0.00     0.007 A 
ATOM      8  C   UNL d   1     -46.198  12.158  23.293  0.00  0.00     0.107 A 
ATOM      9  O   UNL d   1     -48.944  10.804  23.698  0.00  0.00    -0.284 OA
ATOM     10  C   UNL d   1     -46.336  11.417  23.621  0.00  0.00     0.025 A 
ENDROOT
BRANCH   1  11
ATOM     11  C   UNL d   1     -49.725  12.253  22.973  0.00  0.00     0.028 C 
BRANCH  11  12
ATOM     12  C   UNL d   1     -50.042  13.014  22.979  0.00  0.00     0.002 A 
ATOM     13  C   UNL d   1     -50.071  13.442  23.680  0.00  0.00     0.000 A 
ATOM     14  C   UNL d   1     -50.387  14.206  23.698  0.00  0.00     0.000 A 
ATOM     15  C   UNL d   1     -50.678  14.539  22.995  0.00  0.00     0.000 A 
ATOM     16  C   UNL d   1     -50.649  14.107  22.287  0.00  0.00     0.000 A 
ATOM     17  C   UNL d   1     -50.330  13.343  22.283  0.00  0.00     0.000 A 
BRANCH  15  18
ATOM     18  C   UNL d   1     -50.996  15.303  23.004  0.00  0.00     0.000 C 
ATOM     19  C   UNL d   1     -50.653  15.888  23.469  0.00  0.00     0.000 C 
ENDBRANCH  15  18
ENDBRANCH  11  12
ENDBRANCH   1  11
BRANCH   8  20
ATOM     20  O   UNL d   1     -45.419  12.432  23.228  0.00  0.00    -0.259 OA
BRANCH  20  21
ATOM     21  C   UNL d   1     -45.168  12.837  22.547  0.00  0.00     0.378 C 
ATOM     22  N   UNL d   1     -44.447  12.656  22.200  0.00  0.00    -0.247 N 
ATOM     23  C   UNL d   1     -43.962  12.062  22.529  0.00  0.00     0.112 A 
ATOM     24  C   UNL d   1     -44.194  13.051  21.529  0.00  0.00     0.112 A 
ATOM     25  C   UNL d   1     -43.235  11.874  22.185  0.00  0.00     0.142 A 
ATOM     26  O   UNL d   1     -42.989  12.286  21.501  0.00  0.00    -0.300 OA
ATOM     27  C   UNL d   1     -43.467  12.870  21.176  0.00  0.00     0.142 A 
ATOM     28  O   UNL d   1     -45.646  13.422  22.222  0.00  0.00    -0.237 OA
ENDBRANCH  20  21
ENDBRANCH   8  20
TORSDOF 5
ENDMDL
MODEL 2
REMARK VINA RESULT:      -6.9      8.305     10.285
REMARK  5 active torsions:
REMARK  status: ('A' for Active; 'I' for Inactive)
REMARK    1  A    between atoms: C_8  and  C_1 
REMARK    2  A    between atoms: C_6  and  O_10 
REMARK       I    between atoms: N_7  and  C_6 
REMARK    3  A    between atoms: C_15  and  C_8 
REMARK    4  A    between atoms: O_10  and  C_12 
REMARK    5  A    between atoms: C_27  and  C_18 
ROOT
ATOM      1  C   UNL d   1     -39.786  15.800  17.740  0.00  0.00     0.139 A 
ATOM      2  C   UNL d   1     -40.410  15.691  18.924  0.00  0.00     0.064 A 
ATOM      3  C   UNL d   1     -40.521  15.810  18.115  0.00  0.00     0.220 A 
ATOM      4  C   UNL d   1     -39.604  15.607  19.059  0.00  0.00     0.105 A 
ATOM      5  O   UNL d   1     -39.207  15.674  18.326  0.00  0.00    -0.304 OA
ATOM      6  C   UNL d   1     -39.326  15.482  19.820  0.00  0.00     0.050 A 
ATOM      7  C   UNL d   1     -40.943  15.650  19.549  0.00  0.00     0.007 A 
ATOM      8  C   UNL d   1     -39.853  15.441  20.439  0.00  0.00     0.107 A 
ATOM      9  O   UNL d   1     -41.253  15.922  17.728  0.00  0.00    -0.284 OA
ATOM     10  C   UNL d   1     -40.661  15.524  20.312  0.00  0.00     0.025 A 
ENDROOT
BRANCH   1  11
ATOM     11  C   UNL d   1     -39.640  15.898  16.932  0.00  0.00     0.028 C 
BRANCH  11  12
ATOM     12  C   UNL d   1     -39.214  15.326  16.519  0.00  0.00     0.002 A 
ATOM     13  C   UNL d   1     -39.542  14.583  16.389  0.00  0.00     0.000 A 
ATOM     14  C   UNL d   1     -39.124  14.002  15.975  0.00  0.00     0.000 A 
ATOM     15  C   UNL d   1     -38.364  14.176  15.689  0.00  0.00     0.000 A 
ATOM     16  C   UNL d   1     -38.033  14.926  15.820  0.00  0.00     0.000 A 
ATOM     17  C   UNL d   1     -38.462  15.499  16.236  0.00  0.00     0.000 A 
BRANCH  15  18
ATOM     18  C   UNL d   1     -37.940  13.601  15.275  0.00  0.00     0.000 C 
ATOM     19  C   UNL d   1     -38.216  13.324  14.552  0.00  0.00     0.000 C 
ENDBRANCH  15  18
ENDBRANCH  11  12
ENDBRANCH   1  11
BRANCH   8  20
ATOM     20  O   UNL d   1     -39.576  15.314  21.209  0.00  0.00    -0.259 OA
BRANCH  20  21
ATOM     21  C   UNL d   1     -39.410  14.545  21.478  0.00  0.00     0.378 C 
ATOM     22  N   UNL d   1     -39.063  14.429  22.212  0.00  0.00    -0.247 N 
ATOM     23  C   UNL d   1     -38.873  15.085  22.694  0.00  0.00     0.112 A 
ATOM     24  C   UNL d   1     -38.897  13.675  22.484  0.00  0.00     0.112 A 
ATOM     25  C   UNL d   1     -38.523  14.976  23.434  0.00  0.00     0.142 A 
ATOM     26  O   UNL d   1     -38.360  14.200  23.697  0.00  0.00    -0.300 OA
ATOM     27  C   UNL d   1     -38.546  13.555  23.223  0.00  0.00     0.142 A 
ATOM     28  O   UNL d   1     -39.596  13.900  21.005  0.00  0.00    -0.237 OA
ENDBRANCH  20  21
ENDBRANCH   8  20
TORSDOF 5
ENDMDL
MODEL 3
REMARK VINA RESULT:      -6.5      1.892      6.140
REMARK  5 active torsions:
REMARK  status: ('A' for Active; 'I' for Inactive)
REMARK    1  A    between atoms: C_8  and  C_1 
REMARK    2  A    between atoms: C_6  and  O_10 
REMARK       I    between atoms: N_7  and  C_6 
REMARK    3  A    between atoms: C_15  and  C_8 
REMARK    4  A    between atoms: O_10  and  C_12 
REMARK    5  A    between atoms: C_27  and  C_18 
ROOT
ATOM      1  C   UNL d   1     -43.607  12.582  21.693  0.00  0.00     0.139 A 
ATOM      2  C   UNL d   1     -44.718  12.442  22.435  0.00  0.00     0.064 A 
ATOM      3  C   UNL d   1     -43.982  12.113  22.261  0.00  0.00     0.220 A 
ATOM      4  C   UNL d   1     -44.809  13.118  21.977  0.00  0.00     0.105 A 
ATOM      5  O   UNL d   1     -44.121  13.214  21.512  0.00  0.00    -0.304 OA
ATOM      6  C   UNL d   1     -45.495  13.565  22.033  0.00  0.00     0.050 A 
ATOM      7  C   UNL d   1     -45.314  12.207  22.952  0.00  0.00     0.007 A 
ATOM      8  C   UNL d   1     -46.084  13.333  22.545  0.00  0.00     0.107 A 
ATOM      9  O   UNL d   1     -43.658  11.421  22.597  0.00  0.00    -0.284 OA
ATOM     10  C   UNL d   1     -46.001  12.657  23.006  0.00  0.00     0.025 A 
ENDROOT
BRANCH   1  11
ATOM     11  C   UNL d   1     -42.862  12.457  21.361  0.00  0.00     0.028 C 
BRANCH  11  12
ATOM     12  C   UNL d   1     -42.364  13.097  21.212  0.00  0.00     0.002 A 
ATOM     13  C   UNL d   1     -41.815  13.331  21.777  0.00  0.00     0.000 A 
ATOM     14  C   UNL d   1     -41.310  13.972  21.637  0.00  0.00     0.000 A 
ATOM     15  C   UNL d   1     -41.365  14.380  20.917  0.00  0.00     0.000 A 
ATOM     16  C   UNL d   1     -41.920  14.144  20.346  0.00  0.00     0.000 A 
ATOM     17  C   UNL d   1     -42.418  13.501  20.498  0.00  0.00     0.000 A 
BRANCH  15  18
ATOM     18  C   UNL d   1     -40.864  15.022  20.770  0.00  0.00     0.000 C 
ATOM     19  C   UNL d   1     -41.152  15.790  20.821  0.00  0.00     0.000 C 
ENDBRANCH  15  18
ENDBRANCH  11  12
ENDBRANCH   1  11
BRANCH   8  20
ATOM     20  O   UNL d   1     -46.778  13.780  22.605  0.00  0.00    -0.259 OA
BRANCH  20  21
ATOM     21  C   UNL d   1     -47.476  13.531  22.229  0.00  0.00     0.378 C 
ATOM     22  N   UNL d   1     -48.159  13.983  22.282  0.00  0.00    -0.247 N 
ATOM     23  C   UNL d   1     -48.156  14.697  22.716  0.00  0.00     0.112 A 
ATOM     24  C   UNL d   1     -48.850  13.744  21.914  0.00  0.00     0.112 A 
ATOM     25  C   UNL d   1     -48.839  15.156  22.773  0.00  0.00     0.142 A 
ATOM     26  O   UNL d   1     -49.537  14.899  22.393  0.00  0.00    -0.300 OA
ATOM     27  C   UNL d   1     -49.540  14.197  21.966  0.00  0.00     0.142 A 
ATOM     28  O   UNL d   1     -47.480  12.829  21.802  0.00  0.00    -0.237 OA
ENDBRANCH  20  21
ENDBRANCH   8  20
TORSDOF 5
ENDMDL
MODEL 4
REMARK VINA RESULT:      -6.3      2.053      3.690
REMARK  5 active torsions:
REMARK  status: ('A' for Active; 'I' for Inactive)
REMARK    1  A    between atoms: C_8  and  C_1 
REMARK    2  A    between atoms: C_6  and  O_10 
REMARK       I    between atoms: N_7  and  C_6 
REMARK    3  A    between atoms: C_15  and  C_8 
REMARK    4  A    between atoms: O_10  and  C_12 
REMARK    5  A    between atoms: C_27  and  C_18 
ROOT
ATOM      1  C   UNL d   1     -45.419  12.664  22.604  0.00  0.00     0.139 A 
ATOM      2  C   UNL d   1     -44.172  12.309  22.252  0.00  0.00     0.064 A 
ATOM      3  C   UNL d   1     -44.825  12.100  22.710  0.00  0.00     0.220 A 
ATOM      4  C   UNL d   1     -44.354  13.007  21.856  0.00  0.00     0.105 A 
ATOM      5  O   UNL d   1     -45.129  13.235  22.070  0.00  0.00    -0.304 OA
ATOM      6  C   UNL d   1     -43.803  13.350  21.355  0.00  0.00     0.050 A 
ATOM      7  C   UNL d   1     -43.439  11.951  22.148  0.00  0.00     0.007 A 
ATOM      8  C   UNL d   1     -43.078  12.996  21.252  0.00  0.00     0.107 A 
ATOM      9  O   UNL d   1     -44.887  11.429  23.204  0.00  0.00    -0.284 OA
ATOM     10  C   UNL d   1     -42.888  12.298  21.643  0.00  0.00     0.025 A 
ENDROOT
BRANCH   1  11
ATOM     11  C   UNL d   1     -46.165  12.671  22.958  0.00  0.00     0.028 C 
BRANCH  11  12
ATOM     12  C   UNL d   1     -46.699  13.273  22.782  0.00  0.00     0.002 A 
ATOM     13  C   UNL d   1     -47.324  13.130  22.267  0.00  0.00     0.000 A 
ATOM     14  C   UNL d   1     -47.867  13.728  22.082  0.00  0.00     0.000 A 
ATOM     15  C   UNL d   1     -47.773  14.477  22.425  0.00  0.00     0.000 A 
ATOM     16  C   UNL d   1     -47.143  14.622  22.945  0.00  0.00     0.000 A 
ATOM     17  C   UNL d   1     -46.607  14.016  23.121  0.00  0.00     0.000 A 
BRANCH  15  18
ATOM     18  C   UNL d   1     -48.311  15.080  22.246  0.00  0.00     0.000 C 
ATOM     19  C   UNL d   1     -49.004  15.158  22.681  0.00  0.00     0.000 C 
ENDBRANCH  15  18
ENDBRANCH  11  12
ENDBRANCH   1  11
BRANCH   8  20
ATOM     20  O   UNL d   1     -42.519  13.339  20.746  0.00  0.00    -0.259 OA
BRANCH  20  21
ATOM     21  C   UNL d   1     -41.857  13.737  21.054  0.00  0.00     0.378 C 
ATOM     22  N   UNL d   1     -41.306  14.077  20.550  0.00  0.00    -0.247 N 
ATOM     23  C   UNL d   1     -41.408  14.024  19.723  0.00  0.00     0.112 A 
ATOM     24  C   UNL d   1     -40.652  14.470  20.846  0.00  0.00     0.112 A 
ATOM     25  C   UNL d   1     -40.857  14.364  19.209  0.00  0.00     0.142 A 
ATOM     26  O   UNL d   1     -40.195  14.762  19.526  0.00  0.00    -0.300 OA
ATOM     27  C   UNL d   1     -40.095  14.813  20.340  0.00  0.00     0.142 A 
ATOM     28  O   UNL d   1     -41.756  13.789  21.868  0.00  0.00    -0.237 OA
ENDBRANCH  20  21
ENDBRANCH   8  20
TORSDOF 5
ENDMDL
MODEL 5
REMARK VINA RESULT:      -5.5      1.290      2.158
REMARK  5 active torsions:
REMARK  status: ('A' for Active; 'I' for Inactive)
REMARK    1  A    between atoms: C_8  and  C_1 
REMARK    2  A    between atoms: C_6  and  O_10 
REMARK       I    between atoms: N_7  and  C_6 
REMARK    3  A    between atoms: C_15  and  C_8 
REMARK    4  A    between atoms: O_10  and  C_12 
REMARK    5  A    between atoms: C_27  and  C_18 
ROOT
ATOM      1  C   UNL d   1     -47.241  12.532  23.138  0.00  0.00     0.139 A 
ATOM      2  C   UNL d   1     -45.950  12.221  22.936  0.00  0.00     0.064 A 
ATOM      3  C   UNL d   1     -46.656  11.966  23.278  0.00  0.00     0.220 A 
ATOM      4  C   UNL d   1     -46.090  12.949  22.581  0.00  0.00     0.105 A 
ATOM      5  O   UNL d   1     -46.892  13.150  22.702  0.00  0.00    -0.304 OA
ATOM      6  C   UNL d   1     -45.482  13.341  22.194  0.00  0.00     0.050 A 
ATOM      7  C   UNL d   1     -45.201  11.881  22.907  0.00  0.00     0.007 A 
ATOM      8  C   UNL d   1     -44.742  13.005  22.165  0.00  0.00     0.107 A 
ATOM      9  O   UNL d   1     -46.771  11.253  23.698  0.00  0.00    -0.284 OA
ATOM     10  C   UNL d   1     -44.593  12.277  22.517  0.00  0.00     0.025 A 
ENDROOT
BRANCH   1  11
ATOM     11  C   UNL d   1     -48.030  12.499  23.382  0.00  0.00     0.028 C 
BRANCH  11  12
ATOM     12  C   UNL d   1     -48.630  12.728  22.865  0.00  0.00     0.002 A 
ATOM     13  C   UNL d   1     -48.982  12.172  22.372  0.00  0.00     0.000 A 
ATOM     14  C   UNL d   1     -49.586  12.390  21.850  0.00  0.00     0.000 A 
ATOM     15  C   UNL d   1     -49.834  13.182  21.829  0.00  0.00     0.000 A 
ATOM     16  C   UNL d   1     -49.479  13.743  22.326  0.00  0.00     0.000 A 
ATOM     17  C   UNL d   1     -48.876  13.512  22.844  0.00  0.00     0.000 A 
BRANCH  15  18
ATOM     18  C   UNL d   1     -50.437  13.408  21.310  0.00  0.00     0.000 C 
ATOM     19  C   UNL d   1     -51.017  13.937  21.555  0.00  0.00     0.000 C 
ENDBRANCH  15  18
ENDBRANCH  11  12
ENDBRANCH   1  11
BRANCH   8  20
ATOM     20  O   UNL d   1     -44.125  13.397  21.775  0.00  0.00    -0.259 OA
BRANCH  20  21
ATOM     21  C   UNL d   1     -43.447  12.983  21.530  0.00  0.00     0.378 C 
ATOM     22  N   UNL d   1     -42.779  13.390  21.282  0.00  0.00    -0.247 N 
ATOM     23  C   UNL d   1     -42.778  14.225  21.275  0.00  0.00     0.112 A 
ATOM     24  C   UNL d   1     -42.109  12.989  21.040  0.00  0.00     0.112 A 
ATOM     25  C   UNL d   1     -42.109  14.642  21.026  0.00  0.00     0.142 A 
ATOM     26  O   UNL d   1     -41.432  14.218  20.782  0.00  0.00    -0.300 OA
ATOM     27  C   UNL d   1     -41.434  13.396  20.790  0.00  0.00     0.142 A 
ATOM     28  O   UNL d   1     -43.448  12.161  21.538  0.00  0.00    -0.237 OA
ENDBRANCH  20  21
ENDBRANCH   8  20
TORSDOF 5
ENDMDL
MODEL 6
REMARK VINA RESULT:      -5.5      1.581      5.585
REMARK  5 active torsions:
REMARK  status: ('A' for Active; 'I' for Inactive)
REMARK    1  A    between atoms: C_8  and  C_1 
REMARK    2  A    between atoms: C_6  and  O_10 
REMARK       I    between atoms: N_7  and  C_6 
REMARK    3  A    between atoms: C_15  and  C_8 
REMARK    4  A    between atoms: O_10  and  C_12 
REMARK    5  A    between atoms: C_27  and  C_18 
ROOT
ATOM      1  C   UNL d   1     -45.635  12.024  23.072  0.00  0.00     0.139 A 
ATOM      2  C   UNL d   1     -46.922  12.172  23.424  0.00  0.00     0.064 A 
ATOM      3  C   UNL d   1     -46.285  11.648  23.413  0.00  0.00     0.220 A 
ATOM      4  C   UNL d   1     -46.673  12.880  23.089  0.00  0.00     0.105 A 
ATOM      5  O   UNL d   1     -45.871  12.797  22.867  0.00  0.00    -0.304 OA
ATOM      6  C   UNL d   1     -47.195  13.510  23.024  0.00  0.00     0.050 A 
ATOM      7  C   UNL d   1     -47.694  12.089  23.696  0.00  0.00     0.007 A 
ATOM      8  C   UNL d   1     -47.958  13.429  23.294  0.00  0.00     0.107 A 
ATOM      9  O   UNL d   1     -46.287  10.863  23.698  0.00  0.00    -0.284 OA
ATOM     10  C   UNL d   1     -48.215  12.724  23.630  0.00  0.00     0.025 A 
ENDROOT
BRANCH   1  11
ATOM     11  C   UNL d   1     -44.883  11.703  22.952  0.00  0.00     0.028 C 
BRANCH  11  12
ATOM     12  C   UNL d   1     -44.356  12.071  22.436  0.00  0.00     0.002 A 
ATOM     13  C   UNL d   1     -43.555  11.886  22.466  0.00  0.00     0.000 A 
ATOM     14  C   UNL d   1     -43.017  12.249  21.953  0.00  0.00     0.000 A 
ATOM     15  C   UNL d   1     -43.295  12.804  21.403  0.00  0.00     0.000 A 
ATOM     16  C   UNL d   1     -44.103  12.991  21.372  0.00  0.00     0.000 A 
ATOM     17  C   UNL d   1     -44.631  12.621  21.891  0.00  0.00     0.000 A 
BRANCH  15  18
ATOM     18  C   UNL d   1     -42.763  13.171  20.886  0.00  0.00     0.000 C 
ATOM     19  C   UNL d   1     -42.059  13.485  21.171  0.00  0.00     0.000 C 
ENDBRANCH  15  18
ENDBRANCH  11  12
ENDBRANCH   1  11
BRANCH   8  20
ATOM     20  O   UNL d   1     -48.487  14.063  23.231  0.00  0.00    -0.259 OA
BRANCH  20  21
ATOM     21  C   UNL d   1     -49.115  14.038  22.686  0.00  0.00     0.378 C 
ATOM     22  N   UNL d   1     -49.752  14.549  22.764  0.00  0.00    -0.247 N 
ATOM     23  C   UNL d   1     -49.773  15.098  23.392  0.00  0.00     0.112 A 
ATOM     24  C   UNL d   1     -50.373  14.530  22.231  0.00  0.00     0.112 A 
ATOM     25  C   UNL d   1     -50.410  15.616  23.477  0.00  0.00     0.142 A 
ATOM     26  O   UNL d   1     -51.037  15.585  22.925  0.00  0.00    -0.300 OA
ATOM     27  C   UNL d   1     -51.016  15.044  22.306  0.00  0.00     0.142 A 
ATOM     28  O   UNL d   1     -49.094  13.497  22.067  0.00  0.00    -0.237 OA
ENDBRANCH  20  21
ENDBRANCH   8  20
TORSDOF 5
ENDMDL
MODEL 7
REMARK VINA RESULT:      -5.3      1.633      2.593
REMARK  5 active torsions:
REMARK  status: ('A' for Active; 'I' for Inactive)
REMARK    1  A    between atoms: C_8  and  C_1 
REMARK    2  A    between atoms: C_6  and  O_10 
REMARK       I    between atoms: N_7  and  C_6 
REMARK    3  A    between atoms: C_15  and  C_8 
REMARK    4  A    between atoms: O_10  and  C_12 
REMARK    5  A    between atoms: C_27  and  C_18 
ROOT
ATOM      1  C   UNL d   1     -47.550  14.400  22.921  0.00  0.00     0.139 A 
ATOM      2  C   UNL d   1     -46.297  14.065  22.572  0.00  0.00     0.064 A 
ATOM      3  C   UNL d   1     -46.892  14.628  22.477  0.00  0.00     0.220 A 
ATOM      4  C   UNL d   1     -46.579  13.481  23.077  0.00  0.00     0.105 A 
ATOM      5  O   UNL d   1     -47.360  13.682  23.299  0.00  0.00    -0.304 OA
ATOM      6  C   UNL d   1     -46.103  12.843  23.274  0.00  0.00     0.050 A 
ATOM      7  C   UNL d   1     -45.537  14.014  22.261  0.00  0.00     0.007 A 
ATOM      8  C   UNL d   1     -45.351  12.793  22.967  0.00  0.00     0.107 A 
ATOM      9  O   UNL d   1     -46.848  15.319  22.010  0.00  0.00    -0.284 OA
ATOM     10  C   UNL d   1     -45.061  13.372  22.462  0.00  0.00     0.025 A 
ENDROOT
BRANCH   1  11
ATOM     11  C   UNL d   1     -48.268  14.803  22.985  0.00  0.00     0.028 C 
BRANCH  11  12
ATOM     12  C   UNL d   1     -48.966  14.444  22.731  0.00  0.00     0.002 A 
ATOM     13  C   UNL d   1     -49.348  13.901  23.215  0.00  0.00     0.000 A 
ATOM     14  C   UNL d   1     -50.049  13.535  22.971  0.00  0.00     0.000 A 
ATOM     15  C   UNL d   1     -50.364  13.723  22.226  0.00  0.00     0.000 A 
ATOM     16  C   UNL d   1     -49.978  14.271  21.738  0.00  0.00     0.000 A 
ATOM     17  C   UNL d   1     -49.278  14.630  21.994  0.00  0.00     0.000 A 
BRANCH  15  18
ATOM     18  C   UNL d   1     -51.064  13.361  21.974  0.00  0.00     0.000 C 
ATOM     19  C   UNL d   1     -51.050  12.595  21.678  0.00  0.00     0.000 C 
ENDBRANCH  15  18
ENDBRANCH  11  12
ENDBRANCH   1  11
BRANCH   8  20
ATOM     20  O   UNL d   1     -44.867  12.150  23.164  0.00  0.00    -0.259 OA
BRANCH  20  21
ATOM     21  C   UNL d   1     -45.195  11.397  23.295  0.00  0.00     0.378 C 
ATOM     22  N   UNL d   1     -44.708  10.746  23.401  0.00  0.00    -0.247 N 
ATOM     23  C   UNL d   1     -43.878  10.836  23.377  0.00  0.00     0.112 A 
ATOM     24  C   UNL d   1     -45.024  10.002  23.531  0.00  0.00     0.112 A 
ATOM     25  C   UNL d   1     -43.381  10.185  23.482  0.00  0.00     0.142 A 
ATOM     26  O   UNL d   1     -43.718   9.432  23.614  0.00  0.00    -0.300 OA
ATOM     27  C   UNL d   1     -44.535   9.343  23.638  0.00  0.00     0.142 A 
ATOM     28  O   UNL d   1     -46.012  11.308  23.319  0.00  0.00    -0.237 OA
ENDBRANCH  20  21
ENDBRANCH   8  20
TORSDOF 5
ENDMDL
