MODEL 1
REMARK VINA RESULT:      -1.7      0.000      0.000
REMARK  5 active torsions:
REMARK  status: ('A' for Active; 'I' for Inactive)
REMARK    1  A    between atoms: C_2  and  S_1 
REMARK    2  A    between atoms: N_3  and  S_1 
REMARK    3  A    between atoms: C_21  and  N_8 
REMARK    4  A    between atoms: O_26  and  C_16 
REMARK    5  A    between atoms: C_19  and  C_21 
ROOT
ATOM      1  N   UNL d   1      57.527  -0.005  31.558  0.00  0.00    -0.226 N 
ATOM      2  N   UNL d   1      58.007  -0.297  30.006  0.00  0.00    -0.300 N 
ATOM      3  C   UNL d   1      57.540  -0.783  31.262  0.00  0.00     0.111 A 
ATOM      4  C   UNL d   1      57.756   0.618  31.071  0.00  0.00     0.111 A 
ATOM      5  C   UNL d   1      57.781  -0.919  30.485  0.00  0.00     0.100 A 
ATOM      6  C   UNL d   1      57.995   0.481  30.303  0.00  0.00     0.100 A 
ENDROOT
BRANCH   1   7
ATOM      7  S   UNL d   1      57.287   0.130  32.331  0.00  0.00     0.271 S 
ATOM      8  O   UNL d   1      56.676  -0.417  32.246  0.00  0.00    -0.200 OA
ATOM      9  O   UNL d   1      57.901   0.681  32.418  0.00  0.00    -0.200 OA
BRANCH   7  10
ATOM     10  C   UNL d   1      57.050   0.268  33.103  0.00  0.00     0.104 A 
ATOM     11  C   UNL d   1      56.250   0.365  33.286  0.00  0.00     0.014 A 
ATOM     12  C   UNL d   1      56.014   0.503  34.065  0.00  0.00     0.023 A 
ATOM     13  C   UNL d   1      55.686   0.323  32.684  0.00  0.00     0.001 A 
ATOM     14  C   UNL d   1      55.228   0.598  34.245  0.00  0.00     0.002 A 
ATOM     15  C   UNL d   1      56.579   0.545  34.668  0.00  0.00     0.094 A 
ATOM     16  C   UNL d   1      54.656   0.558  33.650  0.00  0.00     0.000 A 
ATOM     17  C   UNL d   1      54.889   0.419  32.867  0.00  0.00     0.000 A 
ATOM     18  C   UNL d   1      57.377   0.449  34.488  0.00  0.00     0.025 A 
ATOM     19  C   UNL d   1      57.618   0.310  33.710  0.00  0.00     0.015 A 
BRANCH  15  20
ATOM     20  O   UNL d   1      56.346   0.682  35.438  0.00  0.00    -0.328 OA
ATOM     21  C   UNL d   1      56.888   0.616  36.047  0.00  0.00     0.181 C 
ENDBRANCH  15  20
ENDBRANCH   7  10
ENDBRANCH   1   7
BRANCH   2  22
ATOM     22  C   UNL d   1      58.249  -0.432  29.229  0.00  0.00     0.080 C 
BRANCH  22  23
ATOM     23  C   UNL d   1      58.930  -0.868  29.067  0.00  0.00     0.020 A 
ATOM     24  C   UNL d   1      58.888  -1.674  28.958  0.00  0.00     0.028 A 
ATOM     25  C   UNL d   1      59.568  -2.108  28.797  0.00  0.00     0.119 A 
ATOM     26  O   UNL d   1      59.694  -2.912  28.663  0.00  0.00    -0.300 OA
ATOM     27  C   UNL d   1      60.303  -1.719  28.746  0.00  0.00     0.119 A 
ATOM     28  C   UNL d   1      60.501  -3.023  28.530  0.00  0.00     0.304 A 
ATOM     29  O   UNL d   1      60.871  -2.289  28.581  0.00  0.00    -0.300 OA
ATOM     30  C   UNL d   1      60.339  -0.906  28.857  0.00  0.00     0.026 A 
ATOM     31  C   UNL d   1      59.665  -0.479  29.016  0.00  0.00     0.004 A 
ENDBRANCH  22  23
ENDBRANCH   2  22
TORSDOF 5
ENDMDL
