MODEL 1
REMARK VINA RESULT:       1.1      0.000      0.000
REMARK  1 active torsions:
REMARK  status: ('A' for Active; 'I' for Inactive)
REMARK    1  A    between atoms: C_6  and  C_1 
ROOT
ATOM      1  C   UNL d   1      23.556  13.148  -0.789  0.00  0.00     0.085 A 
ATOM      2  C   UNL d   1      24.237  13.600  -0.646  0.00  0.00     0.137 A 
ATOM      3  S   UNL d   1      24.768  13.436  -1.205  0.00  0.00    -0.066 SA
ATOM      4  C   UNL d   1      23.697  12.699  -1.462  0.00  0.00     0.013 A 
ATOM      5  C   UNL d   1      24.451  12.878  -1.721  0.00  0.00     0.031 A 
ATOM      6  N   UNL d   1      24.349  14.143  -0.014  0.00  0.00    -0.141 N 
ATOM      7  C   UNL d   1      23.240  12.150  -1.877  0.00  0.00     0.001 A 
ATOM      8  C   UNL d   1      24.752  12.509  -2.396  0.00  0.00     0.006 A 
ATOM      9  C   UNL d   1      23.541  11.781  -2.551  0.00  0.00     0.000 A 
ATOM     10  C   UNL d   1      24.296  11.960  -2.810  0.00  0.00     0.001 A 
ENDROOT
BRANCH   1  11
ATOM     11  C   UNL d   1      22.830  13.143  -0.322  0.00  0.00     0.299 C 
ATOM     12  O   UNL d   1      22.537  12.423  -0.017  0.00  0.00    -0.264 OA
ATOM     13  N   UNL d   1      22.421  13.851  -0.174  0.00  0.00    -0.102 N 
ENDBRANCH   1  11
TORSDOF 1
ENDMDL
