MODEL 1
REMARK VINA RESULT:      -3.9      0.000      0.000
REMARK  6 active torsions:
REMARK  status: ('A' for Active; 'I' for Inactive)
REMARK    1  A    between atoms: S_12  and  C_1 
REMARK    2  A    between atoms: C_2  and  S_11 
REMARK    3  A    between atoms: S_11  and  C_15 
REMARK    4  A    between atoms: C_16  and  S_12 
REMARK    5  A    between atoms: C_13  and  C_16 
REMARK    6  A    between atoms: C_15  and  C_13 
ROOT
ATOM      1  C   UNL d   1     -41.483-122.044 -51.174  0.00  0.00     0.209 C 
ATOM      2  O   UNL d   1     -41.123-121.299 -51.065  0.00  0.00    -0.285 OA
ENDROOT
BRANCH   1   3
ATOM      3  C   UNL d   1     -41.651-122.310 -51.944  0.00  0.00     0.080 C 
BRANCH   3   4
ATOM      4  S   UNL d   1     -41.205-122.046 -52.589  0.00  0.00    -0.058 SA
BRANCH   4   5
ATOM      5  C   UNL d   1     -41.501-122.108 -53.355  0.00  0.00     0.141 A 
ATOM      6  N   UNL d   1     -41.988-121.557 -53.743  0.00  0.00    -0.232 NA
ATOM      7  C   UNL d   1     -42.150-121.846 -54.500  0.00  0.00     0.088 A 
ATOM      8  C   UNL d   1     -42.597-121.537 -55.121  0.00  0.00     0.020 A 
ATOM      9  C   UNL d   1     -41.766-122.581 -54.590  0.00  0.00     0.049 A 
ATOM     10  C   UNL d   1     -42.669-121.950 -55.831  0.00  0.00     0.002 A 
ATOM     11  C   UNL d   1     -42.285-122.685 -55.921  0.00  0.00     0.001 A 
ATOM     12  C   UNL d   1     -41.835-122.994 -55.297  0.00  0.00     0.008 A 
ATOM     13  S   UNL d   1     -41.365-122.744 -53.884  0.00  0.00    -0.060 SA
ENDBRANCH   4   5
ENDBRANCH   3   4
ENDBRANCH   1   3
BRANCH   1  14
ATOM     14  C   UNL d   1     -41.667-122.510 -50.521  0.00  0.00     0.080 C 
BRANCH  14  15
ATOM     15  S   UNL d   1     -41.305-122.370 -49.790  0.00  0.00    -0.058 SA
BRANCH  15  16
ATOM     16  C   UNL d   1     -41.611-122.702 -49.102  0.00  0.00     0.141 A 
ATOM     17  N   UNL d   1     -42.414-122.866 -48.949  0.00  0.00    -0.232 NA
ATOM     18  C   UNL d   1     -42.467-123.199 -48.187  0.00  0.00     0.088 A 
ATOM     19  C   UNL d   1     -43.107-123.464 -47.750  0.00  0.00     0.020 A 
ATOM     20  C   UNL d   1     -41.707-123.242 -47.870  0.00  0.00     0.049 A 
ATOM     21  C   UNL d   1     -42.999-123.775 -46.994  0.00  0.00     0.002 A 
ATOM     22  C   UNL d   1     -42.227-123.818 -46.676  0.00  0.00     0.001 A 
ATOM     23  C   UNL d   1     -41.583-123.551 -47.115  0.00  0.00     0.008 A 
ATOM     24  S   UNL d   1     -41.173-122.934 -48.437  0.00  0.00    -0.060 SA
ENDBRANCH  15  16
ENDBRANCH  14  15
ENDBRANCH   1  14
TORSDOF 6
ENDMDL
MODEL 2
REMARK VINA RESULT:      -3.6      0.516      6.170
REMARK  6 active torsions:
REMARK  status: ('A' for Active; 'I' for Inactive)
REMARK    1  A    between atoms: S_12  and  C_1 
REMARK    2  A    between atoms: C_2  and  S_11 
REMARK    3  A    between atoms: S_11  and  C_15 
REMARK    4  A    between atoms: C_16  and  S_12 
REMARK    5  A    between atoms: C_13  and  C_16 
REMARK    6  A    between atoms: C_15  and  C_13 
ROOT
ATOM      1  C   UNL d   1     -41.501-122.019 -51.101  0.00  0.00     0.209 C 
ATOM      2  O   UNL d   1     -41.181-121.286 -50.862  0.00  0.00    -0.285 OA
ENDROOT
BRANCH   1   3
ATOM      3  C   UNL d   1     -41.906-122.490 -50.549  0.00  0.00     0.080 C 
BRANCH   3   4
ATOM      4  S   UNL d   1     -41.496-123.021 -50.064  0.00  0.00    -0.058 SA
BRANCH   4   5
ATOM      5  C   UNL d   1     -41.774-123.198 -49.309  0.00  0.00     0.141 A 
ATOM      6  N   UNL d   1     -41.321-123.245 -48.613  0.00  0.00    -0.232 NA
ATOM      7  C   UNL d   1     -41.829-123.436 -47.990  0.00  0.00     0.088 A 
ATOM      8  C   UNL d   1     -41.689-123.553 -47.185  0.00  0.00     0.020 A 
ATOM      9  C   UNL d   1     -42.603-123.509 -48.292  0.00  0.00     0.049 A 
ATOM     10  C   UNL d   1     -42.309-123.743 -46.676  0.00  0.00     0.002 A 
ATOM     11  C   UNL d   1     -43.083-123.816 -46.978  0.00  0.00     0.001 A 
ATOM     12  C   UNL d   1     -43.223-123.698 -47.786  0.00  0.00     0.008 A 
ATOM     13  S   UNL d   1     -42.571-123.362 -49.106  0.00  0.00    -0.060 SA
ENDBRANCH   4   5
ENDBRANCH   3   4
ENDBRANCH   1   3
BRANCH   1  14
ATOM     14  C   UNL d   1     -41.413-122.271 -51.881  0.00  0.00     0.080 C 
BRANCH  14  15
ATOM     15  S   UNL d   1     -41.381-121.720 -52.498  0.00  0.00    -0.058 SA
BRANCH  15  16
ATOM     16  C   UNL d   1     -41.577-121.943 -53.266  0.00  0.00     0.141 A 
ATOM     17  N   UNL d   1     -42.134-121.568 -53.760  0.00  0.00    -0.232 NA
ATOM     18  C   UNL d   1     -42.151-121.981 -54.484  0.00  0.00     0.088 A 
ATOM     19  C   UNL d   1     -42.586-121.865 -55.168  0.00  0.00     0.020 A 
ATOM     20  C   UNL d   1     -41.612-122.602 -54.441  0.00  0.00     0.049 A 
ATOM     21  C   UNL d   1     -42.491-122.366 -55.817  0.00  0.00     0.002 A 
ATOM     22  C   UNL d   1     -41.944-122.996 -55.769  0.00  0.00     0.001 A 
ATOM     23  C   UNL d   1     -41.505-123.112 -55.081  0.00  0.00     0.008 A 
ATOM     24  S   UNL d   1     -41.254-122.582 -53.684  0.00  0.00    -0.060 SA
ENDBRANCH  15  16
ENDBRANCH  14  15
ENDBRANCH   1  14
TORSDOF 6
ENDMDL
