MODEL 1
REMARK VINA RESULT:      57.0      0.000      0.000
REMARK  4 active torsions:
REMARK  status: ('A' for Active; 'I' for Inactive)
REMARK    1  A    between atoms: S_2  and  N_1 
REMARK    2  A    between atoms: N_6  and  S_2 
REMARK    3  A    between atoms: C_10  and  C_3 
REMARK    4  A    between atoms: C_11  and  C_10 
ROOT
ATOM      1  N   UNL d   1     -50.573  25.473  33.472  0.00  0.00    -0.201 N 
ATOM      2  C   UNL d   1     -51.174  24.895  33.390  0.00  0.00     0.158 A 
ATOM      3  N   UNL d   1     -50.804  24.154  33.336  0.00  0.00    -0.226 NA
ATOM      4  C   UNL d   1     -49.850  25.082  33.468  0.00  0.00     0.095 A 
ATOM      5  C   UNL d   1     -49.990  24.272  33.384  0.00  0.00     0.100 A 
ATOM      6  C   UNL d   1     -49.080  25.368  33.530  0.00  0.00     0.020 A 
ATOM      7  C   UNL d   1     -49.352  23.749  33.364  0.00  0.00     0.021 A 
ATOM      8  C   UNL d   1     -48.442  24.846  33.510  0.00  0.00     0.002 A 
ATOM      9  C   UNL d   1     -48.577  24.032  33.426  0.00  0.00     0.002 A 
ENDROOT
BRANCH   1  10
ATOM     10  S   UNL d   1     -50.688  26.278  33.544  0.00  0.00     0.338 S 
ATOM     11  O   UNL d   1     -51.467  26.154  33.779  0.00  0.00    -0.181 OA
ATOM     12  O   UNL d   1     -49.909  26.405  33.308  0.00  0.00    -0.181 OA
BRANCH  10  13
ATOM     13  N   UNL d   1     -50.792  27.092  33.612  0.00  0.00    -0.216 N 
ATOM     14  C   UNL d   1     -51.482  27.392  33.951  0.00  0.00     0.093 A 
ATOM     15  C   UNL d   1     -51.585  28.202  34.019  0.00  0.00     0.020 A 
ATOM     16  C   UNL d   1     -51.010  28.719  33.754  0.00  0.00     0.003 A 
ATOM     17  C   UNL d   1     -50.317  28.427  33.413  0.00  0.00     0.020 A 
ATOM     18  C   UNL d   1     -50.208  27.605  33.343  0.00  0.00     0.093 A 
ENDBRANCH  10  13
ENDBRANCH   1  10
BRANCH   2  19
ATOM     19  C   UNL d   1     -51.988  25.041  33.366  0.00  0.00     0.038 C 
BRANCH  19  20
ATOM     20  C   UNL d   1     -52.513  24.440  33.563  0.00  0.00     0.003 A 
ATOM     21  C   UNL d   1     -52.249  23.803  34.021  0.00  0.00     0.000 A 
ATOM     22  C   UNL d   1     -52.774  23.201  34.217  0.00  0.00     0.000 A 
ATOM     23  C   UNL d   1     -53.551  23.228  33.965  0.00  0.00     0.000 A 
ATOM     24  C   UNL d   1     -53.815  23.867  33.504  0.00  0.00     0.000 A 
ATOM     25  C   UNL d   1     -53.290  24.473  33.306  0.00  0.00     0.000 A 
ENDBRANCH  19  20
ENDBRANCH   2  19
TORSDOF 4
ENDMDL
