MODEL 1
REMARK VINA RESULT:      -9.4      0.000      0.000
REMARK  3 active torsions:
REMARK  status: ('A' for Active; 'I' for Inactive)
REMARK    1  A    between atoms: C_2  and  C_1 
REMARK    2  A    between atoms: C_4  and  C_1 
REMARK    3  A    between atoms: C_3  and  C_2 
ROOT
ATOM      1  C   UNL d   1      53.449  32.676  53.938  0.00  0.00     0.000 A 
ATOM      2  C   UNL d   1      53.206  33.470  53.895  0.00  0.00     0.000 A 
ATOM      3  C   UNL d   1      53.523  34.012  54.400  0.00  0.00     0.000 A 
ATOM      4  C   UNL d   1      54.337  32.995  55.013  0.00  0.00     0.000 A 
ATOM      5  C   UNL d   1      54.013  32.439  54.496  0.00  0.00     0.000 A 
ATOM      6  C   UNL d   1      52.653  33.693  53.346  0.00  0.00     0.000 A 
ATOM      7  C   UNL d   1      54.097  33.786  54.972  0.00  0.00     0.000 A 
ATOM      8  C   UNL d   1      53.301  34.803  54.379  0.00  0.00     0.000 A 
ATOM      9  C   UNL d   1      52.415  34.481  53.306  0.00  0.00     0.000 A 
ATOM     10  C   UNL d   1      52.739  35.036  53.822  0.00  0.00     0.000 A 
ENDROOT
BRANCH   1  11
ATOM     11  C   UNL d   1      53.124  32.120  53.421  0.00  0.00     0.006 C 
BRANCH  11  12
ATOM     12  C   UNL d   1      53.332  31.338  53.473  0.00  0.00     0.070 C 
BRANCH  12  13
ATOM     13  C   UNL d   1      52.941  30.762  53.010  0.00  0.00     0.211 C 
ATOM     14  O   UNL d   1      53.006  30.761  52.197  0.00  0.00    -0.644 OA
ATOM     15  O   UNL d   1      52.477  30.180  53.366  0.00  0.00    -0.644 OA
ENDBRANCH  12  13
ENDBRANCH  11  12
ENDBRANCH   1  11
TORSDOF 3
ENDMDL
MODEL 2
REMARK VINA RESULT:      -9.0      1.976      3.414
REMARK  3 active torsions:
REMARK  status: ('A' for Active; 'I' for Inactive)
REMARK    1  A    between atoms: C_2  and  C_1 
REMARK    2  A    between atoms: C_4  and  C_1 
REMARK    3  A    between atoms: C_3  and  C_2 
ROOT
ATOM      1  C   UNL d   1      53.548  32.615  53.838  0.00  0.00     0.000 A 
ATOM      2  C   UNL d   1      53.381  31.839  53.592  0.00  0.00     0.000 A 
ATOM      3  C   UNL d   1      52.774  31.705  53.079  0.00  0.00     0.000 A 
ATOM      4  C   UNL d   1      52.476  33.113  53.033  0.00  0.00     0.000 A 
ATOM      5  C   UNL d   1      53.097  33.250  53.559  0.00  0.00     0.000 A 
ATOM      6  C   UNL d   1      53.828  31.223  53.871  0.00  0.00     0.000 A 
ATOM      7  C   UNL d   1      52.306  32.341  52.787  0.00  0.00     0.000 A 
ATOM      8  C   UNL d   1      52.587  30.948  52.820  0.00  0.00     0.000 A 
ATOM      9  C   UNL d   1      53.659  30.454  53.625  0.00  0.00     0.000 A 
ATOM     10  C   UNL d   1      53.038  30.317  53.099  0.00  0.00     0.000 A 
ENDROOT
BRANCH   1  11
ATOM     11  C   UNL d   1      54.170  32.753  54.364  0.00  0.00     0.006 C 
BRANCH  11  12
ATOM     12  C   UNL d   1      54.309  33.499  54.651  0.00  0.00     0.070 C 
BRANCH  12  13
ATOM     13  C   UNL d   1      54.926  33.634  55.199  0.00  0.00     0.211 C 
ATOM     14  O   UNL d   1      54.858  33.395  55.977  0.00  0.00    -0.644 OA
ATOM     15  O   UNL d   1      55.620  34.015  54.967  0.00  0.00    -0.644 OA
ENDBRANCH  12  13
ENDBRANCH  11  12
ENDBRANCH   1  11
TORSDOF 3
ENDMDL
MODEL 3
REMARK VINA RESULT:      -9.0      1.710      2.583
REMARK  3 active torsions:
REMARK  status: ('A' for Active; 'I' for Inactive)
REMARK    1  A    between atoms: C_2  and  C_1 
REMARK    2  A    between atoms: C_4  and  C_1 
REMARK    3  A    between atoms: C_3  and  C_2 
ROOT
ATOM      1  C   UNL d   1      52.761  33.049  53.451  0.00  0.00     0.000 A 
ATOM      2  C   UNL d   1      53.340  33.220  54.022  0.00  0.00     0.000 A 
ATOM      3  C   UNL d   1      53.873  32.653  54.233  0.00  0.00     0.000 A 
ATOM      4  C   UNL d   1      53.273  31.721  53.314  0.00  0.00     0.000 A 
ATOM      5  C   UNL d   1      52.728  32.301  53.098  0.00  0.00     0.000 A 
ATOM      6  C   UNL d   1      53.365  33.956  54.363  0.00  0.00     0.000 A 
ATOM      7  C   UNL d   1      53.851  31.888  53.883  0.00  0.00     0.000 A 
ATOM      8  C   UNL d   1      54.456  32.795  54.795  0.00  0.00     0.000 A 
ATOM      9  C   UNL d   1      53.941  34.122  54.929  0.00  0.00     0.000 A 
ATOM     10  C   UNL d   1      54.486  33.541  55.145  0.00  0.00     0.000 A 
ENDROOT
BRANCH   1  11
ATOM     11  C   UNL d   1      52.215  33.630  53.235  0.00  0.00     0.006 C 
BRANCH  11  12
ATOM     12  C   UNL d   1      51.581  33.445  52.764  0.00  0.00     0.070 C 
BRANCH  12  13
ATOM     13  C   UNL d   1      51.070  34.045  52.485  0.00  0.00     0.211 C 
ATOM     14  O   UNL d   1      51.193  34.401  51.761  0.00  0.00    -0.644 OA
ATOM     15  O   UNL d   1      50.426  34.293  52.938  0.00  0.00    -0.644 OA
ENDBRANCH  12  13
ENDBRANCH  11  12
ENDBRANCH   1  11
TORSDOF 3
ENDMDL
MODEL 4
REMARK VINA RESULT:      -9.0      1.778      2.986
REMARK  3 active torsions:
REMARK  status: ('A' for Active; 'I' for Inactive)
REMARK    1  A    between atoms: C_2  and  C_1 
REMARK    2  A    between atoms: C_4  and  C_1 
REMARK    3  A    between atoms: C_3  and  C_2 
ROOT
ATOM      1  C   UNL d   1      52.849  32.803  53.287  0.00  0.00     0.000 A 
ATOM      2  C   UNL d   1      53.026  31.991  53.303  0.00  0.00     0.000 A 
ATOM      3  C   UNL d   1      53.693  31.734  53.675  0.00  0.00     0.000 A 
ATOM      4  C   UNL d   1      54.037  33.087  54.031  0.00  0.00     0.000 A 
ATOM      5  C   UNL d   1      53.354  33.349  53.650  0.00  0.00     0.000 A 
ATOM      6  C   UNL d   1      52.525  31.462  52.944  0.00  0.00     0.000 A 
ATOM      7  C   UNL d   1      54.216  32.278  54.048  0.00  0.00     0.000 A 
ATOM      8  C   UNL d   1      53.892  30.938  53.706  0.00  0.00     0.000 A 
ATOM      9  C   UNL d   1      52.704  30.658  52.962  0.00  0.00     0.000 A 
ATOM     10  C   UNL d   1      53.387  30.395  53.343  0.00  0.00     0.000 A 
ENDROOT
BRANCH   1  11
ATOM     11  C   UNL d   1      52.165  33.065  52.906  0.00  0.00     0.006 C 
BRANCH  11  12
ATOM     12  C   UNL d   1      51.968  33.852  52.909  0.00  0.00     0.070 C 
BRANCH  12  13
ATOM     13  C   UNL d   1      51.277  34.119  52.521  0.00  0.00     0.211 C 
ATOM     14  O   UNL d   1      51.290  34.325  51.731  0.00  0.00    -0.644 OA
ATOM     15  O   UNL d   1      50.561  34.179  52.928  0.00  0.00    -0.644 OA
ENDBRANCH  12  13
ENDBRANCH  11  12
ENDBRANCH   1  11
TORSDOF 3
ENDMDL
MODEL 5
REMARK VINA RESULT:      -8.9      1.986      2.796
REMARK  3 active torsions:
REMARK  status: ('A' for Active; 'I' for Inactive)
REMARK    1  A    between atoms: C_2  and  C_1 
REMARK    2  A    between atoms: C_4  and  C_1 
REMARK    3  A    between atoms: C_3  and  C_2 
ROOT
ATOM      1  C   UNL d   1      53.497  33.112  53.877  0.00  0.00     0.000 A 
ATOM      2  C   UNL d   1      52.861  33.463  53.474  0.00  0.00     0.000 A 
ATOM      3  C   UNL d   1      52.391  33.012  52.999  0.00  0.00     0.000 A 
ATOM      4  C   UNL d   1      53.170  31.841  53.308  0.00  0.00     0.000 A 
ATOM      5  C   UNL d   1      53.651  32.303  53.794  0.00  0.00     0.000 A 
ATOM      6  C   UNL d   1      52.717  34.257  53.561  0.00  0.00     0.000 A 
ATOM      7  C   UNL d   1      52.535  32.189  52.905  0.00  0.00     0.000 A 
ATOM      8  C   UNL d   1      51.756  33.334  52.588  0.00  0.00     0.000 A 
ATOM      9  C   UNL d   1      52.085  34.602  53.159  0.00  0.00     0.000 A 
ATOM     10  C   UNL d   1      51.605  34.140  52.673  0.00  0.00     0.000 A 
ENDROOT
BRANCH   1  11
ATOM     11  C   UNL d   1      53.978  33.574  54.364  0.00  0.00     0.006 C 
BRANCH  11  12
ATOM     12  C   UNL d   1      54.622  33.249  54.736  0.00  0.00     0.070 C 
BRANCH  12  13
ATOM     13  C   UNL d   1      55.112  33.718  55.224  0.00  0.00     0.211 C 
ATOM     14  O   UNL d   1      54.959  33.799  56.021  0.00  0.00    -0.644 OA
ATOM     15  O   UNL d   1      55.766  34.112  54.910  0.00  0.00    -0.644 OA
ENDBRANCH  12  13
ENDBRANCH  11  12
ENDBRANCH   1  11
TORSDOF 3
ENDMDL
