MODEL 1
REMARK VINA RESULT:      67.7      0.000      0.000
REMARK  4 active torsions:
REMARK  status: ('A' for Active; 'I' for Inactive)
REMARK    1  A    between atoms: N_2  and  C_9 
REMARK    2  A    between atoms: C_11  and  C_5 
REMARK    3  A    between atoms: C_6  and  C_7 
REMARK       I    between atoms: C_7  and  N_10 
REMARK    4  A    between atoms: N_10  and  C_21 
ROOT
ATOM      1  C   UNL d   1      14.256  15.360  -3.312  0.00  0.00     0.019 A 
ATOM      2  C   UNL d   1      14.709  14.807  -3.730  0.00  0.00     0.003 A 
ATOM      3  C   UNL d   1      13.504  15.573  -3.577  0.00  0.00     0.003 A 
ATOM      4  C   UNL d   1      13.650  14.678  -4.683  0.00  0.00     0.085 A 
ATOM      5  C   UNL d   1      13.205  15.229  -4.263  0.00  0.00     0.019 A 
ATOM      6  C   UNL d   1      14.401  14.468  -4.415  0.00  0.00     0.019 A 
ENDROOT
BRANCH   4   7
ATOM      7  N   UNL d   1      13.347  14.334  -5.372  0.00  0.00    -0.208 NA
ATOM      8  C   UNL d   1      13.074  13.552  -5.357  0.00  0.00     0.281 C 
ATOM      9  O   UNL d   1      12.773  13.213  -6.049  0.00  0.00    -0.265 OA
BRANCH   8  10
ATOM     10  C   UNL d   1      13.103  13.118  -4.656  0.00  0.00     0.080 A 
ATOM     11  C   UNL d   1      13.319  12.325  -4.680  0.00  0.00     0.131 A 
ATOM     12  C   UNL d   1      13.347  11.894  -3.977  0.00  0.00     0.024 A 
ATOM     13  C   UNL d   1      13.162  12.252  -3.264  0.00  0.00     0.002 A 
ATOM     14  C   UNL d   1      12.945  13.048  -3.243  0.00  0.00     0.000 A 
ATOM     15  C   UNL d   1      12.916  13.482  -3.944  0.00  0.00     0.006 A 
BRANCH  11  16
ATOM     16  N   UNL d   1      13.507  11.964  -5.404  0.00  0.00    -0.114 N 
ATOM     17  O   UNL d   1      14.289  11.782  -5.586  0.00  0.00    -0.532 OA
ATOM     18  O   UNL d   1      12.909  11.787  -5.944  0.00  0.00    -0.532 OA
ENDBRANCH  11  16
ENDBRANCH   8  10
ENDBRANCH   4   7
BRANCH   1  19
ATOM     19  C   UNL d   1      14.558  15.705  -2.623  0.00  0.00     0.101 A 
ATOM     20  N   UNL d   1      14.696  15.327  -1.908  0.00  0.00    -0.227 NA
ATOM     21  C   UNL d   1      14.996  15.878  -1.381  0.00  0.00     0.148 A 
ATOM     22  N   UNL d   1      15.044  16.601  -1.772  0.00  0.00    -0.288 N 
ATOM     23  C   UNL d   1      15.233  15.818  -0.593  0.00  0.00     0.037 A 
ATOM     24  C   UNL d   1      15.329  17.263  -1.375  0.00  0.00     0.082 A 
ATOM     25  C   UNL d   1      14.774  16.493  -2.536  0.00  0.00     0.101 A 
ATOM     26  C   UNL d   1      15.566  17.203  -0.588  0.00  0.00     0.019 A 
ATOM     27  C   UNL d   1      15.518  16.481  -0.196  0.00  0.00     0.005 A 
ENDBRANCH   1  19
TORSDOF 4
ENDMDL
MODEL 2
REMARK VINA RESULT:      70.2      2.606      3.994
REMARK  4 active torsions:
REMARK  status: ('A' for Active; 'I' for Inactive)
REMARK    1  A    between atoms: N_2  and  C_9 
REMARK    2  A    between atoms: C_11  and  C_5 
REMARK    3  A    between atoms: C_6  and  C_7 
REMARK       I    between atoms: C_7  and  N_10 
REMARK    4  A    between atoms: N_10  and  C_21 
ROOT
ATOM      1  C   UNL d   1      14.067  14.170  -3.033  0.00  0.00     0.019 A 
ATOM      2  C   UNL d   1      14.309  13.396  -3.199  0.00  0.00     0.003 A 
ATOM      3  C   UNL d   1      13.674  14.345  -2.329  0.00  0.00     0.003 A 
ATOM      4  C   UNL d   1      13.761  12.969  -1.948  0.00  0.00     0.085 A 
ATOM      5  C   UNL d   1      13.523  13.741  -1.790  0.00  0.00     0.019 A 
ATOM      6  C   UNL d   1      14.154  12.798  -2.653  0.00  0.00     0.019 A 
ENDROOT
BRANCH   4   7
ATOM      7  N   UNL d   1      13.609  12.363  -1.405  0.00  0.00    -0.208 NA
ATOM      8  C   UNL d   1      13.949  12.390  -0.651  0.00  0.00     0.281 C 
ATOM      9  O   UNL d   1      13.793  11.782  -0.112  0.00  0.00    -0.265 OA
BRANCH   8  10
ATOM     10  C   UNL d   1      14.439  13.020  -0.441  0.00  0.00     0.080 A 
ATOM     11  C   UNL d   1      15.254  12.914  -0.436  0.00  0.00     0.131 A 
ATOM     12  C   UNL d   1      15.741  13.546  -0.226  0.00  0.00     0.024 A 
ATOM     13  C   UNL d   1      15.416  14.271  -0.025  0.00  0.00     0.002 A 
ATOM     14  C   UNL d   1      14.598  14.374  -0.031  0.00  0.00     0.000 A 
ATOM     15  C   UNL d   1      14.108  13.744  -0.241  0.00  0.00     0.006 A 
BRANCH  11  16
ATOM     16  N   UNL d   1      15.582  12.179  -0.640  0.00  0.00    -0.114 N 
ATOM     17  O   UNL d   1      15.425  11.845  -1.377  0.00  0.00    -0.532 OA
ATOM     18  O   UNL d   1      16.065  11.779  -0.104  0.00  0.00    -0.532 OA
ENDBRANCH  11  16
ENDBRANCH   8  10
ENDBRANCH   4   7
BRANCH   1  19
ATOM     19  C   UNL d   1      14.220  14.776  -3.576  0.00  0.00     0.101 A 
ATOM     20  N   UNL d   1      13.967  14.807  -4.356  0.00  0.00    -0.227 NA
ATOM     21  C   UNL d   1      14.244  15.504  -4.687  0.00  0.00     0.148 A 
ATOM     22  N   UNL d   1      14.672  15.906  -4.109  0.00  0.00    -0.288 N 
ATOM     23  C   UNL d   1      14.165  15.828  -5.441  0.00  0.00     0.037 A 
ATOM     24  C   UNL d   1      15.019  16.630  -4.284  0.00  0.00     0.082 A 
ATOM     25  C   UNL d   1      14.656  15.456  -3.425  0.00  0.00     0.101 A 
ATOM     26  C   UNL d   1      14.940  16.955  -5.039  0.00  0.00     0.019 A 
ATOM     27  C   UNL d   1      14.513  16.554  -5.617  0.00  0.00     0.005 A 
ENDBRANCH   1  19
TORSDOF 4
ENDMDL
