MODEL 1
REMARK VINA RESULT:     -12.0      0.000      0.000
REMARK  1 active torsions:
REMARK  status: ('A' for Active; 'I' for Inactive)
REMARK    1  A    between atoms: C_10  and  C_4 
ROOT
ATOM      1  C   UNL d   1      52.741  33.487  53.309  0.00  0.00     0.111 A 
ATOM      2  C   UNL d   1      53.197  32.128  53.466  0.00  0.00     0.062 A 
ATOM      3  C   UNL d   1      52.158  33.243  52.808  0.00  0.00     0.213 A 
ATOM      4  C   UNL d   1      53.281  32.923  53.654  0.00  0.00     0.018 A 
ATOM      5  C   UNL d   1      52.578  31.877  52.936  0.00  0.00     0.105 A 
ATOM      6  O   UNL d   1      52.081  32.403  52.620  0.00  0.00    -0.287 OA
ATOM      7  C   UNL d   1      52.825  34.278  53.496  0.00  0.00     0.105 C 
ATOM      8  C   UNL d   1      53.701  31.558  53.781  0.00  0.00     0.198 A 
ATOM      9  N   UNL d   1      52.911  35.084  53.686  0.00  0.00    -0.191 NA
ATOM     10  N   UNL d   1      51.612  33.791  52.458  0.00  0.00    -0.120 N 
ATOM     11  O   UNL d   1      54.285  31.840  54.288  0.00  0.00    -0.286 OA
ATOM     12  C   UNL d   1      52.492  31.071  52.746  0.00  0.00     0.025 A 
ATOM     13  C   UNL d   1      53.617  30.767  53.594  0.00  0.00     0.042 A 
ATOM     14  C   UNL d   1      53.024  30.505  53.083  0.00  0.00     0.005 A 
ENDROOT
BRANCH   4  15
ATOM     15  C   UNL d   1      53.876  33.149  54.160  0.00  0.00     0.001 A 
ATOM     16  C   UNL d   1      53.747  33.199  54.979  0.00  0.00     0.000 A 
ATOM     17  C   UNL d   1      54.357  33.428  55.484  0.00  0.00     0.000 A 
ATOM     18  C   UNL d   1      55.103  33.612  55.191  0.00  0.00     0.000 A 
ATOM     19  C   UNL d   1      55.232  33.562  54.372  0.00  0.00     0.000 A 
ATOM     20  C   UNL d   1      54.621  33.332  53.867  0.00  0.00     0.000 A 
ENDBRANCH   4  15
TORSDOF 1
ENDMDL
MODEL 2
REMARK VINA RESULT:     -12.0      0.978      2.557
REMARK  1 active torsions:
REMARK  status: ('A' for Active; 'I' for Inactive)
REMARK    1  A    between atoms: C_10  and  C_4 
ROOT
ATOM      1  C   UNL d   1      53.464  33.426  54.341  0.00  0.00     0.111 A 
ATOM      2  C   UNL d   1      53.106  32.263  53.567  0.00  0.00     0.062 A 
ATOM      3  C   UNL d   1      54.036  33.006  54.724  0.00  0.00     0.213 A 
ATOM      4  C   UNL d   1      52.979  33.055  53.745  0.00  0.00     0.018 A 
ATOM      5  C   UNL d   1      53.713  31.826  53.975  0.00  0.00     0.105 A 
ATOM      6  O   UNL d   1      54.159  32.173  54.526  0.00  0.00    -0.287 OA
ATOM      7  C   UNL d   1      53.337  34.213  54.518  0.00  0.00     0.105 C 
ATOM      8  C   UNL d   1      52.656  31.875  52.997  0.00  0.00     0.198 A 
ATOM      9  N   UNL d   1      53.208  35.016  54.698  0.00  0.00    -0.191 NA
ATOM     10  N   UNL d   1      54.527  33.360  55.319  0.00  0.00    -0.120 N 
ATOM     11  O   UNL d   1      52.081  32.332  52.626  0.00  0.00    -0.286 OA
ATOM     12  C   UNL d   1      53.842  31.023  53.795  0.00  0.00     0.025 A 
ATOM     13  C   UNL d   1      52.783  31.088  52.820  0.00  0.00     0.042 A 
ATOM     14  C   UNL d   1      53.366  30.647  53.204  0.00  0.00     0.005 A 
ENDROOT
BRANCH   4  15
ATOM     15  C   UNL d   1      52.397  33.460  53.348  0.00  0.00     0.001 A 
ATOM     16  C   UNL d   1      52.567  33.898  52.664  0.00  0.00     0.000 A 
ATOM     17  C   UNL d   1      51.968  34.305  52.269  0.00  0.00     0.000 A 
ATOM     18  C   UNL d   1      51.193  34.288  52.542  0.00  0.00     0.000 A 
ATOM     19  C   UNL d   1      51.022  33.851  53.227  0.00  0.00     0.000 A 
ATOM     20  C   UNL d   1      51.621  33.443  53.621  0.00  0.00     0.000 A 
ENDBRANCH   4  15
TORSDOF 1
ENDMDL
MODEL 3
REMARK VINA RESULT:     -11.5      1.347      2.280
REMARK  1 active torsions:
REMARK  status: ('A' for Active; 'I' for Inactive)
REMARK    1  A    between atoms: C_10  and  C_4 
ROOT
ATOM      1  C   UNL d   1      53.165  32.015  53.387  0.00  0.00     0.111 A 
ATOM      2  C   UNL d   1      52.750  33.396  53.359  0.00  0.00     0.062 A 
ATOM      3  C   UNL d   1      52.565  31.815  52.887  0.00  0.00     0.213 A 
ATOM      4  C   UNL d   1      53.271  32.824  53.637  0.00  0.00     0.018 A 
ATOM      5  C   UNL d   1      52.118  33.177  52.831  0.00  0.00     0.105 A 
ATOM      6  O   UNL d   1      52.025  32.427  52.603  0.00  0.00    -0.287 OA
ATOM      7  C   UNL d   1      53.684  31.447  53.664  0.00  0.00     0.105 C 
ATOM      8  C   UNL d   1      52.824  34.185  53.580  0.00  0.00     0.198 A 
ATOM      9  N   UNL d   1      54.212  30.868  53.945  0.00  0.00    -0.191 NA
ATOM     10  N   UNL d   1      52.447  31.014  52.630  0.00  0.00    -0.120 N 
ATOM     11  O   UNL d   1      53.446  34.355  54.091  0.00  0.00    -0.286 OA
ATOM     12  C   UNL d   1      51.590  33.756  52.550  0.00  0.00     0.025 A 
ATOM     13  C   UNL d   1      52.306  34.753  53.304  0.00  0.00     0.042 A 
ATOM     14  C   UNL d   1      51.687  34.561  52.792  0.00  0.00     0.005 A 
ENDROOT
BRANCH   4  15
ATOM     15  C   UNL d   1      53.870  33.046  54.140  0.00  0.00     0.001 A 
ATOM     16  C   UNL d   1      53.761  33.050  54.963  0.00  0.00     0.000 A 
ATOM     17  C   UNL d   1      54.376  33.277  55.464  0.00  0.00     0.000 A 
ATOM     18  C   UNL d   1      55.106  33.505  55.162  0.00  0.00     0.000 A 
ATOM     19  C   UNL d   1      55.215  33.502  54.339  0.00  0.00     0.000 A 
ATOM     20  C   UNL d   1      54.600  33.274  53.838  0.00  0.00     0.000 A 
ENDBRANCH   4  15
TORSDOF 1
ENDMDL
MODEL 4
REMARK VINA RESULT:     -11.1      1.399      3.170
REMARK  1 active torsions:
REMARK  status: ('A' for Active; 'I' for Inactive)
REMARK    1  A    between atoms: C_10  and  C_4 
ROOT
ATOM      1  C   UNL d   1      53.194  32.133  53.464  0.00  0.00     0.111 A 
ATOM      2  C   UNL d   1      53.470  33.329  54.220  0.00  0.00     0.062 A 
ATOM      3  C   UNL d   1      53.819  31.759  53.811  0.00  0.00     0.213 A 
ATOM      4  C   UNL d   1      53.005  32.940  53.665  0.00  0.00     0.018 A 
ATOM      5  C   UNL d   1      54.128  32.928  54.582  0.00  0.00     0.105 A 
ATOM      6  O   UNL d   1      54.299  32.181  54.392  0.00  0.00    -0.287 OA
ATOM      7  C   UNL d   1      52.731  31.746  52.913  0.00  0.00     0.105 C 
ATOM      8  C   UNL d   1      53.315  34.108  54.437  0.00  0.00     0.198 A 
ATOM      9  N   UNL d   1      52.259  31.352  52.351  0.00  0.00    -0.191 NA
ATOM     10  N   UNL d   1      54.019  30.956  53.620  0.00  0.00    -0.120 N 
ATOM     11  O   UNL d   1      52.671  34.460  54.065  0.00  0.00    -0.286 OA
ATOM     12  C   UNL d   1      54.600  33.322  55.144  0.00  0.00     0.025 A 
ATOM     13  C   UNL d   1      53.778  34.495  54.988  0.00  0.00     0.042 A 
ATOM     14  C   UNL d   1      54.420  34.123  55.350  0.00  0.00     0.005 A 
ENDROOT
BRANCH   4  15
ATOM     15  C   UNL d   1      52.380  33.335  53.327  0.00  0.00     0.001 A 
ATOM     16  C   UNL d   1      51.614  33.278  53.642  0.00  0.00     0.000 A 
ATOM     17  C   UNL d   1      50.987  33.683  53.291  0.00  0.00     0.000 A 
ATOM     18  C   UNL d   1      51.105  34.150  52.625  0.00  0.00     0.000 A 
ATOM     19  C   UNL d   1      51.871  34.208  52.310  0.00  0.00     0.000 A 
ATOM     20  C   UNL d   1      52.498  33.803  52.662  0.00  0.00     0.000 A 
ENDBRANCH   4  15
TORSDOF 1
ENDMDL
MODEL 5
REMARK VINA RESULT:     -10.1      1.437      2.569
REMARK  1 active torsions:
REMARK  status: ('A' for Active; 'I' for Inactive)
REMARK    1  A    between atoms: C_10  and  C_4 
ROOT
ATOM      1  C   UNL d   1      53.259  34.492  54.286  0.00  0.00     0.111 A 
ATOM      2  C   UNL d   1      52.343  33.895  53.346  0.00  0.00     0.062 A 
ATOM      3  C   UNL d   1      52.838  35.180  54.271  0.00  0.00     0.213 A 
ATOM      4  C   UNL d   1      53.014  33.824  53.814  0.00  0.00     0.018 A 
ATOM      5  C   UNL d   1      51.904  34.625  53.336  0.00  0.00     0.105 A 
ATOM      6  O   UNL d   1      52.134  35.240  53.774  0.00  0.00    -0.287 OA
ATOM      7  C   UNL d   1      53.926  34.422  54.751  0.00  0.00     0.105 C 
ATOM      8  C   UNL d   1      52.080  33.269  52.880  0.00  0.00     0.198 A 
ATOM      9  N   UNL d   1      54.607  34.350  55.226  0.00  0.00    -0.191 NA
ATOM     10  N   UNL d   1      53.069  35.854  54.735  0.00  0.00    -0.120 N 
ATOM     11  O   UNL d   1      52.531  32.583  52.917  0.00  0.00    -0.286 OA
ATOM     12  C   UNL d   1      51.223  34.696  52.861  0.00  0.00     0.025 A 
ATOM     13  C   UNL d   1      51.412  33.339  52.414  0.00  0.00     0.042 A 
ATOM     14  C   UNL d   1      50.973  34.039  52.391  0.00  0.00     0.005 A 
ENDROOT
BRANCH   4  15
ATOM     15  C   UNL d   1      53.424  33.122  53.815  0.00  0.00     0.001 A 
ATOM     16  C   UNL d   1      54.043  32.985  53.280  0.00  0.00     0.000 A 
ATOM     17  C   UNL d   1      54.452  32.269  53.288  0.00  0.00     0.000 A 
ATOM     18  C   UNL d   1      54.257  31.677  53.824  0.00  0.00     0.000 A 
ATOM     19  C   UNL d   1      53.638  31.813  54.360  0.00  0.00     0.000 A 
ATOM     20  C   UNL d   1      53.229  32.530  54.350  0.00  0.00     0.000 A 
ENDBRANCH   4  15
TORSDOF 1
ENDMDL
MODEL 6
REMARK VINA RESULT:      -9.5      0.878      2.620
REMARK  1 active torsions:
REMARK  status: ('A' for Active; 'I' for Inactive)
REMARK    1  A    between atoms: C_10  and  C_4 
ROOT
ATOM      1  C   UNL d   1      52.614  33.696  53.302  0.00  0.00     0.111 A 
ATOM      2  C   UNL d   1      53.552  33.213  54.285  0.00  0.00     0.062 A 
ATOM      3  C   UNL d   1      52.726  34.453  53.554  0.00  0.00     0.213 A 
ATOM      4  C   UNL d   1      53.033  33.049  53.669  0.00  0.00     0.018 A 
ATOM      5  C   UNL d   1      53.665  34.015  54.546  0.00  0.00     0.105 A 
ATOM      6  O   UNL d   1      53.275  34.610  54.203  0.00  0.00    -0.287 OA
ATOM      7  C   UNL d   1      52.098  33.533  52.689  0.00  0.00     0.105 C 
ATOM      8  C   UNL d   1      53.971  32.612  54.661  0.00  0.00     0.198 A 
ATOM      9  N   UNL d   1      51.572  33.367  52.065  0.00  0.00    -0.191 NA
ATOM     10  N   UNL d   1      52.316  35.107  53.199  0.00  0.00    -0.120 N 
ATOM     11  O   UNL d   1      53.835  31.852  54.379  0.00  0.00    -0.286 OA
ATOM     12  C   UNL d   1      54.191  34.181  55.171  0.00  0.00     0.025 A 
ATOM     13  C   UNL d   1      54.487  32.775  55.273  0.00  0.00     0.042 A 
ATOM     14  C   UNL d   1      54.610  33.546  55.541  0.00  0.00     0.005 A 
ENDROOT
BRANCH   4  15
ATOM     15  C   UNL d   1      52.934  32.279  53.429  0.00  0.00     0.001 A 
ATOM     16  C   UNL d   1      52.283  31.830  53.680  0.00  0.00     0.000 A 
ATOM     17  C   UNL d   1      52.193  31.049  53.431  0.00  0.00     0.000 A 
ATOM     18  C   UNL d   1      52.743  30.698  52.930  0.00  0.00     0.000 A 
ATOM     19  C   UNL d   1      53.395  31.147  52.679  0.00  0.00     0.000 A 
ATOM     20  C   UNL d   1      53.485  31.928  52.929  0.00  0.00     0.000 A 
ENDBRANCH   4  15
TORSDOF 1
ENDMDL
