MODEL 1
REMARK VINA RESULT:      -3.7      0.000      0.000
REMARK  7 active torsions:
REMARK  status: ('A' for Active; 'I' for Inactive)
REMARK    1  A    between atoms: N_2  and  S_1 
REMARK    2  A    between atoms: C_3  and  S_1 
REMARK    3  A    between atoms: C_16  and  N_2 
REMARK    4  A    between atoms: C_4  and  C_10 
REMARK       I    between atoms: N_7  and  C_4 
REMARK    5  A    between atoms: C_17  and  N_7 
REMARK    6  A    between atoms: C_9  and  C_17 
REMARK    7  A    between atoms: O_23  and  C_20 
ROOT
ATOM      1  C   UNL d   1      33.092  19.772 -22.117  0.00  0.00     0.058 A 
ATOM      2  C   UNL d   1      33.175  18.706 -23.372  0.00  0.00     0.094 A 
ATOM      3  C   UNL d   1      33.199  18.967 -21.971  0.00  0.00     0.006 A 
ATOM      4  C   UNL d   1      33.026  20.043 -22.893  0.00  0.00     0.006 A 
ATOM      5  C   UNL d   1      33.241  18.432 -22.598  0.00  0.00     0.020 A 
ATOM      6  C   UNL d   1      33.067  19.516 -23.524  0.00  0.00     0.020 A 
ENDROOT
BRANCH   2   7
ATOM      7  N   UNL d   1      33.215  18.180 -23.998  0.00  0.00    -0.158 NA
BRANCH   7   8
ATOM      8  S   UNL d   1      32.539  17.761 -24.227  0.00  0.00     0.285 S 
ATOM      9  O   UNL d   1      32.401  18.313 -24.829  0.00  0.00    -0.198 OA
ATOM     10  O   UNL d   1      32.672  17.211 -23.632  0.00  0.00    -0.198 OA
BRANCH   8  11
ATOM     11  C   UNL d   1      31.867  17.349 -24.459  0.00  0.00     0.107 A 
ATOM     12  C   UNL d   1      31.162  17.755 -24.590  0.00  0.00     0.037 A 
ATOM     13  C   UNL d   1      30.478  17.346 -24.825  0.00  0.00     0.095 A 
ATOM     14  C   UNL d   1      30.510  16.529 -24.925  0.00  0.00     0.024 A 
ATOM     15  C   UNL d   1      31.214  16.120 -24.794  0.00  0.00     0.003 A 
ATOM     16  C   UNL d   1      31.894  16.529 -24.561  0.00  0.00     0.013 A 
BRANCH  13  17
ATOM     17  O   UNL d   1      29.762  17.759 -24.958  0.00  0.00    -0.328 OA
ATOM     18  C   UNL d   1      29.071  17.516 -24.568  0.00  0.00     0.181 C 
ENDBRANCH  13  17
ENDBRANCH   8  11
ENDBRANCH   7   8
ENDBRANCH   2   7
BRANCH   1  19
ATOM     19  C   UNL d   1      33.050  20.314 -21.484  0.00  0.00     0.279 C 
ATOM     20  N   UNL d   1      32.820  21.090 -21.626  0.00  0.00    -0.204 NA
ATOM     21  O   UNL d   1      33.240  20.071 -20.713  0.00  0.00    -0.265 OA
BRANCH  20  22
ATOM     22  C   UNL d   1      32.777  21.631 -20.996  0.00  0.00     0.127 C 
BRANCH  22  23
ATOM     23  C   UNL d   1      32.515  22.410 -21.136  0.00  0.00     0.119 A 
ATOM     24  O   UNL d   1      31.736  22.667 -21.123  0.00  0.00    -0.304 OA
ATOM     25  C   UNL d   1      31.739  23.471 -21.290  0.00  0.00     0.123 A 
ATOM     26  C   UNL d   1      32.512  23.702 -21.405  0.00  0.00     0.029 A 
ATOM     27  C   UNL d   1      32.994  23.044 -21.309  0.00  0.00     0.028 A 
ENDBRANCH  22  23
ENDBRANCH  20  22
ENDBRANCH   1  19
TORSDOF 7
ENDMDL
MODEL 2
REMARK VINA RESULT:      -2.9      1.558      5.405
REMARK  7 active torsions:
REMARK  status: ('A' for Active; 'I' for Inactive)
REMARK    1  A    between atoms: N_2  and  S_1 
REMARK    2  A    between atoms: C_3  and  S_1 
REMARK    3  A    between atoms: C_16  and  N_2 
REMARK    4  A    between atoms: C_4  and  C_10 
REMARK       I    between atoms: N_7  and  C_4 
REMARK    5  A    between atoms: C_17  and  N_7 
REMARK    6  A    between atoms: C_9  and  C_17 
REMARK    7  A    between atoms: O_23  and  C_20 
ROOT
ATOM      1  C   UNL d   1      31.464  17.281 -24.294  0.00  0.00     0.058 A 
ATOM      2  C   UNL d   1      32.651  18.343 -23.869  0.00  0.00     0.094 A 
ATOM      3  C   UNL d   1      31.579  17.970 -24.731  0.00  0.00     0.006 A 
ATOM      4  C   UNL d   1      31.945  17.123 -23.643  0.00  0.00     0.006 A 
ATOM      5  C   UNL d   1      32.173  18.504 -24.520  0.00  0.00     0.020 A 
ATOM      6  C   UNL d   1      32.539  17.649 -23.425  0.00  0.00     0.020 A 
ENDROOT
BRANCH   2   7
ATOM      7  N   UNL d   1      33.241  18.869 -23.655  0.00  0.00    -0.158 NA
BRANCH   7   8
ATOM      8  S   UNL d   1      33.109  19.407 -23.040  0.00  0.00     0.285 S 
ATOM      9  O   UNL d   1      32.974  20.008 -23.594  0.00  0.00    -0.198 OA
ATOM     10  O   UNL d   1      33.241  18.815 -22.486  0.00  0.00    -0.198 OA
BRANCH   8  11
ATOM     11  C   UNL d   1      32.976  19.946 -22.434  0.00  0.00     0.107 A 
ATOM     12  C   UNL d   1      32.889  20.747 -22.608  0.00  0.00     0.037 A 
ATOM     13  C   UNL d   1      32.755  21.298 -22.001  0.00  0.00     0.095 A 
ATOM     14  C   UNL d   1      32.710  21.037 -21.221  0.00  0.00     0.024 A 
ATOM     15  C   UNL d   1      32.796  20.236 -21.043  0.00  0.00     0.003 A 
ATOM     16  C   UNL d   1      32.930  19.689 -21.650  0.00  0.00     0.013 A 
BRANCH  13  17
ATOM     17  O   UNL d   1      32.667  22.111 -22.178  0.00  0.00    -0.328 OA
ATOM     18  C   UNL d   1      32.537  22.652 -21.563  0.00  0.00     0.181 C 
ENDBRANCH  13  17
ENDBRANCH   8  11
ENDBRANCH   7   8
ENDBRANCH   2   7
BRANCH   1  19
ATOM     19  C   UNL d   1      30.864  16.740 -24.507  0.00  0.00     0.279 C 
ATOM     20  N   UNL d   1      30.135  16.772 -24.131  0.00  0.00    -0.204 NA
ATOM     21  O   UNL d   1      31.005  16.173 -25.097  0.00  0.00    -0.265 OA
BRANCH  20  22
ATOM     22  C   UNL d   1      29.538  16.234 -24.342  0.00  0.00     0.127 C 
BRANCH  22  23
ATOM     23  C   UNL d   1      28.848  16.177 -23.876  0.00  0.00     0.119 A 
ATOM     24  O   UNL d   1      28.538  15.487 -23.556  0.00  0.00    -0.304 OA
ATOM     25  C   UNL d   1      27.858  15.693 -23.141  0.00  0.00     0.123 A 
ATOM     26  C   UNL d   1      27.756  16.498 -23.207  0.00  0.00     0.029 A 
ATOM     27  C   UNL d   1      28.370  16.799 -23.664  0.00  0.00     0.028 A 
ENDBRANCH  22  23
ENDBRANCH  20  22
ENDBRANCH   1  19
TORSDOF 7
ENDMDL
MODEL 3
REMARK VINA RESULT:      -2.7      1.555      2.358
REMARK  7 active torsions:
REMARK  status: ('A' for Active; 'I' for Inactive)
REMARK    1  A    between atoms: N_2  and  S_1 
REMARK    2  A    between atoms: C_3  and  S_1 
REMARK    3  A    between atoms: C_16  and  N_2 
REMARK    4  A    between atoms: C_4  and  C_10 
REMARK       I    between atoms: N_7  and  C_4 
REMARK    5  A    between atoms: C_17  and  N_7 
REMARK    6  A    between atoms: C_9  and  C_17 
REMARK    7  A    between atoms: O_23  and  C_20 
ROOT
ATOM      1  C   UNL d   1      32.615  18.453 -23.430  0.00  0.00     0.058 A 
ATOM      2  C   UNL d   1      32.076  16.922 -23.722  0.00  0.00     0.094 A 
ATOM      3  C   UNL d   1      32.020  18.321 -23.986  0.00  0.00     0.006 A 
ATOM      4  C   UNL d   1      32.940  17.816 -23.019  0.00  0.00     0.006 A 
ATOM      5  C   UNL d   1      31.749  17.556 -24.134  0.00  0.00     0.020 A 
ATOM      6  C   UNL d   1      32.676  17.049 -23.161  0.00  0.00     0.020 A 
ENDROOT
BRANCH   2   7
ATOM      7  N   UNL d   1      31.811  16.160 -23.865  0.00  0.00    -0.158 NA
BRANCH   7   8
ATOM      8  S   UNL d   1      31.012  16.029 -24.038  0.00  0.00     0.285 S 
ATOM      9  O   UNL d   1      30.854  15.922 -23.233  0.00  0.00    -0.198 OA
ATOM     10  O   UNL d   1      31.164  16.135 -24.839  0.00  0.00    -0.198 OA
BRANCH   8  11
ATOM     11  C   UNL d   1      30.218  15.898 -24.205  0.00  0.00     0.107 A 
ATOM     12  C   UNL d   1      29.645  16.083 -23.643  0.00  0.00     0.037 A 
ATOM     13  C   UNL d   1      28.840  15.954 -23.803  0.00  0.00     0.095 A 
ATOM     14  C   UNL d   1      28.619  15.639 -24.531  0.00  0.00     0.024 A 
ATOM     15  C   UNL d   1      29.190  15.453 -25.097  0.00  0.00     0.003 A 
ATOM     16  C   UNL d   1      29.991  15.583 -24.934  0.00  0.00     0.013 A 
BRANCH  13  17
ATOM     17  O   UNL d   1      28.258  16.141 -23.231  0.00  0.00    -0.328 OA
ATOM     18  C   UNL d   1      27.511  15.783 -23.276  0.00  0.00     0.181 C 
ENDBRANCH  13  17
ENDBRANCH   8  11
ENDBRANCH   7   8
ENDBRANCH   2   7
BRANCH   1  19
ATOM     19  C   UNL d   1      32.890  19.226 -23.280  0.00  0.00     0.279 C 
ATOM     20  N   UNL d   1      32.813  19.548 -22.528  0.00  0.00    -0.204 NA
ATOM     21  O   UNL d   1      33.241  19.670 -23.888  0.00  0.00    -0.265 OA
BRANCH  20  22
ATOM     22  C   UNL d   1      33.087  20.318 -22.377  0.00  0.00     0.127 C 
BRANCH  22  23
ATOM     23  C   UNL d   1      32.867  20.705 -21.673  0.00  0.00     0.119 A 
ATOM     24  O   UNL d   1      32.964  20.414 -20.911  0.00  0.00    -0.304 OA
ATOM     25  C   UNL d   1      32.670  20.980 -20.392  0.00  0.00     0.123 A 
ATOM     26  C   UNL d   1      32.397  21.608 -20.832  0.00  0.00     0.029 A 
ATOM     27  C   UNL d   1      32.519  21.439 -21.627  0.00  0.00     0.028 A 
ENDBRANCH  22  23
ENDBRANCH  20  22
ENDBRANCH   1  19
TORSDOF 7
ENDMDL
MODEL 4
REMARK VINA RESULT:      -2.4      1.024      1.356
REMARK  7 active torsions:
REMARK  status: ('A' for Active; 'I' for Inactive)
REMARK    1  A    between atoms: N_2  and  S_1 
REMARK    2  A    between atoms: C_3  and  S_1 
REMARK    3  A    between atoms: C_16  and  N_2 
REMARK    4  A    between atoms: C_4  and  C_10 
REMARK       I    between atoms: N_7  and  C_4 
REMARK    5  A    between atoms: C_17  and  N_7 
REMARK    6  A    between atoms: C_9  and  C_17 
REMARK    7  A    between atoms: O_23  and  C_20 
ROOT
ATOM      1  C   UNL d   1      32.979  20.618 -22.430  0.00  0.00     0.058 A 
ATOM      2  C   UNL d   1      33.154  19.042 -22.882  0.00  0.00     0.094 A 
ATOM      3  C   UNL d   1      33.138  20.427 -23.216  0.00  0.00     0.006 A 
ATOM      4  C   UNL d   1      32.907  20.018 -21.869  0.00  0.00     0.006 A 
ATOM      5  C   UNL d   1      33.227  19.639 -23.445  0.00  0.00     0.020 A 
ATOM      6  C   UNL d   1      32.994  19.229 -22.088  0.00  0.00     0.020 A 
ENDROOT
BRANCH   2   7
ATOM      7  N   UNL d   1      33.241  18.258 -23.103  0.00  0.00    -0.158 NA
BRANCH   7   8
ATOM      8  S   UNL d   1      32.612  17.862 -23.466  0.00  0.00     0.285 S 
ATOM      9  O   UNL d   1      32.301  17.672 -22.722  0.00  0.00    -0.198 OA
ATOM     10  O   UNL d   1      32.915  18.047 -24.206  0.00  0.00    -0.198 OA
BRANCH   8  11
ATOM     11  C   UNL d   1      31.985  17.467 -23.821  0.00  0.00     0.107 A 
ATOM     12  C   UNL d   1      31.334  17.892 -24.094  0.00  0.00     0.037 A 
ATOM     13  C   UNL d   1      30.696  17.500 -24.455  0.00  0.00     0.095 A 
ATOM     14  C   UNL d   1      30.719  16.681 -24.536  0.00  0.00     0.024 A 
ATOM     15  C   UNL d   1      31.369  16.252 -24.263  0.00  0.00     0.003 A 
ATOM     16  C   UNL d   1      32.003  16.645 -23.905  0.00  0.00     0.013 A 
BRANCH  13  17
ATOM     17  O   UNL d   1      30.035  17.932 -24.733  0.00  0.00    -0.328 OA
ATOM     18  C   UNL d   1      29.315  17.540 -24.862  0.00  0.00     0.181 C 
ENDBRANCH  13  17
ENDBRANCH   8  11
ENDBRANCH   7   8
ENDBRANCH   2   7
BRANCH   1  19
ATOM     19  C   UNL d   1      32.890  21.415 -22.198  0.00  0.00     0.279 C 
ATOM     20  N   UNL d   1      32.961  21.619 -21.405  0.00  0.00    -0.204 NA
ATOM     21  O   UNL d   1      32.729  21.999 -22.766  0.00  0.00    -0.265 OA
BRANCH  20  22
ATOM     22  C   UNL d   1      32.872  22.412 -21.173  0.00  0.00     0.127 C 
BRANCH  22  23
ATOM     23  C   UNL d   1      32.941  22.619 -20.368  0.00  0.00     0.119 A 
ATOM     24  O   UNL d   1      32.988  22.095 -19.738  0.00  0.00    -0.304 OA
ATOM     25  C   UNL d   1      33.050  22.541 -19.051  0.00  0.00     0.123 A 
ATOM     26  C   UNL d   1      33.042  23.328 -19.260  0.00  0.00     0.029 A 
ATOM     27  C   UNL d   1      32.974  23.377 -20.078  0.00  0.00     0.028 A 
ENDBRANCH  22  23
ENDBRANCH  20  22
ENDBRANCH   1  19
TORSDOF 7
ENDMDL
