MODEL 1
REMARK VINA RESULT:      -7.0      0.000      0.000
REMARK  3 active torsions:
REMARK  status: ('A' for Active; 'I' for Inactive)
REMARK    1  A    between atoms: S_11  and  C_4 
REMARK    2  A    between atoms: C_14  and  S_11 
REMARK    3  A    between atoms: O_15  and  C_12 
ROOT
ATOM      1  N   UNL d   1     -50.901  15.542  22.574  0.00  0.00    -0.195 NA
ATOM      2  C   UNL d   1     -50.281  14.990  22.569  0.00  0.00     0.086 C 
ATOM      3  C   UNL d   1     -49.659  14.436  22.552  0.00  0.00     0.168 C 
ENDROOT
BRANCH   3   4
ATOM      4  S   UNL d   1     -49.296  14.180  23.271  0.00  0.00    -0.078 SA
BRANCH   4   5
ATOM      5  C   UNL d   1     -48.612  13.672  23.239  0.00  0.00     0.108 A 
ATOM      6  N   UNL d   1     -47.893  13.970  22.966  0.00  0.00    -0.239 NA
ATOM      7  C   UNL d   1     -47.248  13.468  22.943  0.00  0.00     0.084 A 
ATOM      8  C   UNL d   1     -47.312  12.693  23.182  0.00  0.00     0.018 A 
ATOM      9  C   UNL d   1     -46.529  13.766  22.671  0.00  0.00     0.043 A 
ATOM     10  C   UNL d   1     -48.024  12.385  23.455  0.00  0.00     0.004 A 
ATOM     11  C   UNL d   1     -46.660  12.181  23.160  0.00  0.00     0.004 A 
ATOM     12  C   UNL d   1     -48.676  12.898  23.478  0.00  0.00     0.025 A 
ATOM     13  C   UNL d   1     -48.088  11.610  23.695  0.00  0.00     0.000 C 
ATOM     14  C   UNL d   1     -45.931  12.487  22.883  0.00  0.00     0.024 A 
ATOM     15  C   UNL d   1     -45.867  13.261  22.644  0.00  0.00     0.096 A 
BRANCH  15  16
ATOM     16  O   UNL d   1     -45.143  13.559  22.370  0.00  0.00    -0.328 OA
ATOM     17  C   UNL d   1     -44.668  13.082  21.880  0.00  0.00     0.181 C 
ENDBRANCH  15  16
ENDBRANCH   4   5
ENDBRANCH   3   4
TORSDOF 3
ENDMDL
MODEL 2
REMARK VINA RESULT:      -7.0      2.108      3.912
REMARK  3 active torsions:
REMARK  status: ('A' for Active; 'I' for Inactive)
REMARK    1  A    between atoms: S_11  and  C_4 
REMARK    2  A    between atoms: C_14  and  S_11 
REMARK    3  A    between atoms: O_15  and  C_12 
ROOT
ATOM      1  N   UNL d   1     -43.847  12.806  21.714  0.00  0.00    -0.195 NA
ATOM      2  C   UNL d   1     -44.664  12.905  21.812  0.00  0.00     0.086 C 
ATOM      3  C   UNL d   1     -45.487  13.001  21.900  0.00  0.00     0.168 C 
ENDROOT
BRANCH   3   4
ATOM      4  S   UNL d   1     -45.807  13.306  22.620  0.00  0.00    -0.078 SA
BRANCH   4   5
ATOM      5  C   UNL d   1     -46.652  13.348  22.721  0.00  0.00     0.108 A 
ATOM      6  N   UNL d   1     -47.072  12.672  22.939  0.00  0.00    -0.239 NA
ATOM      7  C   UNL d   1     -47.883  12.731  23.031  0.00  0.00     0.084 A 
ATOM      8  C   UNL d   1     -48.267  13.437  22.911  0.00  0.00     0.018 A 
ATOM      9  C   UNL d   1     -48.302  12.055  23.250  0.00  0.00     0.043 A 
ATOM     10  C   UNL d   1     -47.859  14.117  22.693  0.00  0.00     0.004 A 
ATOM     11  C   UNL d   1     -49.089  13.500  23.003  0.00  0.00     0.004 A 
ATOM     12  C   UNL d   1     -47.037  14.054  22.600  0.00  0.00     0.025 A 
ATOM     13  C   UNL d   1     -48.244  14.824  22.572  0.00  0.00     0.000 C 
ATOM     14  C   UNL d   1     -49.513  12.812  23.225  0.00  0.00     0.024 A 
ATOM     15  C   UNL d   1     -49.128  12.106  23.346  0.00  0.00     0.096 A 
BRANCH  15  16
ATOM     16  O   UNL d   1     -49.552  11.428  23.565  0.00  0.00    -0.328 OA
ATOM     17  C   UNL d   1     -50.372  11.488  23.698  0.00  0.00     0.181 C 
ENDBRANCH  15  16
ENDBRANCH   4   5
ENDBRANCH   3   4
TORSDOF 3
ENDMDL
MODEL 3
REMARK VINA RESULT:      -6.7      1.414      2.069
REMARK  3 active torsions:
REMARK  status: ('A' for Active; 'I' for Inactive)
REMARK    1  A    between atoms: S_11  and  C_4 
REMARK    2  A    between atoms: C_14  and  S_11 
REMARK    3  A    between atoms: O_15  and  C_12 
ROOT
ATOM      1  N   UNL d   1     -50.890  11.276  23.698  0.00  0.00    -0.195 NA
ATOM      2  C   UNL d   1     -50.274  11.827  23.628  0.00  0.00     0.086 C 
ATOM      3  C   UNL d   1     -49.655  12.382  23.570  0.00  0.00     0.168 C 
ENDROOT
BRANCH   3   4
ATOM      4  S   UNL d   1     -49.363  12.618  22.813  0.00  0.00    -0.078 SA
BRANCH   4   5
ATOM      5  C   UNL d   1     -48.660  13.096  22.763  0.00  0.00     0.108 A 
ATOM      6  N   UNL d   1     -47.918  12.734  22.748  0.00  0.00    -0.239 NA
ATOM      7  C   UNL d   1     -47.255  13.210  22.700  0.00  0.00     0.084 A 
ATOM      8  C   UNL d   1     -47.322  14.019  22.669  0.00  0.00     0.018 A 
ATOM      9  C   UNL d   1     -46.514  12.847  22.685  0.00  0.00     0.043 A 
ATOM     10  C   UNL d   1     -48.055  14.391  22.683  0.00  0.00     0.004 A 
ATOM     11  C   UNL d   1     -46.651  14.505  22.620  0.00  0.00     0.004 A 
ATOM     12  C   UNL d   1     -48.727  13.906  22.731  0.00  0.00     0.025 A 
ATOM     13  C   UNL d   1     -48.122  15.202  22.651  0.00  0.00     0.000 C 
ATOM     14  C   UNL d   1     -45.900  14.134  22.605  0.00  0.00     0.024 A 
ATOM     15  C   UNL d   1     -45.833  13.324  22.637  0.00  0.00     0.096 A 
BRANCH  15  16
ATOM     16  O   UNL d   1     -45.087  12.963  22.622  0.00  0.00    -0.328 OA
ATOM     17  C   UNL d   1     -44.636  12.993  21.922  0.00  0.00     0.181 C 
ENDBRANCH  15  16
ENDBRANCH   4   5
ENDBRANCH   3   4
TORSDOF 3
ENDMDL
MODEL 4
REMARK VINA RESULT:      -6.7      2.104      3.788
REMARK  3 active torsions:
REMARK  status: ('A' for Active; 'I' for Inactive)
REMARK    1  A    between atoms: S_11  and  C_4 
REMARK    2  A    between atoms: C_14  and  S_11 
REMARK    3  A    between atoms: O_15  and  C_12 
ROOT
ATOM      1  N   UNL d   1     -45.071  11.077  23.578  0.00  0.00    -0.195 NA
ATOM      2  C   UNL d   1     -45.823  11.422  23.632  0.00  0.00     0.086 C 
ATOM      3  C   UNL d   1     -46.575  11.775  23.694  0.00  0.00     0.168 C 
ENDROOT
BRANCH   3   4
ATOM      4  S   UNL d   1     -47.234  11.455  23.272  0.00  0.00    -0.078 SA
BRANCH   4   5
ATOM      5  C   UNL d   1     -47.976  11.874  23.271  0.00  0.00     0.108 A 
ATOM      6  N   UNL d   1     -47.996  12.672  23.063  0.00  0.00    -0.239 NA
ATOM      7  C   UNL d   1     -48.717  13.057  23.067  0.00  0.00     0.084 A 
ATOM      8  C   UNL d   1     -49.400  12.665  23.270  0.00  0.00     0.018 A 
ATOM      9  C   UNL d   1     -48.736  13.855  22.860  0.00  0.00     0.043 A 
ATOM     10  C   UNL d   1     -49.393  11.869  23.479  0.00  0.00     0.004 A 
ATOM     11  C   UNL d   1     -50.133  13.052  23.275  0.00  0.00     0.004 A 
ATOM     12  C   UNL d   1     -48.659  11.481  23.474  0.00  0.00     0.025 A 
ATOM     13  C   UNL d   1     -50.076  11.476  23.682  0.00  0.00     0.000 C 
ATOM     14  C   UNL d   1     -50.149  13.863  23.065  0.00  0.00     0.024 A 
ATOM     15  C   UNL d   1     -49.467  14.255  22.862  0.00  0.00     0.096 A 
BRANCH  15  16
ATOM     16  O   UNL d   1     -49.488  15.057  22.654  0.00  0.00    -0.328 OA
ATOM     17  C   UNL d   1     -49.614  15.627  23.248  0.00  0.00     0.181 C 
ENDBRANCH  15  16
ENDBRANCH   4   5
ENDBRANCH   3   4
TORSDOF 3
ENDMDL
MODEL 5
REMARK VINA RESULT:      -5.4      1.165      1.501
REMARK  3 active torsions:
REMARK  status: ('A' for Active; 'I' for Inactive)
REMARK    1  A    between atoms: S_11  and  C_4 
REMARK    2  A    between atoms: C_14  and  S_11 
REMARK    3  A    between atoms: O_15  and  C_12 
ROOT
ATOM      1  N   UNL d   1     -51.041  15.125  20.771  0.00  0.00    -0.195 NA
ATOM      2  C   UNL d   1     -50.764  14.470  21.197  0.00  0.00     0.086 C 
ATOM      3  C   UNL d   1     -50.487  13.804  21.616  0.00  0.00     0.168 C 
ENDROOT
BRANCH   3   4
ATOM      4  S   UNL d   1     -50.206  13.886  22.408  0.00  0.00    -0.078 SA
BRANCH   4   5
ATOM      5  C   UNL d   1     -49.664  13.309  22.724  0.00  0.00     0.108 A 
ATOM      6  N   UNL d   1     -48.861  13.491  22.781  0.00  0.00    -0.239 NA
ATOM      7  C   UNL d   1     -48.355  12.925  23.086  0.00  0.00     0.084 A 
ATOM      8  C   UNL d   1     -48.635  12.201  23.328  0.00  0.00     0.018 A 
ATOM      9  C   UNL d   1     -47.553  13.107  23.144  0.00  0.00     0.043 A 
ATOM     10  C   UNL d   1     -49.433  12.008  23.275  0.00  0.00     0.004 A 
ATOM     11  C   UNL d   1     -48.125  11.624  23.638  0.00  0.00     0.004 A 
ATOM     12  C   UNL d   1     -49.943  12.585  22.965  0.00  0.00     0.025 A 
ATOM     13  C   UNL d   1     -49.713  11.283  23.517  0.00  0.00     0.000 C 
ATOM     14  C   UNL d   1     -47.311  11.812  23.695  0.00  0.00     0.024 A 
ATOM     15  C   UNL d   1     -47.031  12.536  23.453  0.00  0.00     0.096 A 
BRANCH  15  16
ATOM     16  O   UNL d   1     -46.224  12.717  23.512  0.00  0.00    -0.328 OA
ATOM     17  C   UNL d   1     -45.703  12.440  22.924  0.00  0.00     0.181 C 
ENDBRANCH  15  16
ENDBRANCH   4   5
ENDBRANCH   3   4
TORSDOF 3
ENDMDL
MODEL 6
REMARK VINA RESULT:      -5.1      9.178      9.599
REMARK  3 active torsions:
REMARK  status: ('A' for Active; 'I' for Inactive)
REMARK    1  A    between atoms: S_11  and  C_4 
REMARK    2  A    between atoms: C_14  and  S_11 
REMARK    3  A    between atoms: O_15  and  C_12 
ROOT
ATOM      1  N   UNL d   1     -42.664  15.922  15.777  0.00  0.00    -0.195 NA
ATOM      2  C   UNL d   1     -41.951  15.831  16.191  0.00  0.00     0.086 C 
ATOM      3  C   UNL d   1     -41.230  15.742  16.598  0.00  0.00     0.168 C 
ENDROOT
BRANCH   3   4
ATOM      4  S   UNL d   1     -41.224  15.576  17.427  0.00  0.00    -0.078 SA
BRANCH   4   5
ATOM      5  C   UNL d   1     -40.546  15.195  17.776  0.00  0.00     0.108 A 
ATOM      6  N   UNL d   1     -40.281  14.474  17.474  0.00  0.00    -0.239 NA
ATOM      7  C   UNL d   1     -39.629  14.124  17.822  0.00  0.00     0.084 A 
ATOM      8  C   UNL d   1     -39.250  14.475  18.449  0.00  0.00     0.018 A 
ATOM      9  C   UNL d   1     -39.365  13.404  17.520  0.00  0.00     0.043 A 
ATOM     10  C   UNL d   1     -39.505  15.193  18.758  0.00  0.00     0.004 A 
ATOM     11  C   UNL d   1     -38.589  14.123  18.804  0.00  0.00     0.004 A 
ATOM     12  C   UNL d   1     -40.167  15.547  18.403  0.00  0.00     0.025 A 
ATOM     13  C   UNL d   1     -39.126  15.545  19.387  0.00  0.00     0.000 C 
ATOM     14  C   UNL d   1     -38.322  13.391  18.496  0.00  0.00     0.024 A 
ATOM     15  C   UNL d   1     -38.701  13.040  17.868  0.00  0.00     0.096 A 
BRANCH  15  16
ATOM     16  O   UNL d   1     -38.433  12.316  17.566  0.00  0.00    -0.328 OA
ATOM     17  C   UNL d   1     -37.951  11.831  18.043  0.00  0.00     0.181 C 
ENDBRANCH  15  16
ENDBRANCH   4   5
ENDBRANCH   3   4
TORSDOF 3
ENDMDL
MODEL 7
REMARK VINA RESULT:      -4.7      7.865      9.763
REMARK  3 active torsions:
REMARK  status: ('A' for Active; 'I' for Inactive)
REMARK    1  A    between atoms: S_11  and  C_4 
REMARK    2  A    between atoms: C_14  and  S_11 
REMARK    3  A    between atoms: O_15  and  C_12 
ROOT
ATOM      1  N   UNL d   1     -37.940  11.391  17.546  0.00  0.00    -0.195 NA
ATOM      2  C   UNL d   1     -38.210  12.159  17.703  0.00  0.00     0.086 C 
ATOM      3  C   UNL d   1     -38.475  12.931  17.870  0.00  0.00     0.168 C 
ENDROOT
BRANCH   3   4
ATOM      4  S   UNL d   1     -39.073  13.290  17.393  0.00  0.00    -0.078 SA
BRANCH   4   5
ATOM      5  C   UNL d   1     -39.522  13.945  17.702  0.00  0.00     0.108 A 
ATOM      6  N   UNL d   1     -39.621  14.024  18.518  0.00  0.00    -0.239 NA
ATOM      7  C   UNL d   1     -40.055  14.659  18.797  0.00  0.00     0.084 A 
ATOM      8  C   UNL d   1     -40.382  15.199  18.285  0.00  0.00     0.018 A 
ATOM      9  C   UNL d   1     -40.153  14.738  19.611  0.00  0.00     0.043 A 
ATOM     10  C   UNL d   1     -40.290  15.130  17.470  0.00  0.00     0.004 A 
ATOM     11  C   UNL d   1     -40.822  15.844  18.564  0.00  0.00     0.004 A 
ATOM     12  C   UNL d   1     -39.849  14.485  17.190  0.00  0.00     0.025 A 
ATOM     13  C   UNL d   1     -40.617  15.672  16.958  0.00  0.00     0.000 C 
ATOM     14  C   UNL d   1     -40.921  15.922  19.392  0.00  0.00     0.024 A 
ATOM     15  C   UNL d   1     -40.594  15.381  19.904  0.00  0.00     0.096 A 
BRANCH  15  16
ATOM     16  O   UNL d   1     -40.695  15.463  20.723  0.00  0.00    -0.328 OA
ATOM     17  C   UNL d   1     -41.446  15.663  21.021  0.00  0.00     0.181 C 
ENDBRANCH  15  16
ENDBRANCH   4   5
ENDBRANCH   3   4
TORSDOF 3
ENDMDL
MODEL 8
REMARK VINA RESULT:      -4.6      8.040      8.818
REMARK  3 active torsions:
REMARK  status: ('A' for Active; 'I' for Inactive)
REMARK    1  A    between atoms: S_11  and  C_4 
REMARK    2  A    between atoms: C_14  and  S_11 
REMARK    3  A    between atoms: O_15  and  C_12 
ROOT
ATOM      1  N   UNL d   1     -40.497  14.883  16.306  0.00  0.00    -0.195 NA
ATOM      2  C   UNL d   1     -40.523  14.843  17.134  0.00  0.00     0.086 C 
ATOM      3  C   UNL d   1     -40.557  14.795  17.965  0.00  0.00     0.168 C 
ENDROOT
BRANCH   3   4
ATOM      4  S   UNL d   1     -40.111  15.331  18.442  0.00  0.00    -0.078 SA
BRANCH   4   5
ATOM      5  C   UNL d   1     -40.078  15.216  19.286  0.00  0.00     0.108 A 
ATOM      6  N   UNL d   1     -39.520  14.699  19.607  0.00  0.00    -0.239 NA
ATOM      7  C   UNL d   1     -39.503  14.601  20.419  0.00  0.00     0.084 A 
ATOM      8  C   UNL d   1     -40.021  15.003  20.900  0.00  0.00     0.018 A 
ATOM      9  C   UNL d   1     -38.946  14.085  20.739  0.00  0.00     0.043 A 
ATOM     10  C   UNL d   1     -40.581  15.520  20.591  0.00  0.00     0.004 A 
ATOM     11  C   UNL d   1     -40.007  14.906  21.723  0.00  0.00     0.004 A 
ATOM     12  C   UNL d   1     -40.596  15.617  19.767  0.00  0.00     0.025 A 
ATOM     13  C   UNL d   1     -41.100  15.922  21.073  0.00  0.00     0.000 C 
ATOM     14  C   UNL d   1     -39.440  14.380  22.046  0.00  0.00     0.024 A 
ATOM     15  C   UNL d   1     -38.921  13.979  21.565  0.00  0.00     0.096 A 
BRANCH  15  16
ATOM     16  O   UNL d   1     -38.362  13.460  21.889  0.00  0.00    -0.328 OA
ATOM     17  C   UNL d   1     -38.385  13.298  22.706  0.00  0.00     0.181 C 
ENDBRANCH  15  16
ENDBRANCH   4   5
ENDBRANCH   3   4
TORSDOF 3
ENDMDL
MODEL 9
REMARK VINA RESULT:      -4.4      9.606     10.618
REMARK  3 active torsions:
REMARK  status: ('A' for Active; 'I' for Inactive)
REMARK    1  A    between atoms: S_11  and  C_4 
REMARK    2  A    between atoms: C_14  and  S_11 
REMARK    3  A    between atoms: O_15  and  C_12 
ROOT
ATOM      1  N   UNL d   1     -37.940  10.135  17.759  0.00  0.00    -0.195 NA
ATOM      2  C   UNL d   1     -38.010  10.927  17.995  0.00  0.00     0.086 C 
ATOM      3  C   UNL d   1     -38.082  11.719  18.243  0.00  0.00     0.168 C 
ENDROOT
BRANCH   3   4
ATOM      4  S   UNL d   1     -38.019  12.349  17.683  0.00  0.00    -0.078 SA
BRANCH   4   5
ATOM      5  C   UNL d   1     -38.396  13.096  17.846  0.00  0.00     0.108 A 
ATOM      6  N   UNL d   1     -39.127  13.268  17.505  0.00  0.00    -0.239 NA
ATOM      7  C   UNL d   1     -39.474  13.990  17.672  0.00  0.00     0.084 A 
ATOM      8  C   UNL d   1     -39.108  14.526  18.162  0.00  0.00     0.018 A 
ATOM      9  C   UNL d   1     -40.205  14.161  17.331  0.00  0.00     0.043 A 
ATOM     10  C   UNL d   1     -38.379  14.365  18.508  0.00  0.00     0.004 A 
ATOM     11  C   UNL d   1     -39.456  15.258  18.334  0.00  0.00     0.004 A 
ATOM     12  C   UNL d   1     -38.030  13.632  18.336  0.00  0.00     0.025 A 
ATOM     13  C   UNL d   1     -38.013  14.902  18.998  0.00  0.00     0.000 C 
ATOM     14  C   UNL d   1     -40.199  15.430  17.986  0.00  0.00     0.024 A 
ATOM     15  C   UNL d   1     -40.565  14.894  17.496  0.00  0.00     0.096 A 
BRANCH  15  16
ATOM     16  O   UNL d   1     -41.299  15.069  17.155  0.00  0.00    -0.328 OA
ATOM     17  C   UNL d   1     -41.385  15.771  16.715  0.00  0.00     0.181 C 
ENDBRANCH  15  16
ENDBRANCH   4   5
ENDBRANCH   3   4
TORSDOF 3
ENDMDL
