MODEL 1
REMARK VINA RESULT:      -0.5      0.000      0.000
REMARK  5 active torsions:
REMARK  status: ('A' for Active; 'I' for Inactive)
REMARK       I    between atoms: C_7  and  N_1 
REMARK    1  A    between atoms: C_11  and  C_3 
REMARK    2  A    between atoms: C_14  and  C_5 
REMARK    3  A    between atoms: C_18  and  C_7 
REMARK    4  A    between atoms: C_17  and  O_19 
REMARK    5  A    between atoms: O_19  and  C_18 
ROOT
ATOM      1  N   UNL d   1      33.194  20.473 -22.794  0.00  0.00    -0.193 N 
ATOM      2  N   UNL d   1      33.219  20.147 -22.037  0.00  0.00    -0.162 NA
ATOM      3  C   UNL d   1      33.196  20.774 -21.497  0.00  0.00     0.109 A 
ATOM      4  C   UNL d   1      33.156  21.294 -22.719  0.00  0.00     0.088 A 
ATOM      5  C   UNL d   1      33.157  21.474 -21.916  0.00  0.00     0.041 A 
ATOM      6  C   UNL d   1      33.200  20.127 -23.543  0.00  0.00     0.305 C 
ATOM      7  O   UNL d   1      33.169  20.602 -24.218  0.00  0.00    -0.263 OA
ENDROOT
BRANCH   4   8
ATOM      8  C   UNL d   1      33.121  21.862 -23.316  0.00  0.00     0.018 A 
ATOM      9  C   UNL d   1      33.010  22.651 -23.121  0.00  0.00     0.004 A 
ATOM     10  C   UNL d   1      32.974  23.225 -23.718  0.00  0.00     0.030 A 
ATOM     11  C   UNL d   1      33.050  22.999 -24.497  0.00  0.00     0.140 A 
ATOM     12  C   UNL d   1      33.163  22.200 -24.693  0.00  0.00     0.030 A 
ATOM     13  F   UNL d   1      33.014  23.576 -25.093  0.00  0.00    -0.204 F 
ATOM     14  C   UNL d   1      33.197  21.637 -24.104  0.00  0.00     0.004 A 
ENDBRANCH   4   8
BRANCH   6  15
ATOM     15  C   UNL d   1      33.238  19.306 -23.618  0.00  0.00     0.185 C 
BRANCH  15  16
ATOM     16  O   UNL d   1      32.724  18.915 -24.132  0.00  0.00    -0.300 OA
BRANCH  16  17
ATOM     17  C   UNL d   1      32.571  18.111 -24.027  0.00  0.00     0.100 A 
ATOM     18  C   UNL d   1      31.831  17.802 -24.228  0.00  0.00     0.029 A 
ATOM     19  C   UNL d   1      31.678  16.998 -24.123  0.00  0.00     0.059 A 
ATOM     20  C   UNL d   1      31.251  18.298 -24.531  0.00  0.00     0.021 A 
ATOM     21  C   UNL d   1      30.944  16.690 -24.322  0.00  0.00     0.265 A 
ATOM     22  C   UNL d   1      32.263  16.503 -23.819  0.00  0.00     0.005 A 
ATOM     23  O   UNL d   1      30.790  15.886 -24.218  0.00  0.00    -0.267 OA
ATOM     24  N   UNL d   1      30.358  17.185 -24.627  0.00  0.00    -0.270 N 
ATOM     25  C   UNL d   1      30.512  17.989 -24.732  0.00  0.00     0.083 A 
ATOM     26  C   UNL d   1      29.613  16.869 -24.829  0.00  0.00     0.102 C 
ATOM     27  C   UNL d   1      33.002  16.811 -23.618  0.00  0.00     0.002 A 
ATOM     28  C   UNL d   1      33.156  17.615 -23.722  0.00  0.00     0.025 A 
ENDBRANCH  16  17
ENDBRANCH  15  16
ENDBRANCH   6  15
BRANCH   3  29
ATOM     29  C   UNL d   1      33.212  20.669 -20.687  0.00  0.00     0.049 A 
ATOM     30  S   UNL d   1      33.227  21.297 -20.139  0.00  0.00    -0.085 SA
ATOM     31  C   UNL d   1      33.240  20.974 -19.390  0.00  0.00     0.035 A 
ATOM     32  C   UNL d   1      33.233  20.154 -19.459  0.00  0.00     0.007 A 
ATOM     33  C   UNL d   1      33.215  19.964 -20.258  0.00  0.00     0.009 A 
ENDBRANCH   3  29
TORSDOF 5
ENDMDL
