MODEL 1
REMARK VINA RESULT:      -4.4      0.000      0.000
REMARK  4 active torsions:
REMARK  status: ('A' for Active; 'I' for Inactive)
REMARK    1  A    between atoms: C_8  and  C_1 
REMARK    2  A    between atoms: N_5  and  C_2 
REMARK       I    between atoms: C_6  and  N_5 
REMARK    3  A    between atoms: C_10  and  C_6 
REMARK    4  A    between atoms: N_9  and  C_8 
ROOT
ATOM      1  C   UNL d   1      57.663   0.651  31.602  0.00  0.00     0.042 A 
ATOM      2  C   UNL d   1      57.949   0.643  30.830  0.00  0.00     0.115 A 
ATOM      3  S   UNL d   1      58.772   0.654  30.874  0.00  0.00    -0.068 SA
ATOM      4  C   UNL d   1      58.305   0.666  32.110  0.00  0.00     0.009 A 
ATOM      5  C   UNL d   1      58.989   0.668  31.659  0.00  0.00     0.031 A 
ATOM      6  C   UNL d   1      58.262   0.678  32.941  0.00  0.00     0.001 C 
ATOM      7  C   UNL d   1      59.770   0.681  31.934  0.00  0.00     0.007 C 
ENDROOT
BRANCH   2   8
ATOM      8  N   UNL d   1      57.501   0.627  30.137  0.00  0.00    -0.201 NA
ATOM      9  C   UNL d   1      57.844   0.369  29.430  0.00  0.00     0.282 C 
ATOM     10  O   UNL d   1      57.394   0.355  28.744  0.00  0.00    -0.265 OA
BRANCH   9  11
ATOM     11  C   UNL d   1      58.635   0.127  29.419  0.00  0.00     0.085 A 
ATOM     12  C   UNL d   1      58.812  -0.676  29.340  0.00  0.00     0.145 A 
ATOM     13  F   UNL d   1      58.260  -1.285  29.268  0.00  0.00    -0.204 F 
ATOM     14  C   UNL d   1      59.599  -0.924  29.328  0.00  0.00     0.030 A 
ATOM     15  C   UNL d   1      60.203  -0.361  29.396  0.00  0.00     0.002 A 
ATOM     16  C   UNL d   1      60.024   0.439  29.474  0.00  0.00     0.000 A 
ATOM     17  C   UNL d   1      59.233   0.680  29.485  0.00  0.00     0.007 A 
ENDBRANCH   9  11
ENDBRANCH   2   8
BRANCH   1  18
ATOM     18  C   UNL d   1      56.889   0.646  31.906  0.00  0.00     0.082 C 
BRANCH  18  19
ATOM     19  N   UNL d   1      56.565  -0.059  32.173  0.00  0.00    -0.304 N 
ATOM     20  C   UNL d   1      55.930  -0.040  32.717  0.00  0.00     0.064 A 
ATOM     21  C   UNL d   1      55.636   0.682  32.979  0.00  0.00     0.019 C 
ATOM     22  C   UNL d   1      55.598  -0.747  32.990  0.00  0.00     0.018 A 
ATOM     23  C   UNL d   1      55.893  -1.466  32.726  0.00  0.00     0.003 A 
ATOM     24  C   UNL d   1      56.521  -1.483  32.188  0.00  0.00     0.019 A 
ATOM     25  C   UNL d   1      56.852  -0.783  31.916  0.00  0.00     0.080 A 
ENDBRANCH  18  19
ENDBRANCH   1  18
TORSDOF 4
ENDMDL
MODEL 2
REMARK VINA RESULT:      -2.1      1.303      1.837
REMARK  4 active torsions:
REMARK  status: ('A' for Active; 'I' for Inactive)
REMARK    1  A    between atoms: C_8  and  C_1 
REMARK    2  A    between atoms: N_5  and  C_2 
REMARK       I    between atoms: C_6  and  N_5 
REMARK    3  A    between atoms: C_10  and  C_6 
REMARK    4  A    between atoms: N_9  and  C_8 
ROOT
ATOM      1  C   UNL d   1      58.013  -0.688  30.838  0.00  0.00     0.042 A 
ATOM      2  C   UNL d   1      58.080  -0.897  30.044  0.00  0.00     0.115 A 
ATOM      3  S   UNL d   1      58.650  -0.404  29.710  0.00  0.00    -0.068 SA
ATOM      4  C   UNL d   1      58.536  -0.076  30.984  0.00  0.00     0.009 A 
ATOM      5  C   UNL d   1      58.928   0.098  30.286  0.00  0.00     0.031 A 
ATOM      6  C   UNL d   1      58.644   0.301  31.718  0.00  0.00     0.001 C 
ATOM      7  C   UNL d   1      59.508   0.679  30.169  0.00  0.00     0.007 C 
ENDROOT
BRANCH   2   8
ATOM      8  N   UNL d   1      57.658  -1.488  29.651  0.00  0.00    -0.201 NA
ATOM      9  C   UNL d   1      58.057  -2.020  29.158  0.00  0.00     0.282 C 
ATOM     10  O   UNL d   1      57.634  -2.605  28.770  0.00  0.00    -0.265 OA
BRANCH   9  11
ATOM     11  C   UNL d   1      58.876  -1.959  29.060  0.00  0.00     0.085 A 
ATOM     12  C   UNL d   1      59.370  -2.509  29.428  0.00  0.00     0.145 A 
ATOM     13  F   UNL d   1      59.122  -3.138  29.900  0.00  0.00    -0.204 F 
ATOM     14  C   UNL d   1      60.189  -2.454  29.334  0.00  0.00     0.030 A 
ATOM     15  C   UNL d   1      60.503  -1.843  28.871  0.00  0.00     0.002 A 
ATOM     16  C   UNL d   1      60.009  -1.296  28.506  0.00  0.00     0.000 A 
ATOM     17  C   UNL d   1      59.190  -1.358  28.604  0.00  0.00     0.007 A 
ENDBRANCH   9  11
ENDBRANCH   2   8
BRANCH   1  18
ATOM     18  C   UNL d   1      57.534  -0.984  31.450  0.00  0.00     0.082 C 
BRANCH  18  19
ATOM     19  N   UNL d   1      56.933  -0.517  31.755  0.00  0.00    -0.304 N 
ATOM     20  C   UNL d   1      56.490  -0.790  32.408  0.00  0.00     0.064 A 
ATOM     21  C   UNL d   1      56.659  -1.523  32.740  0.00  0.00     0.019 C 
ATOM     22  C   UNL d   1      55.882  -0.323  32.720  0.00  0.00     0.018 A 
ATOM     23  C   UNL d   1      55.715   0.407  32.387  0.00  0.00     0.003 A 
ATOM     24  C   UNL d   1      56.154   0.677  31.740  0.00  0.00     0.019 A 
ATOM     25  C   UNL d   1      56.758   0.216  31.429  0.00  0.00     0.080 A 
ENDBRANCH  18  19
ENDBRANCH   1  18
TORSDOF 4
ENDMDL
MODEL 3
REMARK VINA RESULT:      -2.0      1.995      3.953
REMARK  4 active torsions:
REMARK  status: ('A' for Active; 'I' for Inactive)
REMARK    1  A    between atoms: C_8  and  C_1 
REMARK    2  A    between atoms: N_5  and  C_2 
REMARK       I    between atoms: C_6  and  N_5 
REMARK    3  A    between atoms: C_10  and  C_6 
REMARK    4  A    between atoms: N_9  and  C_8 
ROOT
ATOM      1  C   UNL d   1      59.038  -1.313  29.581  0.00  0.00     0.042 A 
ATOM      2  C   UNL d   1      58.263  -1.116  29.776  0.00  0.00     0.115 A 
ATOM      3  S   UNL d   1      58.131  -0.347  29.509  0.00  0.00    -0.068 SA
ATOM      4  C   UNL d   1      59.374  -0.671  29.199  0.00  0.00     0.009 A 
ATOM      5  C   UNL d   1      58.812  -0.076  29.155  0.00  0.00     0.031 A 
ATOM      6  C   UNL d   1      60.153  -0.637  28.907  0.00  0.00     0.001 C 
ATOM      7  C   UNL d   1      58.903   0.674  28.816  0.00  0.00     0.007 C 
ENDROOT
BRANCH   2   8
ATOM      8  N   UNL d   1      57.715  -1.594  30.167  0.00  0.00    -0.201 NA
ATOM      9  C   UNL d   1      57.446  -1.382  30.921  0.00  0.00     0.282 C 
ATOM     10  O   UNL d   1      56.902  -1.860  31.304  0.00  0.00    -0.265 OA
BRANCH   9  11
ATOM     11  C   UNL d   1      57.727  -0.692  31.280  0.00  0.00     0.085 A 
ATOM     12  C   UNL d   1      57.237  -0.028  31.320  0.00  0.00     0.145 A 
ATOM     13  F   UNL d   1      56.467   0.020  31.027  0.00  0.00    -0.204 F 
ATOM     14  C   UNL d   1      57.511   0.664  31.678  0.00  0.00     0.030 A 
ATOM     15  C   UNL d   1      58.277   0.681  31.993  0.00  0.00     0.002 A 
ATOM     16  C   UNL d   1      58.763   0.018  31.952  0.00  0.00     0.000 A 
ATOM     17  C   UNL d   1      58.482  -0.671  31.592  0.00  0.00     0.007 A 
ENDBRANCH   9  11
ENDBRANCH   2   8
BRANCH   1  18
ATOM     18  C   UNL d   1      59.483  -2.004  29.705  0.00  0.00     0.082 C 
BRANCH  18  19
ATOM     19  N   UNL d   1      59.282  -2.691  29.303  0.00  0.00    -0.304 N 
ATOM     20  C   UNL d   1      59.784  -3.357  29.352  0.00  0.00     0.064 A 
ATOM     21  C   UNL d   1      60.473  -3.321  29.800  0.00  0.00     0.019 C 
ATOM     22  C   UNL d   1      59.588  -4.053  28.949  0.00  0.00     0.018 A 
ATOM     23  C   UNL d   1      58.901  -4.087  28.502  0.00  0.00     0.003 A 
ATOM     24  C   UNL d   1      58.405  -3.427  28.455  0.00  0.00     0.019 A 
ATOM     25  C   UNL d   1      58.597  -2.736  28.854  0.00  0.00     0.080 A 
ENDBRANCH  18  19
ENDBRANCH   1  18
TORSDOF 4
ENDMDL
