MODEL 1
REMARK VINA RESULT:      -5.0      0.000      0.000
REMARK  5 active torsions:
REMARK  status: ('A' for Active; 'I' for Inactive)
REMARK    1  A    between atoms: N_2  and  S_1 
REMARK    2  A    between atoms: C_9  and  S_1 
REMARK    3  A    between atoms: C_4  and  N_11 
REMARK    4  A    between atoms: C_8  and  C_16 
REMARK       I    between atoms: N_10  and  C_8 
REMARK    5  A    between atoms: N_11  and  N_10 
ROOT
ATOM      1  C   UNL d   1     -47.790  13.828  22.702  0.00  0.00     0.104 A 
ATOM      2  C   UNL d   1     -46.173  13.775  22.403  0.00  0.00     0.059 A 
ATOM      3  C   UNL d   1     -47.505  13.387  22.065  0.00  0.00     0.013 A 
ATOM      4  C   UNL d   1     -47.266  14.242  23.187  0.00  0.00     0.013 A 
ATOM      5  C   UNL d   1     -46.455  14.212  23.034  0.00  0.00     0.006 A 
ATOM      6  C   UNL d   1     -46.697  13.363  21.918  0.00  0.00     0.006 A 
ENDROOT
BRANCH   2   7
ATOM      7  C   UNL d   1     -45.365  13.751  22.256  0.00  0.00     0.297 C 
ATOM      8  N   UNL d   1     -44.999  13.065  22.515  0.00  0.00    -0.104 NA
ATOM      9  O   UNL d   1     -45.088  14.436  21.872  0.00  0.00    -0.264 OA
BRANCH   8  10
ATOM     10  N   UNL d   1     -45.443  12.483  22.882  0.00  0.00    -0.118 NA
BRANCH  10  11
ATOM     11  C   UNL d   1     -45.100  11.749  23.070  0.00  0.00     0.215 A 
ATOM     12  N   UNL d   1     -44.297  11.596  23.146  0.00  0.00    -0.219 NA
ATOM     13  C   UNL d   1     -44.193  10.806  23.335  0.00  0.00     0.090 A 
ATOM     14  C   UNL d   1     -43.527  10.349  23.474  0.00  0.00     0.018 A 
ATOM     15  C   UNL d   1     -44.950  10.462  23.377  0.00  0.00     0.050 A 
ATOM     16  C   UNL d   1     -43.607   9.548  23.657  0.00  0.00     0.002 A 
ATOM     17  C   UNL d   1     -42.774  10.694  23.432  0.00  0.00     0.002 C 
ATOM     18  C   UNL d   1     -44.356   9.210  23.698  0.00  0.00     0.001 A 
ATOM     19  C   UNL d   1     -45.040   9.662  23.559  0.00  0.00     0.008 A 
ATOM     20  S   UNL d   1     -45.503  11.047  23.213  0.00  0.00    -0.045 SA
ENDBRANCH  10  11
ENDBRANCH   8  10
ENDBRANCH   2   7
BRANCH   1  21
ATOM     21  S   UNL d   1     -48.600  13.863  22.862  0.00  0.00     0.271 S 
ATOM     22  O   UNL d   1     -48.751  13.847  22.052  0.00  0.00    -0.200 OA
ATOM     23  O   UNL d   1     -48.451  13.879  23.672  0.00  0.00    -0.200 OA
BRANCH  21  24
ATOM     24  N   UNL d   1     -49.410  13.897  23.013  0.00  0.00    -0.229 N 
ATOM     25  C   UNL d   1     -49.803  14.606  22.906  0.00  0.00     0.092 A 
ATOM     26  C   UNL d   1     -50.613  14.641  23.056  0.00  0.00     0.018 A 
ATOM     27  C   UNL d   1     -51.045  15.351  22.956  0.00  0.00     0.002 C 
ATOM     28  C   UNL d   1     -51.016  13.965  23.312  0.00  0.00     0.003 A 
ATOM     29  C   UNL d   1     -50.608  13.256  23.417  0.00  0.00     0.018 A 
ATOM     30  C   UNL d   1     -49.797  13.222  23.266  0.00  0.00     0.092 A 
ATOM     31  C   UNL d   1     -51.025  12.580  23.675  0.00  0.00     0.002 C 
ENDBRANCH  21  24
ENDBRANCH   1  21
TORSDOF 5
ENDMDL
MODEL 2
REMARK VINA RESULT:      -3.0      3.069      4.120
REMARK  5 active torsions:
REMARK  status: ('A' for Active; 'I' for Inactive)
REMARK    1  A    between atoms: N_2  and  S_1 
REMARK    2  A    between atoms: C_9  and  S_1 
REMARK    3  A    between atoms: C_4  and  N_11 
REMARK    4  A    between atoms: C_8  and  C_16 
REMARK       I    between atoms: N_10  and  C_8 
REMARK    5  A    between atoms: N_11  and  N_10 
ROOT
ATOM      1  C   UNL d   1     -45.511  13.055  22.293  0.00  0.00     0.104 A 
ATOM      2  C   UNL d   1     -44.017  12.401  22.070  0.00  0.00     0.059 A 
ATOM      3  C   UNL d   1     -45.189  13.016  21.534  0.00  0.00     0.013 A 
ATOM      4  C   UNL d   1     -45.085  12.766  22.939  0.00  0.00     0.013 A 
ATOM      5  C   UNL d   1     -44.336  12.439  22.823  0.00  0.00     0.006 A 
ATOM      6  C   UNL d   1     -44.443  12.690  21.426  0.00  0.00     0.006 A 
ENDROOT
BRANCH   2   7
ATOM      7  C   UNL d   1     -43.272  12.074  21.962  0.00  0.00     0.297 C 
ATOM      8  N   UNL d   1     -42.723  12.590  21.641  0.00  0.00    -0.104 NA
ATOM      9  O   UNL d   1     -43.232  11.278  22.205  0.00  0.00    -0.264 OA
BRANCH   8  10
ATOM     10  N   UNL d   1     -42.947  13.358  21.460  0.00  0.00    -0.118 NA
BRANCH  10  11
ATOM     11  C   UNL d   1     -42.391  13.897  21.159  0.00  0.00     0.215 A 
ATOM     12  N   UNL d   1     -41.852  13.751  20.558  0.00  0.00    -0.219 NA
ATOM     13  C   UNL d   1     -41.406  14.427  20.429  0.00  0.00     0.090 A 
ATOM     14  C   UNL d   1     -40.797  14.603  19.908  0.00  0.00     0.018 A 
ATOM     15  C   UNL d   1     -41.676  15.004  20.964  0.00  0.00     0.050 A 
ATOM     16  C   UNL d   1     -40.453  15.353  19.915  0.00  0.00     0.002 A 
ATOM     17  C   UNL d   1     -40.530  14.025  19.377  0.00  0.00     0.002 C 
ATOM     18  C   UNL d   1     -40.722  15.922  20.444  0.00  0.00     0.001 A 
ATOM     19  C   UNL d   1     -41.338  15.757  20.978  0.00  0.00     0.008 A 
ATOM     20  S   UNL d   1     -42.282  14.673  21.410  0.00  0.00    -0.045 SA
ENDBRANCH  10  11
ENDBRANCH   8  10
ENDBRANCH   2   7
BRANCH   1  21
ATOM     21  S   UNL d   1     -46.259  13.381  22.418  0.00  0.00     0.271 S 
ATOM     22  O   UNL d   1     -46.510  13.055  21.703  0.00  0.00    -0.200 OA
ATOM     23  O   UNL d   1     -46.011  13.708  23.132  0.00  0.00    -0.200 OA
BRANCH  21  24
ATOM     24  N   UNL d   1     -47.010  13.703  22.535  0.00  0.00    -0.229 N 
ATOM     25  C   UNL d   1     -47.129  14.496  22.379  0.00  0.00     0.092 A 
ATOM     26  C   UNL d   1     -47.880  14.818  22.495  0.00  0.00     0.018 A 
ATOM     27  C   UNL d   1     -48.035  15.627  22.345  0.00  0.00     0.002 C 
ATOM     28  C   UNL d   1     -48.498  14.340  22.766  0.00  0.00     0.003 A 
ATOM     29  C   UNL d   1     -48.364  13.540  22.919  0.00  0.00     0.018 A 
ATOM     30  C   UNL d   1     -47.614  13.219  22.803  0.00  0.00     0.092 A 
ATOM     31  C   UNL d   1     -48.997  13.068  23.192  0.00  0.00     0.002 C 
ENDBRANCH  21  24
ENDBRANCH   1  21
TORSDOF 5
ENDMDL
MODEL 3
REMARK VINA RESULT:      -2.9      5.554      8.010
REMARK  5 active torsions:
REMARK  status: ('A' for Active; 'I' for Inactive)
REMARK    1  A    between atoms: N_2  and  S_1 
REMARK    2  A    between atoms: C_9  and  S_1 
REMARK    3  A    between atoms: C_4  and  N_11 
REMARK    4  A    between atoms: C_8  and  C_16 
REMARK       I    between atoms: N_10  and  C_8 
REMARK    5  A    between atoms: N_11  and  N_10 
ROOT
ATOM      1  C   UNL d   1     -40.297  14.839  19.164  0.00  0.00     0.104 A 
ATOM      2  C   UNL d   1     -40.312  14.309  20.722  0.00  0.00     0.059 A 
ATOM      3  C   UNL d   1     -40.052  14.069  19.339  0.00  0.00     0.013 A 
ATOM      4  C   UNL d   1     -40.549  15.340  19.769  0.00  0.00     0.013 A 
ATOM      5  C   UNL d   1     -40.555  15.071  20.549  0.00  0.00     0.006 A 
ATOM      6  C   UNL d   1     -40.061  13.808  20.117  0.00  0.00     0.006 A 
ENDROOT
BRANCH   2   7
ATOM      7  C   UNL d   1     -40.321  14.048  21.501  0.00  0.00     0.297 C 
ATOM      8  N   UNL d   1     -41.011  13.664  21.717  0.00  0.00    -0.104 NA
ATOM      9  O   UNL d   1     -39.619  14.232  21.909  0.00  0.00    -0.264 OA
BRANCH   8  10
ATOM     10  N   UNL d   1     -41.613  13.572  21.168  0.00  0.00    -0.118 NA
BRANCH  10  11
ATOM     11  C   UNL d   1     -42.351  13.268  21.401  0.00  0.00     0.215 A 
ATOM     12  N   UNL d   1     -42.477  12.583  21.833  0.00  0.00    -0.219 NA
ATOM     13  C   UNL d   1     -43.282  12.481  21.944  0.00  0.00     0.090 A 
ATOM     14  C   UNL d   1     -43.725  11.907  22.327  0.00  0.00     0.018 A 
ATOM     15  C   UNL d   1     -43.663  13.120  21.571  0.00  0.00     0.050 A 
ATOM     16  C   UNL d   1     -44.548  11.962  22.342  0.00  0.00     0.002 A 
ATOM     17  C   UNL d   1     -43.343  11.271  22.698  0.00  0.00     0.002 C 
ATOM     18  C   UNL d   1     -44.923  12.594  21.972  0.00  0.00     0.001 A 
ATOM     19  C   UNL d   1     -44.486  13.184  21.581  0.00  0.00     0.008 A 
ATOM     20  S   UNL d   1     -43.085  13.601  21.238  0.00  0.00    -0.045 SA
ENDBRANCH  10  11
ENDBRANCH   8  10
ENDBRANCH   2   7
BRANCH   1  21
ATOM     21  S   UNL d   1     -40.294  15.116  18.386  0.00  0.00     0.271 S 
ATOM     22  O   UNL d   1     -40.483  14.357  18.125  0.00  0.00    -0.200 OA
ATOM     23  O   UNL d   1     -40.105  15.875  18.644  0.00  0.00    -0.200 OA
BRANCH  21  24
ATOM     24  N   UNL d   1     -40.293  15.384  17.606  0.00  0.00    -0.229 N 
ATOM     25  C   UNL d   1     -41.008  15.512  17.231  0.00  0.00     0.092 A 
ATOM     26  C   UNL d   1     -41.007  15.780  16.451  0.00  0.00     0.018 A 
ATOM     27  C   UNL d   1     -41.722  15.922  16.038  0.00  0.00     0.002 C 
ATOM     28  C   UNL d   1     -40.291  15.915  16.060  0.00  0.00     0.003 A 
ATOM     29  C   UNL d   1     -39.576  15.782  16.450  0.00  0.00     0.018 A 
ATOM     30  C   UNL d   1     -39.577  15.514  17.230  0.00  0.00     0.092 A 
ATOM     31  C   UNL d   1     -38.859  15.922  16.045  0.00  0.00     0.002 C 
ENDBRANCH  21  24
ENDBRANCH   1  21
TORSDOF 5
ENDMDL
MODEL 4
REMARK VINA RESULT:      -2.5      5.702      7.477
REMARK  5 active torsions:
REMARK  status: ('A' for Active; 'I' for Inactive)
REMARK    1  A    between atoms: N_2  and  S_1 
REMARK    2  A    between atoms: C_9  and  S_1 
REMARK    3  A    between atoms: C_4  and  N_11 
REMARK    4  A    between atoms: C_8  and  C_16 
REMARK       I    between atoms: N_10  and  C_8 
REMARK    5  A    between atoms: N_11  and  N_10 
ROOT
ATOM      1  C   UNL d   1     -41.620  13.997  21.081  0.00  0.00     0.104 A 
ATOM      2  C   UNL d   1     -40.324  14.894  20.607  0.00  0.00     0.059 A 
ATOM      3  C   UNL d   1     -41.735  14.672  20.619  0.00  0.00     0.013 A 
ATOM      4  C   UNL d   1     -40.857  13.773  21.305  0.00  0.00     0.013 A 
ATOM      5  C   UNL d   1     -40.210  14.226  21.065  0.00  0.00     0.006 A 
ATOM      6  C   UNL d   1     -41.086  15.117  20.384  0.00  0.00     0.006 A 
ENDROOT
BRANCH   2   7
ATOM      7  C   UNL d   1     -39.676  15.339  20.372  0.00  0.00     0.297 C 
ATOM      8  N   UNL d   1     -39.369  15.125  19.643  0.00  0.00    -0.104 NA
ATOM      9  O   UNL d   1     -39.466  15.920  20.931  0.00  0.00    -0.264 OA
BRANCH   8  10
ATOM     10  N   UNL d   1     -39.714  14.512  19.223  0.00  0.00    -0.118 NA
BRANCH  10  11
ATOM     11  C   UNL d   1     -39.358  14.226  18.528  0.00  0.00     0.215 A 
ATOM     12  N   UNL d   1     -38.937  13.526  18.454  0.00  0.00    -0.219 NA
ATOM     13  C   UNL d   1     -38.678  13.450  17.680  0.00  0.00     0.090 A 
ATOM     14  C   UNL d   1     -38.241  12.875  17.292  0.00  0.00     0.018 A 
ATOM     15  C   UNL d   1     -38.946  14.120  17.267  0.00  0.00     0.050 A 
ATOM     16  C   UNL d   1     -38.068  12.962  16.489  0.00  0.00     0.002 A 
ATOM     17  C   UNL d   1     -37.975  12.208  17.707  0.00  0.00     0.002 C 
ATOM     18  C   UNL d   1     -38.334  13.625  16.082  0.00  0.00     0.001 A 
ATOM     19  C   UNL d   1     -38.778  14.215  16.464  0.00  0.00     0.008 A 
ATOM     20  S   UNL d   1     -39.364  14.594  17.793  0.00  0.00    -0.045 SA
ENDBRANCH  10  11
ENDBRANCH   8  10
ENDBRANCH   2   7
BRANCH   1  21
ATOM     21  S   UNL d   1     -42.262  13.538  21.326  0.00  0.00     0.271 S 
ATOM     22  O   UNL d   1     -42.501  14.154  21.819  0.00  0.00    -0.200 OA
ATOM     23  O   UNL d   1     -42.025  12.922  20.833  0.00  0.00    -0.200 OA
BRANCH  21  24
ATOM     24  N   UNL d   1     -42.906  13.088  21.576  0.00  0.00    -0.229 N 
ATOM     25  C   UNL d   1     -43.662  13.371  21.445  0.00  0.00     0.092 A 
ATOM     26  C   UNL d   1     -44.306  12.921  21.695  0.00  0.00     0.018 A 
ATOM     27  C   UNL d   1     -45.093  13.182  21.576  0.00  0.00     0.002 C 
ATOM     28  C   UNL d   1     -44.182  12.195  22.071  0.00  0.00     0.003 A 
ATOM     29  C   UNL d   1     -43.415  11.920  22.197  0.00  0.00     0.018 A 
ATOM     30  C   UNL d   1     -42.771  12.371  21.947  0.00  0.00     0.092 A 
ATOM     31  C   UNL d   1     -43.303  11.185  22.578  0.00  0.00     0.002 C 
ENDBRANCH  21  24
ENDBRANCH   1  21
TORSDOF 5
ENDMDL
