MODEL 1
REMARK VINA RESULT:      33.9      0.000      0.000
REMARK  3 active torsions:
REMARK  status: ('A' for Active; 'I' for Inactive)
REMARK    1  A    between atoms: N_3  and  C_1 
REMARK    2  A    between atoms: C_8  and  N_2 
REMARK       I    between atoms: C_4  and  N_3 
REMARK    3  A    between atoms: C_7  and  C_4 
ROOT
ATOM      1  C   UNL d   1     -57.856 -98.910 -44.914  0.00  0.00     0.185 A 
ATOM      2  N   UNL d   1     -58.640 -98.849 -44.623  0.00  0.00    -0.254 N 
ATOM      3  S   UNL d   1     -57.894 -98.917 -45.731  0.00  0.00    -0.044 SA
ATOM      4  C   UNL d   1     -59.136 -98.821 -45.267  0.00  0.00     0.273 A 
ATOM      5  C   UNL d   1     -58.681 -98.862 -45.951  0.00  0.00     0.099 A 
ATOM      6  O   UNL d   1     -59.960 -98.761 -45.233  0.00  0.00    -0.266 OA
ENDROOT
BRANCH   1   7
ATOM      7  N   UNL d   1     -57.166 -98.954 -44.455  0.00  0.00    -0.182 NA
ATOM      8  C   UNL d   1     -56.501 -99.333 -44.746  0.00  0.00     0.304 C 
ATOM      9  O   UNL d   1     -56.516 -99.675 -45.502  0.00  0.00    -0.263 OA
BRANCH   8  10
ATOM     10  C   UNL d   1     -55.810 -99.380 -44.291  0.00  0.00     0.158 A 
ATOM     11  O   UNL d   1     -55.360-100.057 -44.180  0.00  0.00    -0.300 OA
ATOM     12  C   UNL d   1     -54.725 -99.853 -43.691  0.00  0.00     0.123 A 
ATOM     13  C   UNL d   1     -54.790 -99.056 -43.507  0.00  0.00     0.029 A 
ATOM     14  C   UNL d   1     -55.453 -98.755 -43.870  0.00  0.00     0.032 A 
ENDBRANCH   8  10
ENDBRANCH   1   7
BRANCH   2  15
ATOM     15  C   UNL d   1     -58.857 -98.824 -43.826  0.00  0.00     0.069 A 
ATOM     16  C   UNL d   1     -58.264 -98.801 -43.254  0.00  0.00     0.018 A 
ATOM     17  C   UNL d   1     -58.475 -98.776 -42.450  0.00  0.00     0.002 A 
ATOM     18  C   UNL d   1     -59.276 -98.773 -42.233  0.00  0.00     0.000 A 
ATOM     19  C   UNL d   1     -59.864 -98.795 -42.812  0.00  0.00     0.002 A 
ATOM     20  C   UNL d   1     -59.653 -98.821 -43.606  0.00  0.00     0.018 A 
ENDBRANCH   2  15
TORSDOF 3
ENDMDL
