MODEL 1
REMARK VINA RESULT:      75.2      0.000      0.000
REMARK  5 active torsions:
REMARK  status: ('A' for Active; 'I' for Inactive)
REMARK    1  A    between atoms: C_10  and  C_4 
REMARK    2  A    between atoms: N_11  and  C_7 
REMARK    3  A    between atoms: C_13  and  N_11 
REMARK    4  A    between atoms: C_15  and  C_13 
REMARK    5  A    between atoms: O_25  and  C_17 
ROOT
ATOM      1  C   UNL d   1     -52.406  24.542  33.314  0.00  0.00     0.186 A 
ATOM      2  N   UNL d   1     -51.895  23.877  33.311  0.00  0.00    -0.193 N 
ATOM      3  N   UNL d   1     -52.079  25.304  33.316  0.00  0.00    -0.206 NA
ATOM      4  C   UNL d   1     -53.184  24.258  33.315  0.00  0.00     0.140 A 
ATOM      5  N   UNL d   1     -52.366  23.193  33.310  0.00  0.00    -0.058 NA
ATOM      6  N   UNL d   1     -53.159  23.432  33.313  0.00  0.00    -0.127 NA
ATOM      7  C   UNL d   1     -51.263  25.415  33.315  0.00  0.00     0.166 A 
ATOM      8  C   UNL d   1     -50.766  24.750  33.312  0.00  0.00     0.054 A 
ATOM      9  C   UNL d   1     -51.079  23.988  33.310  0.00  0.00     0.089 A 
ATOM     10  C   UNL d   1     -49.950  24.862  33.310  0.00  0.00     0.005 A 
ATOM     11  C   UNL d   1     -50.577  23.336  33.307  0.00  0.00     0.019 A 
ATOM     12  C   UNL d   1     -49.447  24.209  33.307  0.00  0.00     0.000 A 
ATOM     13  C   UNL d   1     -49.761  23.447  33.306  0.00  0.00     0.002 A 
ENDROOT
BRANCH   7  14
ATOM     14  N   UNL d   1     -50.938  26.173  33.316  0.00  0.00    -0.225 NA
BRANCH  14  15
ATOM     15  C   UNL d   1     -50.851  26.580  34.032  0.00  0.00     0.101 C 
BRANCH  15  16
ATOM     16  C   UNL d   1     -50.216  27.094  34.147  0.00  0.00     0.019 A 
ATOM     17  C   UNL d   1     -50.163  27.789  33.709  0.00  0.00     0.004 A 
ATOM     18  C   UNL d   1     -49.529  28.304  33.824  0.00  0.00     0.024 A 
ATOM     19  C   UNL d   1     -48.943  28.116  34.387  0.00  0.00     0.094 A 
ATOM     20  C   UNL d   1     -49.005  27.413  34.824  0.00  0.00     0.024 A 
ATOM     21  C   UNL d   1     -49.644  26.906  34.700  0.00  0.00     0.004 A 
BRANCH  19  22
ATOM     22  O   UNL d   1     -48.307  28.628  34.505  0.00  0.00    -0.328 OA
ATOM     23  C   UNL d   1     -48.439  29.444  34.534  0.00  0.00     0.181 C 
ENDBRANCH  19  22
ENDBRANCH  15  16
ENDBRANCH  14  15
ENDBRANCH   7  14
BRANCH   4  24
ATOM     24  C   UNL d   1     -53.857  24.724  33.318  0.00  0.00     0.025 A 
ATOM     25  C   UNL d   1     -53.782  25.545  33.311  0.00  0.00     0.031 A 
ATOM     26  C   UNL d   1     -54.460  26.024  33.313  0.00  0.00     0.140 A 
ATOM     27  F   UNL d   1     -54.385  26.844  33.306  0.00  0.00    -0.204 F 
ATOM     28  C   UNL d   1     -55.207  25.672  33.324  0.00  0.00     0.030 A 
ATOM     29  C   UNL d   1     -55.274  24.843  33.331  0.00  0.00     0.002 A 
ATOM     30  C   UNL d   1     -54.601  24.375  33.328  0.00  0.00     0.002 A 
ENDBRANCH   4  24
TORSDOF 5
ENDMDL
