MODEL 1
REMARK VINA RESULT:      61.7      0.000      0.000
REMARK  4 active torsions:
REMARK  status: ('A' for Active; 'I' for Inactive)
REMARK    1  A    between atoms: C_2  and  S_1 
REMARK    2  A    between atoms: C_5  and  S_1 
REMARK    3  A    between atoms: C_7  and  C_5 
REMARK       I    between atoms: N_9  and  C_7 
REMARK    4  A    between atoms: C_8  and  N_9 
ROOT
ATOM      1  S   UNL d   1      58.812  49.572  49.868  0.00  0.00     0.217 S 
ATOM      2  O   UNL d   1      58.802  49.544  49.037  0.00  0.00    -0.217 OA
ATOM      3  O   UNL d   1      58.821  49.601  50.701  0.00  0.00    -0.217 OA
ENDROOT
BRANCH   1   4
ATOM      4  C   UNL d   1      57.987  49.525  49.882  0.00  0.00     0.109 A 
ATOM      5  C   UNL d   1      57.494  49.443  49.226  0.00  0.00     0.110 A 
ATOM      6  N   UNL d   1      56.717  49.419  49.490  0.00  0.00    -0.243 NA
ATOM      7  C   UNL d   1      56.728  49.487  50.314  0.00  0.00     0.082 A 
ATOM      8  C   UNL d   1      57.513  49.553  50.549  0.00  0.00     0.030 A 
ATOM      9  C   UNL d   1      56.122  49.498  50.875  0.00  0.00     0.019 A 
ATOM     10  C   UNL d   1      57.700  49.629  51.350  0.00  0.00     0.002 A 
ATOM     11  C   UNL d   1      57.095  49.640  51.911  0.00  0.00     0.000 A 
ATOM     12  C   UNL d   1      56.313  49.575  51.673  0.00  0.00     0.002 A 
ENDBRANCH   1   4
BRANCH   1  13
ATOM     13  C   UNL d   1      59.649  49.620  49.861  0.00  0.00     0.161 C 
BRANCH  13  14
ATOM     14  C   UNL d   1      60.081  49.248  50.461  0.00  0.00     0.291 C 
ATOM     15  N   UNL d   1      60.721  49.645  50.800  0.00  0.00    -0.207 NA
ATOM     16  O   UNL d   1      59.880  48.498  50.719  0.00  0.00    -0.264 OA
BRANCH  15  17
ATOM     17  C   UNL d   1      61.155  49.276  51.401  0.00  0.00     0.085 A 
ATOM     18  C   UNL d   1      61.546  48.568  51.249  0.00  0.00     0.018 A 
ATOM     19  C   UNL d   1      61.982  48.193  51.843  0.00  0.00     0.002 A 
ATOM     20  C   UNL d   1      61.501  48.225  50.490  0.00  0.00     0.002 C 
ATOM     21  C   UNL d   1      62.026  48.531  52.592  0.00  0.00     0.000 A 
ATOM     22  C   UNL d   1      61.637  49.241  52.750  0.00  0.00     0.002 A 
ATOM     23  C   UNL d   1      61.201  49.612  52.153  0.00  0.00     0.019 A 
ATOM     24  C   UNL d   1      61.677  49.592  53.513  0.00  0.00     0.000 C 
ENDBRANCH  15  17
ENDBRANCH  13  14
ENDBRANCH   1  13
TORSDOF 4
ENDMDL
MODEL 2
REMARK VINA RESULT:      62.9      0.940      1.985
REMARK  4 active torsions:
REMARK  status: ('A' for Active; 'I' for Inactive)
REMARK    1  A    between atoms: C_2  and  S_1 
REMARK    2  A    between atoms: C_5  and  S_1 
REMARK    3  A    between atoms: C_7  and  C_5 
REMARK       I    between atoms: N_9  and  C_7 
REMARK    4  A    between atoms: C_8  and  N_9 
ROOT
ATOM      1  S   UNL d   1      58.968  49.705  50.638  0.00  0.00     0.217 S 
ATOM      2  O   UNL d   1      59.075  49.707  51.462  0.00  0.00    -0.217 OA
ATOM      3  O   UNL d   1      58.860  49.703  49.811  0.00  0.00    -0.217 OA
ENDROOT
BRANCH   1   4
ATOM      4  C   UNL d   1      58.148  49.703  50.742  0.00  0.00     0.109 A 
ATOM      5  C   UNL d   1      57.750  49.700  51.464  0.00  0.00     0.110 A 
ATOM      6  N   UNL d   1      56.943  49.699  51.312  0.00  0.00    -0.243 NA
ATOM      7  C   UNL d   1      56.840  49.702  50.491  0.00  0.00     0.082 A 
ATOM      8  C   UNL d   1      57.586  49.704  50.146  0.00  0.00     0.030 A 
ATOM      9  C   UNL d   1      56.162  49.702  50.020  0.00  0.00     0.019 A 
ATOM     10  C   UNL d   1      57.661  49.708  49.323  0.00  0.00     0.002 A 
ATOM     11  C   UNL d   1      56.984  49.708  48.852  0.00  0.00     0.000 A 
ATOM     12  C   UNL d   1      56.241  49.705  49.200  0.00  0.00     0.002 A 
ENDBRANCH   1   4
BRANCH   1  13
ATOM     13  C   UNL d   1      59.799  49.707  50.526  0.00  0.00     0.161 C 
BRANCH  13  14
ATOM     14  C   UNL d   1      60.207  48.987  50.509  0.00  0.00     0.291 C 
ATOM     15  N   UNL d   1      60.784  48.839  51.080  0.00  0.00    -0.207 NA
ATOM     16  O   UNL d   1      60.043  48.426  49.936  0.00  0.00    -0.264 OA
BRANCH  15  17
ATOM     17  C   UNL d   1      61.194  48.120  51.067  0.00  0.00     0.085 A 
ATOM     18  C   UNL d   1      61.604  47.869  51.736  0.00  0.00     0.018 A 
ATOM     19  C   UNL d   1      62.016  47.154  51.732  0.00  0.00     0.002 A 
ATOM     20  C   UNL d   1      61.603  48.343  52.422  0.00  0.00     0.002 C 
ATOM     21  C   UNL d   1      62.017  46.687  51.054  0.00  0.00     0.000 A 
ATOM     22  C   UNL d   1      61.608  46.932  50.381  0.00  0.00     0.002 A 
ATOM     23  C   UNL d   1      61.197  47.650  50.389  0.00  0.00     0.019 A 
ATOM     24  C   UNL d   1      61.604  46.461  49.685  0.00  0.00     0.000 C 
ENDBRANCH  15  17
ENDBRANCH  13  14
ENDBRANCH   1  13
TORSDOF 4
ENDMDL
