MODEL 1
REMARK VINA RESULT:      -6.3      0.000      0.000
REMARK  3 active torsions:
REMARK  status: ('A' for Active; 'I' for Inactive)
REMARK    1  A    between atoms: C_4  and  C_1 
REMARK    2  A    between atoms: N_7  and  C_4 
REMARK    3  A    between atoms: C_9  and  N_7 
ROOT
ATOM      1  C   UNL d   1     -41.462-122.511 -51.726  0.00  0.00     0.159 C 
ATOM      2  S   UNL d   1     -41.123-121.878 -51.318  0.00  0.00    -0.055 SA
ENDROOT
BRANCH   1   3
ATOM      3  C   UNL d   1     -41.545-122.472 -52.546  0.00  0.00     0.139 A 
ATOM      4  N   UNL d   1     -42.056-121.968 -52.955  0.00  0.00    -0.236 NA
ATOM      5  C   UNL d   1     -41.961-122.112 -53.764  0.00  0.00     0.088 A 
ATOM      6  C   UNL d   1     -42.316-121.785 -54.434  0.00  0.00     0.020 A 
ATOM      7  C   UNL d   1     -41.390-122.707 -53.850  0.00  0.00     0.049 A 
ATOM      8  C   UNL d   1     -42.105-122.046 -55.181  0.00  0.00     0.002 A 
ATOM      9  C   UNL d   1     -41.534-122.641 -55.267  0.00  0.00     0.001 A 
ATOM     10  C   UNL d   1     -41.179-122.969 -54.605  0.00  0.00     0.008 A 
ATOM     11  S   UNL d   1     -41.137-122.926 -53.093  0.00  0.00    -0.064 SA
ENDBRANCH   1   3
BRANCH   1  12
ATOM     12  N   UNL d   1     -41.717-123.178 -51.319  0.00  0.00    -0.233 NA
BRANCH  12  13
ATOM     13  C   UNL d   1     -41.837-123.142 -50.500  0.00  0.00     0.082 A 
ATOM     14  C   UNL d   1     -42.537-122.831 -50.201  0.00  0.00     0.020 A 
ATOM     15  C   UNL d   1     -42.665-122.791 -49.390  0.00  0.00     0.013 A 
ATOM     16  C   UNL d   1     -42.075-123.070 -48.873  0.00  0.00     0.058 A 
ATOM     17  C   UNL d   1     -41.371-123.383 -49.171  0.00  0.00     0.013 A 
ATOM     18 CL   UNL d   1     -42.194-123.034 -48.061  0.00  0.00    -0.082 Cl
ATOM     19  C   UNL d   1     -41.259-123.415 -49.987  0.00  0.00     0.020 A 
ENDBRANCH  12  13
ENDBRANCH   1  12
TORSDOF 3
ENDMDL
MODEL 2
REMARK VINA RESULT:      -5.8      1.896      4.502
REMARK  3 active torsions:
REMARK  status: ('A' for Active; 'I' for Inactive)
REMARK    1  A    between atoms: C_4  and  C_1 
REMARK    2  A    between atoms: N_7  and  C_4 
REMARK    3  A    between atoms: C_9  and  N_7 
ROOT
ATOM      1  C   UNL d   1     -41.418-122.462 -52.059  0.00  0.00     0.159 C 
ATOM      2  S   UNL d   1     -41.123-121.706 -52.210  0.00  0.00    -0.055 SA
ENDROOT
BRANCH   1   3
ATOM      3  C   UNL d   1     -41.590-122.688 -51.284  0.00  0.00     0.139 A 
ATOM      4  N   UNL d   1     -42.224-122.410 -50.832  0.00  0.00    -0.236 NA
ATOM      5  C   UNL d   1     -42.187-122.779 -50.092  0.00  0.00     0.088 A 
ATOM      6  C   UNL d   1     -42.662-122.725 -49.418  0.00  0.00     0.020 A 
ATOM      7  C   UNL d   1     -41.529-123.284 -50.093  0.00  0.00     0.049 A 
ATOM      8  C   UNL d   1     -42.485-123.168 -48.753  0.00  0.00     0.002 A 
ATOM      9  C   UNL d   1     -41.827-123.673 -48.753  0.00  0.00     0.001 A 
ATOM     10  C   UNL d   1     -41.353-123.729 -49.419  0.00  0.00     0.008 A 
ATOM     11  S   UNL d   1     -41.164-123.222 -50.833  0.00  0.00    -0.064 SA
ENDBRANCH   1   3
BRANCH   1  12
ATOM     12  N   UNL d   1     -41.541-122.991 -52.676  0.00  0.00    -0.233 NA
BRANCH  12  13
ATOM     13  C   UNL d   1     -41.633-122.709 -53.450  0.00  0.00     0.082 A 
ATOM     14  C   UNL d   1     -41.130-122.971 -54.046  0.00  0.00     0.020 A 
ATOM     15  C   UNL d   1     -41.214-122.697 -54.815  0.00  0.00     0.013 A 
ATOM     16  C   UNL d   1     -41.816-122.148 -54.987  0.00  0.00     0.058 A 
ATOM     17  C   UNL d   1     -42.322-121.883 -54.391  0.00  0.00     0.013 A 
ATOM     18 CL   UNL d   1     -41.907-121.868 -55.753  0.00  0.00    -0.082 Cl
ATOM     19  C   UNL d   1     -42.224-122.169 -53.623  0.00  0.00     0.020 A 
ENDBRANCH  12  13
ENDBRANCH   1  12
TORSDOF 3
ENDMDL
MODEL 3
REMARK VINA RESULT:      -4.8      1.983      4.815
REMARK  3 active torsions:
REMARK  status: ('A' for Active; 'I' for Inactive)
REMARK    1  A    between atoms: C_4  and  C_1 
REMARK    2  A    between atoms: N_7  and  C_4 
REMARK    3  A    between atoms: C_9  and  N_7 
ROOT
ATOM      1  C   UNL d   1     -41.811-122.675 -50.444  0.00  0.00     0.159 C 
ATOM      2  S   UNL d   1     -42.422-122.248 -50.800  0.00  0.00    -0.055 SA
ENDROOT
BRANCH   1   3
ATOM      3  C   UNL d   1     -41.891-122.932 -49.664  0.00  0.00     0.139 A 
ATOM      4  N   UNL d   1     -41.275-123.013 -49.119  0.00  0.00    -0.236 NA
ATOM      5  C   UNL d   1     -41.601-123.285 -48.408  0.00  0.00     0.088 A 
ATOM      6  C   UNL d   1     -41.267-123.466 -47.675  0.00  0.00     0.020 A 
ATOM      7  C   UNL d   1     -42.418-123.371 -48.521  0.00  0.00     0.049 A 
ATOM      8  C   UNL d   1     -41.740-123.731 -47.061  0.00  0.00     0.002 A 
ATOM      9  C   UNL d   1     -42.557-123.817 -47.173  0.00  0.00     0.001 A 
ATOM     10  C   UNL d   1     -42.893-123.638 -47.899  0.00  0.00     0.008 A 
ATOM     11  S   UNL d   1     -42.591-123.152 -49.300  0.00  0.00    -0.064 SA
ENDBRANCH   1   3
BRANCH   1  12
ATOM     12  N   UNL d   1     -41.123-122.843 -50.863  0.00  0.00    -0.233 NA
BRANCH  12  13
ATOM     13  C   UNL d   1     -41.154-122.946 -51.685  0.00  0.00     0.082 A 
ATOM     14  C   UNL d   1     -41.123-122.292 -52.183  0.00  0.00     0.020 A 
ATOM     15  C   UNL d   1     -41.154-122.386 -52.998  0.00  0.00     0.013 A 
ATOM     16  C   UNL d   1     -41.217-123.152 -53.317  0.00  0.00     0.058 A 
ATOM     17  C   UNL d   1     -41.249-123.810 -52.819  0.00  0.00     0.013 A 
ATOM     18 CL   UNL d   1     -41.248-123.255 -54.130  0.00  0.00    -0.082 Cl
ATOM     19  C   UNL d   1     -41.217-123.699 -52.002  0.00  0.00     0.020 A 
ENDBRANCH  12  13
ENDBRANCH   1  12
TORSDOF 3
ENDMDL
