MODEL 1
REMARK VINA RESULT:      79.0      0.000      0.000
REMARK  4 active torsions:
REMARK  status: ('A' for Active; 'I' for Inactive)
REMARK    1  A    between atoms: N_2  and  S_1 
REMARK    2  A    between atoms: C_6  and  S_1 
REMARK       I    between atoms: C_3  and  N_5 
REMARK    3  A    between atoms: C_7  and  C_3 
REMARK    4  A    between atoms: C_4  and  C_8 
ROOT
ATOM      1  N   UNL d   1     -55.327-101.493 -42.619  0.00  0.00    -0.226 N 
ATOM      2  C   UNL d   1     -55.843 -99.411 -43.831  0.00  0.00     0.288 C 
ATOM      3  N   UNL d   1     -55.666-100.105 -43.426  0.00  0.00    -0.267 N 
ATOM      4  C   UNL d   1     -56.107-101.305 -42.807  0.00  0.00     0.111 A 
ATOM      5  C   UNL d   1     -54.711-100.978 -42.839  0.00  0.00     0.111 A 
ATOM      6  C   UNL d   1     -54.888-100.284 -43.244  0.00  0.00     0.103 A 
ATOM      7  C   UNL d   1     -56.270-100.614 -43.208  0.00  0.00     0.103 A 
ATOM      8  O   UNL d   1     -55.236 -98.897 -44.051  0.00  0.00    -0.264 OA
ENDROOT
BRANCH   1   9
ATOM      9  S   UNL d   1     -55.153-102.178 -42.220  0.00  0.00     0.271 S 
ATOM     10  O   UNL d   1     -54.977-102.873 -41.816  0.00  0.00    -0.200 OA
ATOM     11  O   UNL d   1     -55.283-102.611 -42.899  0.00  0.00    -0.200 OA
BRANCH   9  12
ATOM     12  C   UNL d   1     -55.022-101.744 -41.533  0.00  0.00     0.104 A 
ATOM     13  C   UNL d   1     -55.067-102.108 -40.794  0.00  0.00     0.017 A 
ATOM     14  C   UNL d   1     -54.935-101.674 -40.106  0.00  0.00     0.072 A 
ATOM     15  C   UNL d   1     -54.758-100.873 -40.152  0.00  0.00     0.004 A 
ATOM     16  C   UNL d   1     -54.711-100.499 -40.891  0.00  0.00     0.001 A 
ATOM     17  C   UNL d   1     -54.844-100.937 -41.584  0.00  0.00     0.013 A 
BRANCH  14  18
ATOM     18  C   UNL d   1     -54.981-102.041 -39.373  0.00  0.00     0.419 C 
ATOM     19  F   UNL d   1     -54.969-101.687 -38.594  0.00  0.00    -0.166 F 
ATOM     20  F   UNL d   1     -55.053-102.876 -39.186  0.00  0.00    -0.166 F 
ATOM     21  F   UNL d   1     -55.023-102.374 -38.700  0.00  0.00    -0.166 F 
ENDBRANCH  14  18
ENDBRANCH   9  12
ENDBRANCH   1   9
BRANCH   2  22
ATOM     22  C   UNL d   1     -56.623 -99.225 -44.018  0.00  0.00     0.156 A 
ATOM     23  O   UNL d   1     -57.218 -99.012 -43.483  0.00  0.00    -0.300 OA
ATOM     24  C   UNL d   1     -57.906 -98.875 -43.904  0.00  0.00     0.123 A 
ATOM     25  C   UNL d   1     -57.745 -99.003 -44.707  0.00  0.00     0.029 A 
ATOM     26  C   UNL d   1     -56.949 -99.220 -44.778  0.00  0.00     0.032 A 
ENDBRANCH   2  22
TORSDOF 4
ENDMDL
