MODEL 1
REMARK VINA RESULT:      50.9      0.000      0.000
REMARK  9 active torsions:
REMARK  status: ('A' for Active; 'I' for Inactive)
REMARK    1  A    between atoms: N_4  and  C_1 
REMARK    2  A    between atoms: C_12  and  C_3 
REMARK       I    between atoms: C_11  and  N_4 
REMARK       I    between atoms: C_6  and  N_5 
REMARK    3  A    between atoms: O_27  and  C_6 
REMARK       I    between atoms: N_7  and  C_10 
REMARK    4  A    between atoms: C_10  and  C_28 
REMARK    5  A    between atoms: C_29  and  C_11 
REMARK    6  A    between atoms: C_25  and  C_18 
REMARK    7  A    between atoms: S_26  and  C_29 
REMARK    8  A    between atoms: C_28  and  S_26 
REMARK    9  A    between atoms: C_32  and  O_27 
ROOT
ATOM      1  N   UNL d   1      46.387 -18.407  42.473  0.00  0.00    -0.182 NA
ATOM      2  C   UNL d   1      46.053 -19.004  42.908  0.00  0.00     0.288 C 
ATOM      3  O   UNL d   1      45.656 -19.608  42.537  0.00  0.00    -0.265 OA
ENDROOT
BRANCH   1   4
ATOM      4  C   UNL d   1      46.324 -18.416  41.659  0.00  0.00     0.197 A 
ATOM      5  N   UNL d   1      45.983 -17.834  41.197  0.00  0.00    -0.221 NA
ATOM      6  C   UNL d   1      46.038 -18.064  40.421  0.00  0.00     0.090 A 
ATOM      7  C   UNL d   1      46.413 -18.786  40.408  0.00  0.00     0.058 A 
ATOM      8  S   UNL d   1      46.589 -19.002  41.166  0.00  0.00    -0.046 SA
BRANCH   6   9
ATOM      9  C   UNL d   1      45.769 -17.650  39.782  0.00  0.00     0.018 A 
ATOM     10  C   UNL d   1      44.991 -17.696  39.571  0.00  0.00     0.002 A 
ATOM     11  C   UNL d   1      44.718 -17.282  38.931  0.00  0.00     0.000 A 
ATOM     12  C   UNL d   1      45.230 -16.823  38.503  0.00  0.00     0.000 A 
ATOM     13  C   UNL d   1      46.016 -16.777  38.717  0.00  0.00     0.000 A 
ATOM     14  C   UNL d   1      46.276 -17.193  39.357  0.00  0.00     0.002 A 
BRANCH  12  15
ATOM     15  C   UNL d   1      44.955 -16.395  37.845  0.00  0.00     0.000 A 
ATOM     16  C   UNL d   1      45.485 -15.914  37.419  0.00  0.00     0.000 A 
ATOM     17  C   UNL d   1      45.217 -15.489  36.766  0.00  0.00     0.000 A 
ATOM     18  C   UNL d   1      44.418 -15.545  36.537  0.00  0.00     0.000 A 
ATOM     19  C   UNL d   1      43.895 -16.029  36.967  0.00  0.00     0.000 A 
ATOM     20  C   UNL d   1      44.172 -16.453  37.623  0.00  0.00     0.000 A 
ENDBRANCH  12  15
ENDBRANCH   6   9
ENDBRANCH   1   4
BRANCH   2  21
ATOM     21  C   UNL d   1      46.116 -18.994  43.714  0.00  0.00     0.098 C 
BRANCH  21  22
ATOM     22  S   UNL d   1      46.646 -18.387  44.017  0.00  0.00    -0.076 SA
BRANCH  22  23
ATOM     23  C   UNL d   1      46.452 -17.964  44.738  0.00  0.00     0.097 C 
BRANCH  23  24
ATOM     24  C   UNL d   1      45.677 -17.626  44.844  0.00  0.00     0.271 C 
ATOM     25  N   UNL d   1      45.579 -16.774  44.846  0.00  0.00    -0.269 N 
ATOM     26  C   UNL d   1      44.804 -16.428  44.952  0.00  0.00     0.102 A 
ATOM     27  C   UNL d   1      46.270 -16.264  44.741  0.00  0.00     0.102 A 
ATOM     28  C   UNL d   1      44.710 -15.575  44.954  0.00  0.00     0.104 A 
ATOM     29  N   UNL d   1      45.401 -15.065  44.849  0.00  0.00    -0.249 N 
ATOM     30  C   UNL d   1      46.173 -15.413  44.744  0.00  0.00     0.104 A 
ATOM     31  C   UNL d   1      45.308 -14.244  44.851  0.00  0.00     0.378 C 
ATOM     32  O   UNL d   1      44.557 -13.910  44.953  0.00  0.00    -0.237 OA
ATOM     33  O   UNL d   1      45.000 -18.130  44.947  0.00  0.00    -0.266 OA
BRANCH  31  34
ATOM     34  O   UNL d   1      45.969 -13.757  44.751  0.00  0.00    -0.257 OA
BRANCH  34  35
ATOM     35  C   UNL d   1      45.885 -12.935  44.749  0.00  0.00     0.128 C 
ATOM     36  C   UNL d   1      45.638 -12.536  44.063  0.00  0.00     0.029 C 
ENDBRANCH  34  35
ENDBRANCH  31  34
ENDBRANCH  23  24
ENDBRANCH  22  23
ENDBRANCH  21  22
ENDBRANCH   2  21
TORSDOF 9
ENDMDL
MODEL 2
REMARK VINA RESULT:      52.0      3.096      6.565
REMARK  9 active torsions:
REMARK  status: ('A' for Active; 'I' for Inactive)
REMARK    1  A    between atoms: N_4  and  C_1 
REMARK    2  A    between atoms: C_12  and  C_3 
REMARK       I    between atoms: C_11  and  N_4 
REMARK       I    between atoms: C_6  and  N_5 
REMARK    3  A    between atoms: O_27  and  C_6 
REMARK       I    between atoms: N_7  and  C_10 
REMARK    4  A    between atoms: C_10  and  C_28 
REMARK    5  A    between atoms: C_29  and  C_11 
REMARK    6  A    between atoms: C_25  and  C_18 
REMARK    7  A    between atoms: S_26  and  C_29 
REMARK    8  A    between atoms: C_28  and  S_26 
REMARK    9  A    between atoms: C_32  and  O_27 
ROOT
ATOM      1  N   UNL d   1      44.802 -13.625  43.433  0.00  0.00    -0.182 NA
ATOM      2  C   UNL d   1      45.341 -13.079  43.172  0.00  0.00     0.288 C 
ATOM      3  O   UNL d   1      46.126 -13.153  43.366  0.00  0.00    -0.265 OA
ENDROOT
BRANCH   1   4
ATOM      4  C   UNL d   1      45.052 -14.251  43.893  0.00  0.00     0.197 A 
ATOM      5  N   UNL d   1      45.178 -15.017  43.636  0.00  0.00    -0.221 NA
ATOM      6  C   UNL d   1      45.423 -15.460  44.270  0.00  0.00     0.090 A 
ATOM      7  C   UNL d   1      45.447 -14.965  44.916  0.00  0.00     0.058 A 
ATOM      8  S   UNL d   1      45.220 -14.224  44.686  0.00  0.00    -0.046 SA
BRANCH   6   9
ATOM      9  C   UNL d   1      45.608 -16.246  44.260  0.00  0.00     0.018 A 
ATOM     10  C   UNL d   1      45.429 -16.692  43.612  0.00  0.00     0.002 A 
ATOM     11  C   UNL d   1      45.612 -17.481  43.597  0.00  0.00     0.000 A 
ATOM     12  C   UNL d   1      45.977 -17.818  44.237  0.00  0.00     0.000 A 
ATOM     13  C   UNL d   1      46.158 -17.366  44.892  0.00  0.00     0.000 A 
ATOM     14  C   UNL d   1      45.970 -16.582  44.894  0.00  0.00     0.002 A 
BRANCH  12  15
ATOM     15  C   UNL d   1      46.169 -18.627  44.228  0.00  0.00     0.000 A 
ATOM     16  C   UNL d   1      46.067 -19.063  43.525  0.00  0.00     0.000 A 
ATOM     17  C   UNL d   1      46.255 -19.866  43.511  0.00  0.00     0.000 A 
ATOM     18  C   UNL d   1      46.545 -20.234  44.199  0.00  0.00     0.000 A 
ATOM     19  C   UNL d   1      46.644 -19.791  44.897  0.00  0.00     0.000 A 
ATOM     20  C   UNL d   1      46.452 -18.984  44.904  0.00  0.00     0.000 A 
ENDBRANCH  12  15
ENDBRANCH   6   9
ENDBRANCH   1   4
BRANCH   2  21
ATOM     21  C   UNL d   1      45.092 -12.459  42.716  0.00  0.00     0.098 C 
BRANCH  21  22
ATOM     22  S   UNL d   1      45.662 -12.209  42.122  0.00  0.00    -0.076 SA
BRANCH  22  23
ATOM     23  C   UNL d   1      45.700 -12.609  41.364  0.00  0.00     0.097 C 
BRANCH  23  24
ATOM     24  C   UNL d   1      45.080 -12.503  40.789  0.00  0.00     0.271 C 
ATOM     25  N   UNL d   1      45.172 -12.819  39.998  0.00  0.00    -0.269 N 
ATOM     26  C   UNL d   1      44.554 -12.717  39.416  0.00  0.00     0.102 A 
ATOM     27  C   UNL d   1      45.896 -13.244  39.789  0.00  0.00     0.102 A 
ATOM     28  C   UNL d   1      44.649 -13.035  38.625  0.00  0.00     0.104 A 
ATOM     29  N   UNL d   1      45.374 -13.460  38.416  0.00  0.00    -0.249 N 
ATOM     30  C   UNL d   1      45.989 -13.561  38.998  0.00  0.00     0.104 A 
ATOM     31  C   UNL d   1      45.463 -13.765  37.653  0.00  0.00     0.378 C 
ATOM     32  O   UNL d   1      44.864 -13.665  37.091  0.00  0.00    -0.237 OA
ATOM     33  O   UNL d   1      44.369 -12.085  40.997  0.00  0.00    -0.266 OA
BRANCH  31  34
ATOM     34  O   UNL d   1      46.157 -14.171  37.454  0.00  0.00    -0.257 OA
BRANCH  34  35
ATOM     35  C   UNL d   1      46.119 -14.949  37.178  0.00  0.00     0.128 C 
ATOM     36  C   UNL d   1      45.405 -15.373  37.204  0.00  0.00     0.029 C 
ENDBRANCH  34  35
ENDBRANCH  31  34
ENDBRANCH  23  24
ENDBRANCH  22  23
ENDBRANCH  21  22
ENDBRANCH   2  21
TORSDOF 9
ENDMDL
