MODEL 1
REMARK VINA RESULT:      -5.4      0.000      0.000
REMARK  1 active torsions:
REMARK  status: ('A' for Active; 'I' for Inactive)
REMARK    1  A    between atoms: N_4  and  C_1 
ROOT
ATOM      1  C   UNL d   1      57.359  -0.135  31.093  0.00  0.00     0.735 A 
ATOM      2  N   UNL d   1      57.049   0.453  31.604  0.00  0.00    -0.059 NA
ATOM      3  N   UNL d   1      57.044  -0.863  31.378  0.00  0.00    -0.059 NA
ATOM      4  C   UNL d   1      56.580   0.101  32.160  0.00  0.00     0.118 A 
ATOM      5  C   UNL d   1      56.576  -0.713  32.020  0.00  0.00     0.118 A 
ATOM      6  C   UNL d   1      56.142   0.431  32.794  0.00  0.00     0.021 A 
ATOM      7  C   UNL d   1      56.135  -1.206  32.512  0.00  0.00     0.021 A 
ATOM      8  C   UNL d   1      55.704  -0.088  33.277  0.00  0.00     0.002 A 
ATOM      9  C   UNL d   1      55.701  -0.902  33.137  0.00  0.00     0.002 A 
ENDROOT
BRANCH   1  10
ATOM     10  N   UNL d   1      57.857   0.020  30.465  0.00  0.00    -0.133 N 
ATOM     11  C   UNL d   1      58.096   0.681  30.091  0.00  0.00     0.125 A 
ATOM     12  C   UNL d   1      58.617   0.654  29.458  0.00  0.00     0.142 A 
ATOM     13  O   UNL d   1      58.913  -0.061  29.186  0.00  0.00    -0.300 OA
ATOM     14  C   UNL d   1      58.656  -0.779  29.589  0.00  0.00     0.142 A 
ATOM     15  C   UNL d   1      58.141  -0.722  30.210  0.00  0.00     0.125 A 
ENDBRANCH   1  10
TORSDOF 1
ENDMDL
MODEL 2
REMARK VINA RESULT:      -4.6      1.633      3.460
REMARK  1 active torsions:
REMARK  status: ('A' for Active; 'I' for Inactive)
REMARK    1  A    between atoms: N_4  and  C_1 
ROOT
ATOM      1  C   UNL d   1      57.023   0.084  31.822  0.00  0.00     0.735 A 
ATOM      2  N   UNL d   1      57.790   0.370  32.003  0.00  0.00    -0.059 NA
ATOM      3  N   UNL d   1      57.021  -0.025  30.985  0.00  0.00    -0.059 NA
ATOM      4  C   UNL d   1      58.220   0.428  31.321  0.00  0.00     0.118 A 
ATOM      5  C   UNL d   1      57.744   0.184  30.692  0.00  0.00     0.118 A 
ATOM      6  C   UNL d   1      59.009   0.681  31.192  0.00  0.00     0.021 A 
ATOM      7  C   UNL d   1      58.052   0.189  29.927  0.00  0.00     0.021 A 
ATOM      8  C   UNL d   1      59.297   0.677  30.410  0.00  0.00     0.002 A 
ATOM      9  C   UNL d   1      58.821   0.433  29.781  0.00  0.00     0.002 A 
ENDROOT
BRANCH   1  10
ATOM     10  N   UNL d   1      56.438  -0.043  32.377  0.00  0.00    -0.133 N 
ATOM     11  C   UNL d   1      55.972   0.429  32.816  0.00  0.00     0.125 A 
ATOM     12  C   UNL d   1      55.419   0.124  33.340  0.00  0.00     0.142 A 
ATOM     13  O   UNL d   1      55.328  -0.686  33.432  0.00  0.00    -0.300 OA
ATOM     14  C   UNL d   1      55.832  -1.201  32.957  0.00  0.00     0.142 A 
ATOM     15  C   UNL d   1      56.367  -0.871  32.448  0.00  0.00     0.125 A 
ENDBRANCH   1  10
TORSDOF 1
ENDMDL
MODEL 3
REMARK VINA RESULT:      -4.5      2.372      4.076
REMARK  1 active torsions:
REMARK  status: ('A' for Active; 'I' for Inactive)
REMARK    1  A    between atoms: N_4  and  C_1 
ROOT
ATOM      1  C   UNL d   1      55.929   0.121  33.307  0.00  0.00     0.735 A 
ATOM      2  N   UNL d   1      56.356   0.682  32.852  0.00  0.00    -0.059 NA
ATOM      3  N   UNL d   1      56.056  -0.618  32.922  0.00  0.00    -0.059 NA
ATOM      4  C   UNL d   1      56.715   0.303  32.235  0.00  0.00     0.118 A 
ATOM      5  C   UNL d   1      56.530  -0.500  32.278  0.00  0.00     0.118 A 
ATOM      6  C   UNL d   1      57.203   0.601  31.621  0.00  0.00     0.021 A 
ATOM      7  C   UNL d   1      56.829  -1.016  31.708  0.00  0.00     0.021 A 
ATOM      8  C   UNL d   1      57.493   0.060  31.058  0.00  0.00     0.002 A 
ATOM      9  C   UNL d   1      57.308  -0.744  31.101  0.00  0.00     0.002 A 
ENDROOT
BRANCH   1  10
ATOM     10  N   UNL d   1      55.497   0.307  33.975  0.00  0.00    -0.133 N 
ATOM     11  C   UNL d   1      55.675   0.420  34.742  0.00  0.00     0.125 A 
ATOM     12  C   UNL d   1      55.099   0.605  35.297  0.00  0.00     0.142 A 
ATOM     13  O   UNL d   1      54.313   0.682  35.078  0.00  0.00    -0.300 OA
ATOM     14  C   UNL d   1      54.116   0.560  34.246  0.00  0.00     0.142 A 
ATOM     15  C   UNL d   1      54.705   0.378  33.723  0.00  0.00     0.125 A 
ENDBRANCH   1  10
TORSDOF 1
ENDMDL
MODEL 4
REMARK VINA RESULT:      -4.4      1.191      1.867
REMARK  1 active torsions:
REMARK  status: ('A' for Active; 'I' for Inactive)
REMARK    1  A    between atoms: N_4  and  C_1 
ROOT
ATOM      1  C   UNL d   1      56.599   0.269  32.462  0.00  0.00     0.735 A 
ATOM      2  N   UNL d   1      55.766   0.195  32.532  0.00  0.00    -0.059 NA
ATOM      3  N   UNL d   1      56.868   0.468  33.236  0.00  0.00    -0.059 NA
ATOM      4  C   UNL d   1      55.551   0.340  33.298  0.00  0.00     0.118 A 
ATOM      5  C   UNL d   1      56.232   0.509  33.733  0.00  0.00     0.118 A 
ATOM      6  C   UNL d   1      54.796   0.339  33.662  0.00  0.00     0.021 A 
ATOM      7  C   UNL d   1      56.166   0.678  34.537  0.00  0.00     0.021 A 
ATOM      8  C   UNL d   1      54.755   0.513  34.476  0.00  0.00     0.002 A 
ATOM      9  C   UNL d   1      55.437   0.682  34.911  0.00  0.00     0.002 A 
ENDROOT
BRANCH   1  10
ATOM     10  N   UNL d   1      57.012   0.160  31.766  0.00  0.00    -0.133 N 
ATOM     11  C   UNL d   1      57.370   0.646  31.248  0.00  0.00     0.125 A 
ATOM     12  C   UNL d   1      57.751   0.360  30.580  0.00  0.00     0.142 A 
ATOM     13  O   UNL d   1      57.774  -0.444  30.421  0.00  0.00    -0.300 OA
ATOM     14  C   UNL d   1      57.386  -0.974  30.981  0.00  0.00     0.142 A 
ATOM     15  C   UNL d   1      57.019  -0.662  31.631  0.00  0.00     0.125 A 
ENDBRANCH   1  10
TORSDOF 1
ENDMDL
MODEL 5
REMARK VINA RESULT:      -2.9      2.485      4.334
REMARK  1 active torsions:
REMARK  status: ('A' for Active; 'I' for Inactive)
REMARK    1  A    between atoms: N_4  and  C_1 
ROOT
ATOM      1  C   UNL d   1      59.117  -1.378  29.015  0.00  0.00     0.735 A 
ATOM      2  N   UNL d   1      58.760  -2.096  28.770  0.00  0.00    -0.059 NA
ATOM      3  N   UNL d   1      59.919  -1.577  29.184  0.00  0.00    -0.059 NA
ATOM      4  C   UNL d   1      59.311  -2.687  28.791  0.00  0.00     0.118 A 
ATOM      5  C   UNL d   1      60.028  -2.366  29.047  0.00  0.00     0.118 A 
ATOM      6  C   UNL d   1      59.246  -3.501  28.603  0.00  0.00     0.021 A 
ATOM      7  C   UNL d   1      60.688  -2.856  29.118  0.00  0.00     0.021 A 
ATOM      8  C   UNL d   1      59.927  -3.975  28.683  0.00  0.00     0.002 A 
ATOM      9  C   UNL d   1      60.643  -3.654  28.939  0.00  0.00     0.002 A 
ENDROOT
BRANCH   1  10
ATOM     10  N   UNL d   1      58.725  -0.663  29.061  0.00  0.00    -0.133 N 
ATOM     11  C   UNL d   1      58.575  -0.074  28.548  0.00  0.00     0.125 A 
ATOM     12  C   UNL d   1      58.153   0.594  28.769  0.00  0.00     0.142 A 
ATOM     13  O   UNL d   1      57.869   0.679  29.533  0.00  0.00    -0.300 OA
ATOM     14  C   UNL d   1      58.031   0.041  30.093  0.00  0.00     0.142 A 
ATOM     15  C   UNL d   1      58.449  -0.605  29.846  0.00  0.00     0.125 A 
ENDBRANCH   1  10
TORSDOF 1
ENDMDL
MODEL 6
REMARK VINA RESULT:      -2.8      9.756     10.221
REMARK  1 active torsions:
REMARK  status: ('A' for Active; 'I' for Inactive)
REMARK    1  A    between atoms: N_4  and  C_1 
ROOT
ATOM      1  C   UNL d   1      59.286  -9.472  33.978  0.00  0.00     0.735 A 
ATOM      2  N   UNL d   1      58.484  -9.493  33.735  0.00  0.00    -0.059 NA
ATOM      3  N   UNL d   1      59.734  -9.572  33.271  0.00  0.00    -0.059 NA
ATOM      4  C   UNL d   1      58.452  -9.599  32.934  0.00  0.00     0.118 A 
ATOM      5  C   UNL d   1      59.225  -9.648  32.647  0.00  0.00     0.118 A 
ATOM      6  C   UNL d   1      57.795  -9.658  32.417  0.00  0.00     0.021 A 
ATOM      7  C   UNL d   1      59.350  -9.757  31.839  0.00  0.00     0.021 A 
ATOM      8  C   UNL d   1      57.947  -9.768  31.605  0.00  0.00     0.002 A 
ATOM      9  C   UNL d   1      58.720  -9.818  31.318  0.00  0.00     0.002 A 
ENDROOT
BRANCH   1  10
ATOM     10  N   UNL d   1      59.528  -9.372  34.752  0.00  0.00    -0.133 N 
ATOM     11  C   UNL d   1      59.450  -9.797  35.420  0.00  0.00     0.125 A 
ATOM     12  C   UNL d   1      59.766  -9.541  36.133  0.00  0.00     0.142 A 
ATOM     13  O   UNL d   1      60.176  -8.833  36.182  0.00  0.00    -0.300 OA
ATOM     14  C   UNL d   1      60.263  -8.370  35.458  0.00  0.00     0.142 A 
ATOM     15  C   UNL d   1      59.941  -8.648  34.771  0.00  0.00     0.125 A 
ENDBRANCH   1  10
TORSDOF 1
ENDMDL
