MODEL 1
REMARK VINA RESULT:      -3.4      0.000      0.000
REMARK  5 active torsions:
REMARK  status: ('A' for Active; 'I' for Inactive)
REMARK    1  A    between atoms: N_2  and  C_7 
REMARK    2  A    between atoms: N_6  and  C_3 
REMARK    3  A    between atoms: N_8  and  N_6 
REMARK    4  A    between atoms: C_15  and  N_8 
REMARK    5  A    between atoms: C_16  and  C_15 
ROOT
ATOM      1  C   UNL d   1      32.385  22.348 -21.154  0.00  0.00     0.127 A 
ATOM      2  C   UNL d   1      32.113  21.675 -20.764  0.00  0.00     0.024 A 
ATOM      3  C   UNL d   1      32.951  22.260 -21.751  0.00  0.00     0.024 A 
ATOM      4  C   UNL d   1      32.956  20.845 -21.553  0.00  0.00     0.021 A 
ATOM      5  C   UNL d   1      33.233  21.505 -21.946  0.00  0.00     0.003 A 
ATOM      6  C   UNL d   1      32.405  20.932 -20.972  0.00  0.00     0.003 A 
ENDROOT
BRANCH   4   7
ATOM      7  C   UNL d   1      33.238  20.093 -21.749  0.00  0.00     0.122 C 
BRANCH   7   8
ATOM      8  N   UNL d   1      32.920  19.693 -22.389  0.00  0.00    -0.144 NA
BRANCH   8   9
ATOM      9  N   UNL d   1      33.202  18.915 -22.572  0.00  0.00    -0.121 NA
BRANCH   9  10
ATOM     10  C   UNL d   1      32.879  18.537 -23.247  0.00  0.00     0.217 A 
ATOM     11  N   UNL d   1      32.273  18.013 -23.209  0.00  0.00    -0.181 NA
ATOM     12  C   UNL d   1      32.101  17.753 -23.980  0.00  0.00     0.288 A 
ATOM     13  O   UNL d   1      31.494  17.199 -24.152  0.00  0.00    -0.265 OA
ATOM     14  C   UNL d   1      32.606  18.120 -24.494  0.00  0.00     0.101 A 
ATOM     15  S   UNL d   1      33.094  18.611 -24.032  0.00  0.00    -0.041 SA
ENDBRANCH   9  10
ENDBRANCH   8   9
ENDBRANCH   7   8
ENDBRANCH   4   7
BRANCH   1  16
ATOM     16  N   UNL d   1      32.122  23.079 -20.976  0.00  0.00    -0.114 N 
ATOM     17  O   UNL d   1      31.411  23.399 -21.259  0.00  0.00    -0.532 OA
ATOM     18  O   UNL d   1      32.489  23.620 -20.503  0.00  0.00    -0.532 OA
ENDBRANCH   1  16
TORSDOF 5
ENDMDL
MODEL 2
REMARK VINA RESULT:      -2.7      2.386      5.556
REMARK  5 active torsions:
REMARK  status: ('A' for Active; 'I' for Inactive)
REMARK    1  A    between atoms: N_2  and  C_7 
REMARK    2  A    between atoms: N_6  and  C_3 
REMARK    3  A    between atoms: N_8  and  N_6 
REMARK    4  A    between atoms: C_15  and  N_8 
REMARK    5  A    between atoms: C_16  and  C_15 
ROOT
ATOM      1  C   UNL d   1      29.545  15.899 -23.823  0.00  0.00     0.127 A 
ATOM      2  C   UNL d   1      30.072  15.574 -23.279  0.00  0.00     0.024 A 
ATOM      3  C   UNL d   1      29.811  16.501 -24.323  0.00  0.00     0.024 A 
ATOM      4  C   UNL d   1      31.108  16.439 -23.727  0.00  0.00     0.021 A 
ATOM      5  C   UNL d   1      30.595  16.768 -24.270  0.00  0.00     0.003 A 
ATOM      6  C   UNL d   1      30.848  15.851 -23.240  0.00  0.00     0.003 A 
ENDROOT
BRANCH   4   7
ATOM      7  C   UNL d   1      31.889  16.705 -23.675  0.00  0.00     0.122 C 
BRANCH   7   8
ATOM      8  N   UNL d   1      32.047  17.441 -23.354  0.00  0.00    -0.144 NA
BRANCH   8   9
ATOM      9  N   UNL d   1      32.848  17.719 -23.331  0.00  0.00    -0.121 NA
BRANCH   9  10
ATOM     10  C   UNL d   1      32.973  18.519 -23.111  0.00  0.00     0.217 A 
ATOM     11  N   UNL d   1      32.894  18.785 -22.359  0.00  0.00    -0.181 NA
ATOM     12  C   UNL d   1      33.059  19.600 -22.350  0.00  0.00     0.288 A 
ATOM     13  O   UNL d   1      33.031  20.065 -21.652  0.00  0.00    -0.265 OA
ATOM     14  C   UNL d   1      33.240  19.834 -23.102  0.00  0.00     0.101 A 
ATOM     15  S   UNL d   1      33.186  19.154 -23.578  0.00  0.00    -0.041 SA
ENDBRANCH   9  10
ENDBRANCH   8   9
ENDBRANCH   7   8
ENDBRANCH   4   7
BRANCH   1  16
ATOM     16  N   UNL d   1      28.790  15.651 -23.884  0.00  0.00    -0.114 N 
ATOM     17  O   UNL d   1      28.419  15.462 -24.602  0.00  0.00    -0.532 OA
ATOM     18  O   UNL d   1      28.268  15.545 -23.278  0.00  0.00    -0.532 OA
ENDBRANCH   1  16
TORSDOF 5
ENDMDL
MODEL 3
REMARK VINA RESULT:      -1.5      3.188      4.463
REMARK  5 active torsions:
REMARK  status: ('A' for Active; 'I' for Inactive)
REMARK    1  A    between atoms: N_2  and  C_7 
REMARK    2  A    between atoms: N_6  and  C_3 
REMARK    3  A    between atoms: N_8  and  N_6 
REMARK    4  A    between atoms: C_15  and  N_8 
REMARK    5  A    between atoms: C_16  and  C_15 
ROOT
ATOM      1  C   UNL d   1      32.696  18.694 -23.410  0.00  0.00     0.127 A 
ATOM      2  C   UNL d   1      32.385  18.643 -24.172  0.00  0.00     0.024 A 
ATOM      3  C   UNL d   1      32.652  18.032 -22.917  0.00  0.00     0.024 A 
ATOM      4  C   UNL d   1      31.996  17.293 -23.949  0.00  0.00     0.021 A 
ATOM      5  C   UNL d   1      32.300  17.333 -23.192  0.00  0.00     0.003 A 
ATOM      6  C   UNL d   1      32.039  17.940 -24.429  0.00  0.00     0.003 A 
ENDROOT
BRANCH   4   7
ATOM      7  C   UNL d   1      31.645  16.596 -24.223  0.00  0.00     0.122 C 
BRANCH   7   8
ATOM      8  N   UNL d   1      30.988  16.295 -23.841  0.00  0.00    -0.144 NA
BRANCH   8   9
ATOM      9  N   UNL d   1      30.376  15.928 -24.298  0.00  0.00    -0.121 NA
BRANCH   9  10
ATOM     10  C   UNL d   1      29.654  15.754 -23.908  0.00  0.00     0.217 A 
ATOM     11  N   UNL d   1      28.947  15.719 -24.286  0.00  0.00    -0.181 NA
ATOM     12  C   UNL d   1      28.359  15.535 -23.727  0.00  0.00     0.288 A 
ATOM     13  O   UNL d   1      27.548  15.453 -23.927  0.00  0.00    -0.265 OA
ATOM     14  C   UNL d   1      28.708  15.456 -23.003  0.00  0.00     0.101 A 
ATOM     15  S   UNL d   1      29.520  15.593 -23.118  0.00  0.00    -0.041 SA
ENDBRANCH   9  10
ENDBRANCH   8   9
ENDBRANCH   7   8
ENDBRANCH   4   7
BRANCH   1  16
ATOM     16  N   UNL d   1      33.037  19.360 -23.133  0.00  0.00    -0.114 N 
ATOM     17  O   UNL d   1      33.236  20.012 -23.607  0.00  0.00    -0.532 OA
ATOM     18  O   UNL d   1      33.241  19.513 -22.368  0.00  0.00    -0.532 OA
ENDBRANCH   1  16
TORSDOF 5
ENDMDL
