MODEL 1
REMARK VINA RESULT:      93.6      0.000      0.000
REMARK  8 active torsions:
REMARK  status: ('A' for Active; 'I' for Inactive)
REMARK    1  A    between atoms: C_2  and  P_1 
REMARK    2  A    between atoms: O_4  and  P_1 
REMARK    3  A    between atoms: C_5  and  P_1 
REMARK    4  A    between atoms: C_3  and  C_2 
REMARK    5  A    between atoms: C_20  and  O_4 
REMARK    6  A    between atoms: O_19  and  C_8 
REMARK    7  A    between atoms: N_11  and  C_9 
REMARK    8  A    between atoms: O_21  and  C_10 
ROOT
ATOM      1  P   UNL d   1     -51.658  25.793  34.220  0.00  0.00     0.307 P 
ATOM      2  O   UNL d   1     -51.401  25.184  33.729  0.00  0.00    -0.277 OA
ENDROOT
BRANCH   1   3
ATOM      3  C   UNL d   1     -51.916  26.400  34.710  0.00  0.00     0.253 C 
ATOM      4  O   UNL d   1     -52.142  27.135  34.392  0.00  0.00    -0.281 OA
BRANCH   3   5
ATOM      5  C   UNL d   1     -51.953  26.290  35.533  0.00  0.00     0.046 A 
ATOM      6  C   UNL d   1     -51.367  26.598  36.022  0.00  0.00     0.030 A 
ATOM      7  C   UNL d   1     -51.410  26.486  36.830  0.00  0.00     0.116 A 
ATOM      8  C   UNL d   1     -52.037  26.063  37.175  0.00  0.00     0.116 A 
ATOM      9  C   UNL d   1     -52.630  25.751  36.679  0.00  0.00     0.026 A 
ATOM     10  C   UNL d   1     -52.586  25.865  35.858  0.00  0.00     0.005 A 
BRANCH   7  11
ATOM     11  O   UNL d   1     -50.823  26.796  37.316  0.00  0.00    -0.326 OA
ATOM     12  C   UNL d   1     -50.604  27.587  37.243  0.00  0.00     0.181 C 
ENDBRANCH   7  11
BRANCH   8  13
ATOM     13  O   UNL d   1     -52.081  25.950  37.987  0.00  0.00    -0.326 OA
ATOM     14  C   UNL d   1     -52.240  25.196  38.277  0.00  0.00     0.181 C 
ENDBRANCH   8  13
ENDBRANCH   3   5
ENDBRANCH   1   3
BRANCH   1  15
ATOM     15  O   UNL d   1     -52.335  25.361  34.398  0.00  0.00    -0.281 OA
BRANCH  15  16
ATOM     16  C   UNL d   1     -52.473  24.638  34.036  0.00  0.00     0.101 A 
ATOM     17  C   UNL d   1     -53.220  24.470  33.716  0.00  0.00     0.025 A 
ATOM     18  C   UNL d   1     -53.359  23.751  33.356  0.00  0.00     0.002 A 
ATOM     19  C   UNL d   1     -52.759  23.191  33.308  0.00  0.00     0.000 A 
ATOM     20  C   UNL d   1     -52.015  23.350  33.622  0.00  0.00     0.002 A 
ATOM     21  C   UNL d   1     -51.873  24.082  33.990  0.00  0.00     0.025 A 
ENDBRANCH  15  16
ENDBRANCH   1  15
BRANCH   1  22
ATOM     22  C   UNL d   1     -50.975  26.227  34.039  0.00  0.00     0.061 A 
ATOM     23  C   UNL d   1     -51.018  26.855  33.506  0.00  0.00     0.007 A 
ATOM     24  C   UNL d   1     -50.331  27.292  33.324  0.00  0.00     0.018 A 
ATOM     25  C   UNL d   1     -49.615  27.101  33.673  0.00  0.00     0.064 A 
ATOM     26  C   UNL d   1     -49.578  26.469  34.208  0.00  0.00     0.018 A 
ATOM     27  C   UNL d   1     -50.265  26.031  34.391  0.00  0.00     0.007 A 
BRANCH  25  28
ATOM     28  N   UNL d   1     -48.935  27.534  33.493  0.00  0.00    -0.301 N 
ATOM     29  C   UNL d   1     -48.234  27.143  33.307  0.00  0.00     0.100 C 
ATOM     30  C   UNL d   1     -48.961  28.358  33.500  0.00  0.00     0.100 C 
ENDBRANCH  25  28
ENDBRANCH   1  22
TORSDOF 8
ENDMDL
MODEL 2
REMARK VINA RESULT:      95.9      4.074      6.833
REMARK  8 active torsions:
REMARK  status: ('A' for Active; 'I' for Inactive)
REMARK    1  A    between atoms: C_2  and  P_1 
REMARK    2  A    between atoms: O_4  and  P_1 
REMARK    3  A    between atoms: C_5  and  P_1 
REMARK    4  A    between atoms: C_3  and  C_2 
REMARK    5  A    between atoms: C_20  and  O_4 
REMARK    6  A    between atoms: O_19  and  C_8 
REMARK    7  A    between atoms: N_11  and  C_9 
REMARK    8  A    between atoms: O_21  and  C_10 
ROOT
ATOM      1  P   UNL d   1     -47.785  29.808  35.382  0.00  0.00     0.307 P 
ATOM      2  O   UNL d   1     -48.043  29.517  36.108  0.00  0.00    -0.277 OA
ENDROOT
BRANCH   1   3
ATOM      3  C   UNL d   1     -47.528  30.098  34.657  0.00  0.00     0.253 C 
ATOM      4  O   UNL d   1     -47.130  29.604  34.119  0.00  0.00    -0.281 OA
BRANCH   3   5
ATOM      5  C   UNL d   1     -47.661  30.892  34.451  0.00  0.00     0.046 A 
ATOM      6  C   UNL d   1     -47.045  31.358  34.168  0.00  0.00     0.030 A 
ATOM      7  C   UNL d   1     -47.182  32.138  33.966  0.00  0.00     0.116 A 
ATOM      8  C   UNL d   1     -47.938  32.477  34.041  0.00  0.00     0.116 A 
ATOM      9  C   UNL d   1     -48.562  32.004  34.328  0.00  0.00     0.026 A 
ATOM     10  C   UNL d   1     -48.421  31.211  34.532  0.00  0.00     0.005 A 
BRANCH   7  11
ATOM     11  O   UNL d   1     -46.564  32.601  33.684  0.00  0.00    -0.326 OA
ATOM     12  C   UNL d   1     -45.924  32.246  33.306  0.00  0.00     0.181 C 
ENDBRANCH   7  11
BRANCH   8  13
ATOM     13  O   UNL d   1     -48.078  33.260  33.839  0.00  0.00    -0.326 OA
ATOM     14  C   UNL d   1     -48.813  33.468  33.533  0.00  0.00     0.181 C 
ENDBRANCH   8  13
ENDBRANCH   3   5
ENDBRANCH   1   3
BRANCH   1  15
ATOM     15  O   UNL d   1     -47.340  30.380  35.770  0.00  0.00    -0.281 OA
BRANCH  15  16
ATOM     16  C   UNL d   1     -46.987  30.211  36.491  0.00  0.00     0.101 A 
ATOM     17  C   UNL d   1     -46.167  30.090  36.532  0.00  0.00     0.025 A 
ATOM     18  C   UNL d   1     -45.813  29.922  37.248  0.00  0.00     0.002 A 
ATOM     19  C   UNL d   1     -46.268  29.873  37.932  0.00  0.00     0.000 A 
ATOM     20  C   UNL d   1     -47.081  29.992  37.899  0.00  0.00     0.002 A 
ATOM     21  C   UNL d   1     -47.442  30.163  37.170  0.00  0.00     0.025 A 
ENDBRANCH  15  16
ENDBRANCH   1  15
BRANCH   1  22
ATOM     22  C   UNL d   1     -48.234  29.230  34.991  0.00  0.00     0.061 A 
ATOM     23  C   UNL d   1     -48.922  29.447  34.590  0.00  0.00     0.007 A 
ATOM     24  C   UNL d   1     -49.374  28.867  34.197  0.00  0.00     0.018 A 
ATOM     25  C   UNL d   1     -49.137  28.082  34.207  0.00  0.00     0.064 A 
ATOM     26  C   UNL d   1     -48.446  27.870  34.612  0.00  0.00     0.018 A 
ATOM     27  C   UNL d   1     -47.993  28.451  35.005  0.00  0.00     0.007 A 
BRANCH  25  28
ATOM     28  N   UNL d   1     -49.585  27.507  33.818  0.00  0.00    -0.301 N 
ATOM     29  C   UNL d   1     -49.267  26.761  33.679  0.00  0.00     0.100 C 
ATOM     30  C   UNL d   1     -50.351  27.684  33.570  0.00  0.00     0.100 C 
ENDBRANCH  25  28
ENDBRANCH   1  22
TORSDOF 8
ENDMDL
