MODEL 1
REMARK VINA RESULT:      -4.6      0.000      0.000
REMARK  5 active torsions:
REMARK  status: ('A' for Active; 'I' for Inactive)
REMARK    1  A    between atoms: S_9  and  C_2 
REMARK    2  A    between atoms: C_19  and  S_9 
REMARK    3  A    between atoms: C_11  and  C_19 
REMARK       I    between atoms: N_16  and  C_11 
REMARK    4  A    between atoms: C_22  and  N_16 
REMARK    5  A    between atoms: C_21  and  C_22 
ROOT
ATOM      1  C   UNL d   1      59.856  -1.847  29.105  0.00  0.00     0.092 A 
ATOM      2  C   UNL d   1      59.049  -1.670  29.201  0.00  0.00     0.120 A 
ATOM      3  N   UNL d   1      58.490  -2.255  29.081  0.00  0.00    -0.238 NA
ATOM      4  C   UNL d   1      60.102  -2.608  28.889  0.00  0.00     0.013 A 
ATOM      5  C   UNL d   1      59.521  -3.193  28.769  0.00  0.00     0.018 A 
ATOM      6  C   UNL d   1      58.722  -3.018  28.864  0.00  0.00     0.082 A 
ATOM      7  C   UNL d   1      60.426  -1.252  29.228  0.00  0.00     0.103 C 
ATOM      8  N   UNL d   1      60.998  -0.670  29.348  0.00  0.00    -0.191 NA
ATOM      9  C   UNL d   1      60.901  -2.784  28.793  0.00  0.00     0.001 A 
ATOM     10  C   UNL d   1      59.755  -3.961  28.552  0.00  0.00     0.002 A 
ATOM     11  C   UNL d   1      58.154  -3.601  28.744  0.00  0.00     0.021 C 
ATOM     12  C   UNL d   1      61.133  -3.543  28.578  0.00  0.00     0.000 A 
ATOM     13  C   UNL d   1      60.564  -4.138  28.455  0.00  0.00     0.000 A 
ENDROOT
BRANCH   2  14
ATOM     14  S   UNL d   1      58.819  -0.903  29.419  0.00  0.00    -0.062 SA
BRANCH  14  15
ATOM     15  C   UNL d   1      58.664  -0.732  30.212  0.00  0.00     0.099 C 
BRANCH  15  16
ATOM     16  C   UNL d   1      58.109  -0.155  30.405  0.00  0.00     0.286 C 
ATOM     17  N   UNL d   1      57.927  -0.010  31.199  0.00  0.00    -0.206 NA
ATOM     18  O   UNL d   1      57.733   0.279  29.808  0.00  0.00    -0.265 OA
BRANCH  17  19
ATOM     19  C   UNL d   1      57.371   0.567  31.403  0.00  0.00     0.102 C 
BRANCH  19  20
ATOM     20  C   UNL d   1      57.000   0.542  32.140  0.00  0.00     0.021 A 
ATOM     21  C   UNL d   1      56.198   0.378  32.188  0.00  0.00     0.028 A 
ATOM     22  C   UNL d   1      55.828   0.353  32.925  0.00  0.00     0.119 A 
ATOM     23  O   UNL d   1      55.047   0.205  33.140  0.00  0.00    -0.300 OA
ATOM     24  C   UNL d   1      56.258   0.492  33.604  0.00  0.00     0.119 A 
ATOM     25  C   UNL d   1      54.998   0.254  33.962  0.00  0.00     0.304 A 
ATOM     26  O   UNL d   1      55.749   0.431  34.250  0.00  0.00    -0.300 OA
ATOM     27  C   UNL d   1      57.078   0.660  33.554  0.00  0.00     0.026 A 
ATOM     28  C   UNL d   1      57.437   0.682  32.814  0.00  0.00     0.004 A 
ENDBRANCH  19  20
ENDBRANCH  17  19
ENDBRANCH  15  16
ENDBRANCH  14  15
ENDBRANCH   2  14
TORSDOF 5
ENDMDL
MODEL 2
REMARK VINA RESULT:      -3.4      1.748      6.240
REMARK  5 active torsions:
REMARK  status: ('A' for Active; 'I' for Inactive)
REMARK    1  A    between atoms: S_9  and  C_2 
REMARK    2  A    between atoms: C_19  and  S_9 
REMARK    3  A    between atoms: C_11  and  C_19 
REMARK       I    between atoms: N_16  and  C_11 
REMARK    4  A    between atoms: C_22  and  N_16 
REMARK    5  A    between atoms: C_21  and  C_22 
ROOT
ATOM      1  C   UNL d   1      56.186   0.526  33.488  0.00  0.00     0.092 A 
ATOM      2  C   UNL d   1      56.904   0.526  33.068  0.00  0.00     0.120 A 
ATOM      3  N   UNL d   1      57.611   0.578  33.475  0.00  0.00    -0.238 NA
ATOM      4  C   UNL d   1      56.178   0.577  34.315  0.00  0.00     0.013 A 
ATOM      5  C   UNL d   1      56.905   0.629  34.716  0.00  0.00     0.018 A 
ATOM      6  C   UNL d   1      57.616   0.630  34.300  0.00  0.00     0.082 A 
ATOM      7  C   UNL d   1      55.466   0.473  33.073  0.00  0.00     0.103 C 
ATOM      8  N   UNL d   1      54.747   0.421  32.671  0.00  0.00    -0.191 NA
ATOM      9  C   UNL d   1      55.467   0.577  34.731  0.00  0.00     0.001 A 
ATOM     10  C   UNL d   1      56.909   0.681  35.546  0.00  0.00     0.002 A 
ATOM     11  C   UNL d   1      58.331   0.681  34.705  0.00  0.00     0.021 C 
ATOM     12  C   UNL d   1      55.470   0.628  35.552  0.00  0.00     0.000 A 
ATOM     13  C   UNL d   1      56.190   0.681  35.967  0.00  0.00     0.000 A 
ENDROOT
BRANCH   2  14
ATOM     14  S   UNL d   1      56.897   0.474  32.240  0.00  0.00    -0.062 SA
BRANCH  14  15
ATOM     15  C   UNL d   1      57.608   0.380  31.829  0.00  0.00     0.099 C 
BRANCH  15  16
ATOM     16  C   UNL d   1      57.597   0.264  31.014  0.00  0.00     0.286 C 
ATOM     17  N   UNL d   1      58.158  -0.232  30.664  0.00  0.00    -0.206 NA
ATOM     18  O   UNL d   1      57.028   0.641  30.546  0.00  0.00    -0.265 OA
BRANCH  17  19
ATOM     19  C   UNL d   1      58.156  -0.356  29.846  0.00  0.00     0.102 C 
BRANCH  19  20
ATOM     20  C   UNL d   1      58.687  -0.890  29.507  0.00  0.00     0.021 A 
ATOM     21  C   UNL d   1      58.491  -1.685  29.458  0.00  0.00     0.028 A 
ATOM     22  C   UNL d   1      59.021  -2.218  29.119  0.00  0.00     0.119 A 
ATOM     23  O   UNL d   1      58.976  -3.032  28.998  0.00  0.00    -0.300 OA
ATOM     24  C   UNL d   1      59.737  -1.956  28.833  0.00  0.00     0.119 A 
ATOM     25  C   UNL d   1      59.675  -3.271  28.632  0.00  0.00     0.304 A 
ATOM     26  O   UNL d   1      60.147  -2.604  28.530  0.00  0.00    -0.300 OA
ATOM     27  C   UNL d   1      59.937  -1.144  28.883  0.00  0.00     0.026 A 
ATOM     28  C   UNL d   1      59.402  -0.620  29.222  0.00  0.00     0.004 A 
ENDBRANCH  19  20
ENDBRANCH  17  19
ENDBRANCH  15  16
ENDBRANCH  14  15
ENDBRANCH   2  14
TORSDOF 5
ENDMDL
MODEL 3
REMARK VINA RESULT:      -2.8      2.396      6.337
REMARK  5 active torsions:
REMARK  status: ('A' for Active; 'I' for Inactive)
REMARK    1  A    between atoms: S_9  and  C_2 
REMARK    2  A    between atoms: C_19  and  S_9 
REMARK    3  A    between atoms: C_11  and  C_19 
REMARK       I    between atoms: N_16  and  C_11 
REMARK    4  A    between atoms: C_22  and  N_16 
REMARK    5  A    between atoms: C_21  and  C_22 
ROOT
ATOM      1  C   UNL d   1      56.422   0.668  33.993  0.00  0.00     0.092 A 
ATOM      2  C   UNL d   1      56.192   0.663  33.194  0.00  0.00     0.120 A 
ATOM      3  N   UNL d   1      55.397   0.663  33.002  0.00  0.00    -0.238 NA
ATOM      4  C   UNL d   1      55.856   0.672  34.598  0.00  0.00     0.013 A 
ATOM      5  C   UNL d   1      55.050   0.672  34.387  0.00  0.00     0.018 A 
ATOM      6  C   UNL d   1      54.822   0.667  33.595  0.00  0.00     0.082 A 
ATOM      7  C   UNL d   1      57.231   0.668  34.189  0.00  0.00     0.103 C 
ATOM      8  N   UNL d   1      58.031   0.668  34.394  0.00  0.00    -0.191 NA
ATOM      9  C   UNL d   1      56.083   0.677  35.390  0.00  0.00     0.001 A 
ATOM     10  C   UNL d   1      54.473   0.676  34.986  0.00  0.00     0.002 A 
ATOM     11  C   UNL d   1      54.024   0.667  33.396  0.00  0.00     0.021 C 
ATOM     12  C   UNL d   1      55.513   0.681  35.983  0.00  0.00     0.000 A 
ATOM     13  C   UNL d   1      54.703   0.681  35.787  0.00  0.00     0.000 A 
ENDROOT
BRANCH   2  14
ATOM     14  S   UNL d   1      56.770   0.658  32.599  0.00  0.00    -0.062 SA
BRANCH  14  15
ATOM     15  C   UNL d   1      56.547   0.534  31.813  0.00  0.00     0.099 C 
BRANCH  15  16
ATOM     16  C   UNL d   1      56.940  -0.031  31.361  0.00  0.00     0.286 C 
ATOM     17  N   UNL d   1      57.369   0.202  30.694  0.00  0.00    -0.206 NA
ATOM     18  O   UNL d   1      56.907  -0.831  31.573  0.00  0.00    -0.265 OA
BRANCH  17  19
ATOM     19  C   UNL d   1      57.767  -0.358  30.233  0.00  0.00     0.102 C 
BRANCH  19  20
ATOM     20  C   UNL d   1      58.410  -0.130  29.769  0.00  0.00     0.021 A 
ATOM     21  C   UNL d   1      59.144  -0.477  29.891  0.00  0.00     0.028 A 
ATOM     22  C   UNL d   1      59.787  -0.249  29.427  0.00  0.00     0.119 A 
ATOM     23  O   UNL d   1      60.573  -0.495  29.423  0.00  0.00    -0.300 OA
ATOM     24  C   UNL d   1      59.693   0.318  28.849  0.00  0.00     0.119 A 
ATOM     25  C   UNL d   1      60.966  -0.072  28.834  0.00  0.00     0.304 A 
ATOM     26  O   UNL d   1      60.421   0.432  28.478  0.00  0.00    -0.300 OA
ATOM     27  C   UNL d   1      58.943   0.671  28.725  0.00  0.00     0.026 A 
ATOM     28  C   UNL d   1      58.309   0.437  29.193  0.00  0.00     0.004 A 
ENDBRANCH  19  20
ENDBRANCH  17  19
ENDBRANCH  15  16
ENDBRANCH  14  15
ENDBRANCH   2  14
TORSDOF 5
ENDMDL
