MODEL 1
REMARK VINA RESULT:      74.6      0.000      0.000
REMARK  9 active torsions:
REMARK  status: ('A' for Active; 'I' for Inactive)
REMARK    1  A    between atoms: P_3  and  C_1 
REMARK    2  A    between atoms: O_13  and  P_3 
REMARK    3  A    between atoms: O_14  and  P_3 
REMARK    4  A    between atoms: N_8  and  C_4 
REMARK    5  A    between atoms: C_15  and  N_8 
REMARK    6  A    between atoms: C_25  and  O_13 
REMARK    7  A    between atoms: C_26  and  O_14 
REMARK    8  A    between atoms: O_23  and  C_16 
REMARK    9  A    between atoms: O_24  and  C_17 
ROOT
ATOM      1  C   UNL d   1     -55.183-101.385 -40.906  0.00  0.00     0.174 A 
ATOM      2  C   UNL d   1     -55.256-102.060 -40.425  0.00  0.00     0.100 A 
ATOM      3  C   UNL d   1     -55.182-101.992 -39.605  0.00  0.00     0.095 A 
ATOM      4  N   UNL d   1     -55.035-100.648 -40.562  0.00  0.00    -0.237 NA
ATOM      5  C   UNL d   1     -55.034-101.258 -39.265  0.00  0.00     0.038 A 
ATOM      6  C   UNL d   1     -54.961-100.583 -39.745  0.00  0.00     0.083 A 
ATOM      7  C   UNL d   1     -54.961-101.195 -38.451  0.00  0.00     0.027 A 
ATOM      8 CL   UNL d   1     -55.405-102.798 -40.772  0.00  0.00    -0.079 Cl
ATOM      9  C   UNL d   1     -54.814 -99.849 -39.404  0.00  0.00     0.021 A 
ATOM     10  C   UNL d   1     -54.812-100.454 -38.101  0.00  0.00     0.094 A 
ATOM     11  C   UNL d   1     -54.739 -99.784 -38.588  0.00  0.00     0.026 A 
ENDROOT
BRANCH   3  12
ATOM     12  N   UNL d   1     -55.255-102.665 -39.127  0.00  0.00    -0.245 NA
BRANCH  12  13
ATOM     13  C   UNL d   1     -55.324-102.589 -38.303  0.00  0.00     0.082 A 
ATOM     14  C   UNL d   1     -54.714-102.241 -37.875  0.00  0.00     0.021 A 
ATOM     15  C   UNL d   1     -54.773-102.160 -37.048  0.00  0.00     0.026 A 
ATOM     16  C   UNL d   1     -55.454-102.433 -36.661  0.00  0.00     0.094 A 
ATOM     17  C   UNL d   1     -56.069-102.785 -37.100  0.00  0.00     0.026 A 
ATOM     18  C   UNL d   1     -56.000-102.860 -37.918  0.00  0.00     0.021 A 
BRANCH  16  19
ATOM     19  O   UNL d   1     -55.517-102.354 -35.841  0.00  0.00    -0.328 OA
ATOM     20  C   UNL d   1     -55.074-102.854 -35.344  0.00  0.00     0.181 C 
ENDBRANCH  16  19
ENDBRANCH  12  13
ENDBRANCH   3  12
BRANCH   1  21
ATOM     21  P   UNL d   1     -55.258-101.450 -41.732  0.00  0.00     0.393 P 
ATOM     22  O   UNL d   1     -55.614-102.189 -41.633  0.00  0.00    -0.251 OA
BRANCH  21  23
ATOM     23  O   UNL d   1     -55.319-101.488 -42.554  0.00  0.00    -0.263 OA
BRANCH  23  24
ATOM     24  C   UNL d   1     -55.450-102.212 -42.928  0.00  0.00     0.126 C 
ATOM     25  C   UNL d   1     -54.817-102.708 -43.105  0.00  0.00     0.029 C 
ENDBRANCH  23  24
ENDBRANCH  21  23
BRANCH  21  26
ATOM     26  O   UNL d   1     -54.929-100.745 -42.031  0.00  0.00    -0.263 OA
BRANCH  26  27
ATOM     27  C   UNL d   1     -55.174-100.445 -42.758  0.00  0.00     0.126 C 
ATOM     28  C   UNL d   1     -54.723 -99.874 -43.146  0.00  0.00     0.029 C 
ENDBRANCH  26  27
ENDBRANCH  21  26
ENDBRANCH   1  21
BRANCH  10  29
ATOM     29  O   UNL d   1     -54.737-100.389 -37.284  0.00  0.00    -0.328 OA
ATOM     30  C   UNL d   1     -55.349-100.641 -36.795  0.00  0.00     0.181 C 
ENDBRANCH  10  29
TORSDOF 9
ENDMDL
