MODEL 1
REMARK VINA RESULT:      61.7      0.000      0.000
REMARK  5 active torsions:
REMARK  status: ('A' for Active; 'I' for Inactive)
REMARK    1  A    between atoms: C_10  and  C_3 
REMARK    2  A    between atoms: N_12  and  C_4 
REMARK    3  A    between atoms: N_11  and  C_21 
REMARK    4  A    between atoms: C_20  and  N_12 
REMARK    5  A    between atoms: C_21  and  C_20 
ROOT
ATOM      1  C   UNL d   1     -55.104-100.677 -42.913  0.00  0.00     0.168 A 
ATOM      2  N   UNL d   1     -54.944-100.964 -42.128  0.00  0.00    -0.184 N 
ATOM      3  C   UNL d   1     -55.179 -99.880 -43.047  0.00  0.00     0.057 A 
ATOM      4  C   UNL d   1     -54.873-101.760 -42.013  0.00  0.00     0.218 A 
ATOM      5  N   UNL d   1     -54.943 -99.623 -41.651  0.00  0.00    -0.160 NA
ATOM      6  N   UNL d   1     -55.183-101.204 -43.531  0.00  0.00    -0.227 NA
ATOM      7  C   UNL d   1     -54.951-102.301 -42.630  0.00  0.00     0.071 A 
ATOM      8  C   UNL d   1     -55.098 -99.345 -42.412  0.00  0.00     0.124 A 
ATOM      9  C   UNL d   1     -55.108-102.018 -43.403  0.00  0.00     0.087 A 
ATOM     10  C   UNL d   1     -55.191-102.574 -44.054  0.00  0.00     0.021 C 
ENDROOT
BRANCH   4  11
ATOM     11  N   UNL d   1     -54.712-102.054 -41.221  0.00  0.00    -0.379 NA
BRANCH  11  12
ATOM     12  C   UNL d   1     -54.738-102.243 -40.387  0.00  0.00     0.182 C 
BRANCH  12  13
ATOM     13  C   UNL d   1     -55.384-102.687 -40.090  0.00  0.00     0.116 C 
BRANCH  13  14
ATOM     14  N   UNL d   1     -55.518-102.725 -39.238  0.00  0.00    -0.297 N 
ATOM     15  C   UNL d   1     -54.861-102.719 -38.707  0.00  0.00     0.107 A 
ATOM     16  C   UNL d   1     -54.994-102.757 -37.849  0.00  0.00     0.142 A 
ATOM     17  O   UNL d   1     -55.770-102.799 -37.540  0.00  0.00    -0.300 OA
ATOM     18  C   UNL d   1     -56.454-102.806 -38.073  0.00  0.00     0.142 A 
ATOM     19  C   UNL d   1     -56.327-102.769 -38.929  0.00  0.00     0.107 A 
ENDBRANCH  13  14
ENDBRANCH  12  13
ENDBRANCH  11  12
ENDBRANCH   4  11
BRANCH   3  20
ATOM     20  C   UNL d   1     -55.334 -99.602 -43.808  0.00  0.00     0.005 A 
ATOM     21  C   UNL d   1     -56.103 -99.561 -44.076  0.00  0.00     0.001 A 
ATOM     22  C   UNL d   1     -56.255 -99.286 -44.825  0.00  0.00     0.011 A 
ATOM     23  C   UNL d   1     -55.642 -99.049 -45.317  0.00  0.00     0.058 A 
ATOM     24  C   UNL d   1     -54.873 -99.090 -45.049  0.00  0.00     0.011 A 
ATOM     25 CL   UNL d   1     -55.805 -98.757 -46.115  0.00  0.00    -0.082 Cl
ATOM     26  C   UNL d   1     -54.718 -99.369 -44.288  0.00  0.00     0.001 A 
ENDBRANCH   3  20
TORSDOF 5
ENDMDL
