MODEL 1
REMARK VINA RESULT:      78.6      0.000      0.000
REMARK  2 active torsions:
REMARK  status: ('A' for Active; 'I' for Inactive)
REMARK       I    between atoms: N_4  and  C_1 
REMARK    1  A    between atoms: C_5  and  C_1 
REMARK       I    between atoms: C_2  and  N_3 
REMARK    2  A    between atoms: C_6  and  C_2 
ROOT
ATOM      1  C   UNL d   1     -51.088  26.636  33.553  0.00  0.00     0.265 C 
ATOM      2  C   UNL d   1     -48.866  29.083  34.709  0.00  0.00     0.265 C 
ATOM      3  N   UNL d   1     -49.127  28.336  34.517  0.00  0.00    -0.270 N 
ATOM      4  N   UNL d   1     -50.393  27.131  33.882  0.00  0.00    -0.270 N 
ATOM      5  C   UNL d   1     -49.908  28.496  34.234  0.00  0.00     0.102 A 
ATOM      6  C   UNL d   1     -50.492  27.932  33.940  0.00  0.00     0.102 A 
ATOM      7  O   UNL d   1     -51.857  27.062  33.306  0.00  0.00    -0.267 OA
ATOM      8  O   UNL d   1     -49.345  29.720  34.600  0.00  0.00    -0.267 OA
ATOM      9  C   UNL d   1     -49.064  27.006  34.381  0.00  0.00     0.038 A 
ATOM     10  C   UNL d   1     -49.793  26.772  34.071  0.00  0.00     0.085 A 
ATOM     11  C   UNL d   1     -48.776  27.605  34.565  0.00  0.00     0.085 A 
ENDROOT
BRANCH   2  12
ATOM     12  C   UNL d   1     -48.115  29.174  35.011  0.00  0.00     0.057 A 
ATOM     13  C   UNL d   1     -48.023  29.559  35.707  0.00  0.00     0.005 A 
ATOM     14  C   UNL d   1     -47.275  29.655  36.016  0.00  0.00     0.000 A 
ATOM     15  C   UNL d   1     -47.165  30.043  36.721  0.00  0.00     0.000 C 
ATOM     16  C   UNL d   1     -46.633  29.358  35.617  0.00  0.00     0.000 A 
ATOM     17  C   UNL d   1     -46.737  28.969  34.914  0.00  0.00     0.000 A 
ATOM     18  C   UNL d   1     -47.478  28.877  34.611  0.00  0.00     0.005 A 
ENDBRANCH   2  12
BRANCH   1  19
ATOM     19  C   UNL d   1     -50.958  25.732  33.494  0.00  0.00     0.057 A 
ATOM     20  C   UNL d   1     -51.662  25.170  33.563  0.00  0.00     0.005 A 
ATOM     21  C   UNL d   1     -51.535  24.272  33.505  0.00  0.00     0.000 A 
ATOM     22  C   UNL d   1     -52.226  23.690  33.572  0.00  0.00     0.000 C 
ATOM     23  C   UNL d   1     -50.695  23.936  33.377  0.00  0.00     0.000 A 
ATOM     24  C   UNL d   1     -49.987  24.510  33.307  0.00  0.00     0.000 A 
ATOM     25  C   UNL d   1     -50.118  25.411  33.366  0.00  0.00     0.005 A 
ENDBRANCH   1  19
TORSDOF 2
ENDMDL
MODEL 2
REMARK VINA RESULT:      79.6      1.132      1.641
REMARK  2 active torsions:
REMARK  status: ('A' for Active; 'I' for Inactive)
REMARK       I    between atoms: N_4  and  C_1 
REMARK    1  A    between atoms: C_5  and  C_1 
REMARK       I    between atoms: C_2  and  N_3 
REMARK    2  A    between atoms: C_6  and  C_2 
ROOT
ATOM      1  C   UNL d   1     -50.146  25.422  33.523  0.00  0.00     0.265 C 
ATOM      2  C   UNL d   1     -48.069  28.022  34.613  0.00  0.00     0.265 C 
ATOM      3  N   UNL d   1     -48.767  27.646  34.425  0.00  0.00    -0.270 N 
ATOM      4  N   UNL d   1     -49.763  26.194  33.829  0.00  0.00    -0.270 N 
ATOM      5  C   UNL d   1     -48.490  26.887  34.175  0.00  0.00     0.102 A 
ATOM      6  C   UNL d   1     -48.957  26.216  33.898  0.00  0.00     0.102 A 
ATOM      7  O   UNL d   1     -49.608  24.715  33.311  0.00  0.00    -0.267 OA
ATOM      8  O   UNL d   1     -47.368  27.637  34.529  0.00  0.00    -0.267 OA
ATOM      9  C   UNL d   1     -50.089  27.508  34.274  0.00  0.00     0.038 A 
ATOM     10  C   UNL d   1     -50.210  26.742  33.991  0.00  0.00     0.085 A 
ATOM     11  C   UNL d   1     -49.542  27.887  34.452  0.00  0.00     0.085 A 
ENDROOT
BRANCH   2  12
ATOM     12  C   UNL d   1     -48.095  28.789  34.886  0.00  0.00     0.057 A 
ATOM     13  C   UNL d   1     -47.631  28.993  35.506  0.00  0.00     0.005 A 
ATOM     14  C   UNL d   1     -47.649  29.758  35.786  0.00  0.00     0.000 A 
ATOM     15  C   UNL d   1     -47.185  29.981  36.414  0.00  0.00     0.000 C 
ATOM     16  C   UNL d   1     -48.136  30.304  35.434  0.00  0.00     0.000 A 
ATOM     17  C   UNL d   1     -48.602  30.088  34.807  0.00  0.00     0.000 A 
ATOM     18  C   UNL d   1     -48.581  29.329  34.533  0.00  0.00     0.005 A 
ENDBRANCH   2  12
BRANCH   1  19
ATOM     19  C   UNL d   1     -51.059  25.415  33.450  0.00  0.00     0.057 A 
ATOM     20  C   UNL d   1     -51.505  24.630  33.452  0.00  0.00     0.005 A 
ATOM     21  C   UNL d   1     -52.411  24.621  33.380  0.00  0.00     0.000 A 
ATOM     22  C   UNL d   1     -52.879  23.845  33.380  0.00  0.00     0.000 C 
ATOM     23  C   UNL d   1     -52.872  25.407  33.306  0.00  0.00     0.000 A 
ATOM     24  C   UNL d   1     -52.415  26.198  33.306  0.00  0.00     0.000 A 
ATOM     25  C   UNL d   1     -51.505  26.203  33.378  0.00  0.00     0.005 A 
ENDBRANCH   1  19
TORSDOF 2
ENDMDL
MODEL 3
REMARK VINA RESULT:      80.3      1.307      1.928
REMARK  2 active torsions:
REMARK  status: ('A' for Active; 'I' for Inactive)
REMARK       I    between atoms: N_4  and  C_1 
REMARK    1  A    between atoms: C_5  and  C_1 
REMARK       I    between atoms: C_2  and  N_3 
REMARK    2  A    between atoms: C_6  and  C_2 
ROOT
ATOM      1  C   UNL d   1     -49.383  26.362  33.633  0.00  0.00     0.265 C 
ATOM      2  C   UNL d   1     -47.392  28.898  35.001  0.00  0.00     0.265 C 
ATOM      3  N   UNL d   1     -48.075  28.528  34.757  0.00  0.00    -0.270 N 
ATOM      4  N   UNL d   1     -49.025  27.114  34.012  0.00  0.00    -0.270 N 
ATOM      5  C   UNL d   1     -47.777  27.795  34.460  0.00  0.00     0.102 A 
ATOM      6  C   UNL d   1     -48.223  27.141  34.115  0.00  0.00     0.102 A 
ATOM      7  O   UNL d   1     -48.826  25.681  33.388  0.00  0.00    -0.267 OA
ATOM      8  O   UNL d   1     -46.682  28.530  34.915  0.00  0.00    -0.267 OA
ATOM      9  C   UNL d   1     -49.389  28.384  34.544  0.00  0.00     0.038 A 
ATOM     10  C   UNL d   1     -49.486  27.641  34.198  0.00  0.00     0.085 A 
ATOM     11  C   UNL d   1     -48.855  28.756  34.772  0.00  0.00     0.085 A 
ENDROOT
BRANCH   2  12
ATOM     12  C   UNL d   1     -47.440  29.641  35.331  0.00  0.00     0.057 A 
ATOM     13  C   UNL d   1     -47.421  30.279  34.847  0.00  0.00     0.005 A 
ATOM     14  C   UNL d   1     -47.469  31.026  35.168  0.00  0.00     0.000 A 
ATOM     15  C   UNL d   1     -47.450  31.683  34.691  0.00  0.00     0.000 C 
ATOM     16  C   UNL d   1     -47.535  31.116  35.972  0.00  0.00     0.000 A 
ATOM     17  C   UNL d   1     -47.554  30.464  36.453  0.00  0.00     0.000 A 
ATOM     18  C   UNL d   1     -47.507  29.726  36.131  0.00  0.00     0.005 A 
ENDBRANCH   2  12
BRANCH   1  19
ATOM     19  C   UNL d   1     -50.292  26.349  33.524  0.00  0.00     0.057 A 
ATOM     20  C   UNL d   1     -50.727  25.560  33.471  0.00  0.00     0.005 A 
ATOM     21  C   UNL d   1     -51.630  25.544  33.363  0.00  0.00     0.000 A 
ATOM     22  C   UNL d   1     -52.087  24.764  33.307  0.00  0.00     0.000 C 
ATOM     23  C   UNL d   1     -52.098  26.327  33.309  0.00  0.00     0.000 A 
ATOM     24  C   UNL d   1     -51.651  27.123  33.364  0.00  0.00     0.000 A 
ATOM     25  C   UNL d   1     -50.745  27.135  33.472  0.00  0.00     0.005 A 
ENDBRANCH   1  19
TORSDOF 2
ENDMDL
