MODEL 1
REMARK VINA RESULT:      46.2      0.000      0.000
REMARK  5 active torsions:
REMARK  status: ('A' for Active; 'I' for Inactive)
REMARK    1  A    between atoms: N_3  and  C_1 
REMARK       I    between atoms: C_7  and  N_3 
REMARK    2  A    between atoms: S_9  and  C_4 
REMARK    3  A    between atoms: C_8  and  C_7 
REMARK    4  A    between atoms: C_13  and  S_9 
REMARK    5  A    between atoms: C_16  and  C_13 
ROOT
ATOM      1  C   UNL d   1      13.273  13.804  -4.947  0.00  0.00     0.219 A 
ATOM      2  S   UNL d   1      13.234  13.603  -4.112  0.00  0.00    -0.019 SA
ATOM      3  C   UNL d   1      13.050  12.754  -4.078  0.00  0.00     0.165 A 
ATOM      4  N   UNL d   1      13.137  13.189  -5.283  0.00  0.00    -0.120 NA
ATOM      5  N   UNL d   1      12.999  12.540  -4.732  0.00  0.00    -0.133 NA
ENDROOT
BRANCH   1   6
ATOM      6  N   UNL d   1      13.452  14.637  -5.296  0.00  0.00    -0.181 NA
ATOM      7  C   UNL d   1      13.837  15.237  -4.823  0.00  0.00     0.281 C 
ATOM      8  O   UNL d   1      14.009  15.074  -4.172  0.00  0.00    -0.265 OA
BRANCH   7   9
ATOM      9  C   UNL d   1      14.048  16.005  -5.014  0.00  0.00     0.058 A 
ATOM     10  C   UNL d   1      14.546  16.428  -4.513  0.00  0.00     0.006 A 
ATOM     11  C   UNL d   1      14.759  17.207  -4.709  0.00  0.00     0.012 A 
ATOM     12  C   UNL d   1      14.464  17.546  -5.409  0.00  0.00     0.058 A 
ATOM     13  C   UNL d   1      13.966  17.106  -5.898  0.00  0.00     0.012 A 
ATOM     14 CL   UNL d   1      14.742  18.371  -5.533  0.00  0.00    -0.082 Cl
ATOM     15  C   UNL d   1      13.761  16.337  -5.697  0.00  0.00     0.006 A 
ENDBRANCH   7   9
ENDBRANCH   1   6
BRANCH   3  16
ATOM     16  S   UNL d   1      12.926  12.166  -3.400  0.00  0.00    -0.059 SA
BRANCH  16  17
ATOM     17  C   UNL d   1      13.553  11.796  -3.244  0.00  0.00     0.037 C 
BRANCH  17  18
ATOM     18  C   UNL d   1      13.850  11.795  -2.483  0.00  0.00     0.007 A 
ATOM     19  C   UNL d   1      13.351  11.780  -1.833  0.00  0.00     0.001 A 
ATOM     20  C   UNL d   1      13.652  11.779  -1.061  0.00  0.00     0.007 A 
ATOM     21  C   UNL d   1      14.473  11.793  -0.950  0.00  0.00     0.035 A 
ATOM     22  C   UNL d   1      14.990  11.808  -1.614  0.00  0.00     0.007 A 
ATOM     23 BR   UNL d   1      14.875  11.792  -0.014  0.00  0.00    -0.049 Br
ATOM     24  C   UNL d   1      14.650  11.808  -2.376  0.00  0.00     0.001 A 
ENDBRANCH  17  18
ENDBRANCH  16  17
ENDBRANCH   3  16
TORSDOF 5
ENDMDL
MODEL 2
REMARK VINA RESULT:      47.0      3.357      3.963
REMARK  5 active torsions:
REMARK  status: ('A' for Active; 'I' for Inactive)
REMARK    1  A    between atoms: N_3  and  C_1 
REMARK       I    between atoms: C_7  and  N_3 
REMARK    2  A    between atoms: S_9  and  C_4 
REMARK    3  A    between atoms: C_8  and  C_7 
REMARK    4  A    between atoms: C_13  and  S_9 
REMARK    5  A    between atoms: C_16  and  C_13 
ROOT
ATOM      1  C   UNL d   1      15.244  13.672  -0.685  0.00  0.00     0.219 A 
ATOM      2  S   UNL d   1      14.942  13.369  -1.430  0.00  0.00    -0.019 SA
ATOM      3  C   UNL d   1      14.721  12.542  -1.279  0.00  0.00     0.165 A 
ATOM      4  N   UNL d   1      15.192  13.120  -0.235  0.00  0.00    -0.120 NA
ATOM      5  N   UNL d   1      14.865  12.419  -0.615  0.00  0.00    -0.133 NA
ENDROOT
BRANCH   1   6
ATOM      6  N   UNL d   1      15.556  14.526  -0.535  0.00  0.00    -0.181 NA
ATOM      7  C   UNL d   1      15.156  15.204  -0.868  0.00  0.00     0.281 C 
ATOM      8  O   UNL d   1      14.592  15.089  -1.254  0.00  0.00    -0.265 OA
BRANCH   7   9
ATOM      9  C   UNL d   1      15.331  16.002  -0.810  0.00  0.00     0.058 A 
ATOM     10  C   UNL d   1      16.083  16.240  -0.574  0.00  0.00     0.006 A 
ATOM     11  C   UNL d   1      16.256  17.051  -0.516  0.00  0.00     0.012 A 
ATOM     12  C   UNL d   1      15.666  17.608  -0.698  0.00  0.00     0.058 A 
ATOM     13  C   UNL d   1      14.919  17.350  -0.933  0.00  0.00     0.012 A 
ATOM     14 CL   UNL d   1      15.941  18.439  -0.608  0.00  0.00    -0.082 Cl
ATOM     15  C   UNL d   1      14.756  16.548  -0.988  0.00  0.00     0.006 A 
ENDBRANCH   7   9
ENDBRANCH   1   6
BRANCH   3  16
ATOM     16  S   UNL d   1      14.370  11.883  -1.793  0.00  0.00    -0.059 SA
BRANCH  16  17
ATOM     17  C   UNL d   1      13.681  12.053  -2.021  0.00  0.00     0.037 C 
BRANCH  17  18
ATOM     18  C   UNL d   1      13.530  12.175  -2.813  0.00  0.00     0.007 A 
ATOM     19  C   UNL d   1      12.922  11.779  -3.195  0.00  0.00     0.001 A 
ATOM     20  C   UNL d   1      12.769  11.902  -4.000  0.00  0.00     0.007 A 
ATOM     21  C   UNL d   1      13.241  12.436  -4.422  0.00  0.00     0.035 A 
ATOM     22  C   UNL d   1      13.867  12.846  -4.035  0.00  0.00     0.007 A 
ATOM     23 BR   UNL d   1      13.078  12.610  -5.412  0.00  0.00    -0.049 Br
ATOM     24  C   UNL d   1      13.991  12.695  -3.224  0.00  0.00     0.001 A 
ENDBRANCH  17  18
ENDBRANCH  16  17
ENDBRANCH   3  16
TORSDOF 5
ENDMDL
