MODEL 1
REMARK VINA RESULT:      -3.1      0.000      0.000
REMARK  2 active torsions:
REMARK  status: ('A' for Active; 'I' for Inactive)
REMARK    1  A    between atoms: C_6  and  C_1 
REMARK    2  A    between atoms: O_12  and  C_9 
ROOT
ATOM      1  C   UNL d   1      29.320  16.575 -24.063  0.00  0.00     0.128 A 
ATOM      2  C   UNL d   1      29.420  17.263 -24.508  0.00  0.00     0.306 A 
ATOM      3  O   UNL d   1      30.159  17.571 -24.615  0.00  0.00    -0.271 OA
ATOM      4  C   UNL d   1      29.962  16.214 -23.737  0.00  0.00     0.013 A 
ATOM      5  C   UNL d   1      30.840  17.205 -24.279  0.00  0.00     0.125 A 
ATOM      6  C   UNL d   1      30.740  16.517 -23.834  0.00  0.00     0.025 A 
ATOM      7  O   UNL d   1      28.779  17.627 -24.837  0.00  0.00    -0.259 OA
ATOM      8  C   UNL d   1      31.601  17.512 -24.382  0.00  0.00     0.117 A 
ATOM      9  C   UNL d   1      31.404  16.156 -23.504  0.00  0.00     0.002 A 
ATOM     10  C   UNL d   1      32.169  16.459 -23.604  0.00  0.00     0.002 A 
ATOM     11  C   UNL d   1      32.269  17.147 -24.049  0.00  0.00     0.026 A 
ENDROOT
BRANCH   1  12
ATOM     12  C   UNL d   1      28.578  16.245 -23.943  0.00  0.00     0.216 C 
ATOM     13  O   UNL d   1      28.067  16.532 -23.331  0.00  0.00    -0.644 OA
ATOM     14  O   UNL d   1      28.395  15.648 -24.441  0.00  0.00    -0.644 OA
ENDBRANCH   1  12
BRANCH   8  15
ATOM     15  O   UNL d   1      31.700  18.193 -24.822  0.00  0.00    -0.326 OA
ATOM     16  C   UNL d   1      32.439  18.504 -24.931  0.00  0.00     0.181 C 
ENDBRANCH   8  15
TORSDOF 2
ENDMDL
MODEL 2
REMARK VINA RESULT:      -3.0      1.105      1.704
REMARK  2 active torsions:
REMARK  status: ('A' for Active; 'I' for Inactive)
REMARK    1  A    between atoms: C_6  and  C_1 
REMARK    2  A    between atoms: O_12  and  C_9 
ROOT
ATOM      1  C   UNL d   1      29.187  16.253 -23.707  0.00  0.00     0.128 A 
ATOM      2  C   UNL d   1      29.718  15.922 -23.170  0.00  0.00     0.306 A 
ATOM      3  O   UNL d   1      30.510  16.068 -23.242  0.00  0.00    -0.271 OA
ATOM      4  C   UNL d   1      29.462  16.721 -24.303  0.00  0.00     0.013 A 
ATOM      5  C   UNL d   1      30.812  16.556 -23.859  0.00  0.00     0.125 A 
ATOM      6  C   UNL d   1      30.281  16.887 -24.397  0.00  0.00     0.025 A 
ATOM      7  O   UNL d   1      29.447  15.453 -22.571  0.00  0.00    -0.259 OA
ATOM      8  C   UNL d   1      31.621  16.712 -23.942  0.00  0.00     0.117 A 
ATOM      9  C   UNL d   1      30.573  17.365 -25.003  0.00  0.00     0.002 A 
ATOM     10  C   UNL d   1      31.381  17.524 -25.091  0.00  0.00     0.002 A 
ATOM     11  C   UNL d   1      31.912  17.193 -24.553  0.00  0.00     0.026 A 
ENDROOT
BRANCH   1  12
ATOM     12  C   UNL d   1      28.380  16.118 -23.653  0.00  0.00     0.216 C 
ATOM     13  O   UNL d   1      28.022  15.453 -24.035  0.00  0.00    -0.644 OA
ATOM     14  O   UNL d   1      27.981  16.657 -23.219  0.00  0.00    -0.644 OA
ENDBRANCH   1  12
BRANCH   8  15
ATOM     15  O   UNL d   1      32.146  16.384 -23.410  0.00  0.00    -0.326 OA
ATOM     16  C   UNL d   1      32.942  16.497 -23.500  0.00  0.00     0.181 C 
ENDBRANCH   8  15
TORSDOF 2
ENDMDL
MODEL 3
REMARK VINA RESULT:      -2.6      1.179      3.006
REMARK  2 active torsions:
REMARK  status: ('A' for Active; 'I' for Inactive)
REMARK    1  A    between atoms: C_6  and  C_1 
REMARK    2  A    between atoms: O_12  and  C_9 
ROOT
ATOM      1  C   UNL d   1      32.090  16.550 -23.779  0.00  0.00     0.128 A 
ATOM      2  C   UNL d   1      31.896  17.228 -24.206  0.00  0.00     0.306 A 
ATOM      3  O   UNL d   1      31.123  17.388 -24.381  0.00  0.00    -0.271 OA
ATOM      4  C   UNL d   1      31.507  16.049 -23.538  0.00  0.00     0.013 A 
ATOM      5  C   UNL d   1      30.502  16.873 -24.135  0.00  0.00     0.125 A 
ATOM      6  C   UNL d   1      30.697  16.195 -23.708  0.00  0.00     0.025 A 
ATOM      7  O   UNL d   1      32.477  17.733 -24.450  0.00  0.00    -0.259 OA
ATOM      8  C   UNL d   1      29.708  17.028 -24.308  0.00  0.00     0.117 A 
ATOM      9  C   UNL d   1      30.092  15.689 -23.466  0.00  0.00     0.002 A 
ATOM     10  C   UNL d   1      29.295  15.838 -23.636  0.00  0.00     0.002 A 
ATOM     11  C   UNL d   1      29.100  16.517 -24.063  0.00  0.00     0.026 A 
ENDROOT
BRANCH   1  12
ATOM     12  C   UNL d   1      32.868  16.368 -23.592  0.00  0.00     0.216 C 
ATOM     13  O   UNL d   1      33.233  16.681 -22.894  0.00  0.00    -0.644 OA
ATOM     14  O   UNL d   1      33.233  15.885 -24.113  0.00  0.00    -0.644 OA
ENDBRANCH   1  12
BRANCH   8  15
ATOM     15  O   UNL d   1      29.515  17.699 -24.730  0.00  0.00    -0.326 OA
ATOM     16  C   UNL d   1      28.741  17.920 -24.815  0.00  0.00     0.181 C 
ENDBRANCH   8  15
TORSDOF 2
ENDMDL
MODEL 4
REMARK VINA RESULT:      -2.3      1.485      2.510
REMARK  2 active torsions:
REMARK  status: ('A' for Active; 'I' for Inactive)
REMARK    1  A    between atoms: C_6  and  C_1 
REMARK    2  A    between atoms: O_12  and  C_9 
ROOT
ATOM      1  C   UNL d   1      31.148  17.141 -24.444  0.00  0.00     0.128 A 
ATOM      2  C   UNL d   1      31.314  17.058 -23.640  0.00  0.00     0.306 A 
ATOM      3  O   UNL d   1      31.862  17.538 -23.288  0.00  0.00    -0.271 OA
ATOM      4  C   UNL d   1      31.536  17.701 -24.875  0.00  0.00     0.013 A 
ATOM      5  C   UNL d   1      32.275  18.127 -23.727  0.00  0.00     0.125 A 
ATOM      6  C   UNL d   1      32.109  18.210 -24.531  0.00  0.00     0.025 A 
ATOM      7  O   UNL d   1      30.928  16.499 -23.203  0.00  0.00    -0.259 OA
ATOM      8  C   UNL d   1      32.837  18.623 -23.378  0.00  0.00     0.117 A 
ATOM      9  C   UNL d   1      32.511  18.786 -24.964  0.00  0.00     0.002 A 
ATOM     10  C   UNL d   1      33.076  19.285 -24.620  0.00  0.00     0.002 A 
ATOM     11  C   UNL d   1      33.241  19.202 -23.816  0.00  0.00     0.026 A 
ENDROOT
BRANCH   1  12
ATOM     12  C   UNL d   1      30.596  16.665 -24.820  0.00  0.00     0.216 C 
ATOM     13  O   UNL d   1      30.802  15.892 -25.097  0.00  0.00    -0.644 OA
ATOM     14  O   UNL d   1      29.871  16.993 -24.896  0.00  0.00    -0.644 OA
ENDBRANCH   1  12
BRANCH   8  15
ATOM     15  O   UNL d   1      33.001  18.541 -22.582  0.00  0.00    -0.326 OA
ATOM     16  C   UNL d   1      33.220  19.184 -22.143  0.00  0.00     0.181 C 
ENDBRANCH   8  15
TORSDOF 2
ENDMDL
MODEL 5
REMARK VINA RESULT:      -2.0      3.901      5.231
REMARK  2 active torsions:
REMARK  status: ('A' for Active; 'I' for Inactive)
REMARK    1  A    between atoms: C_6  and  C_1 
REMARK    2  A    between atoms: O_12  and  C_9 
ROOT
ATOM      1  C   UNL d   1      32.898  19.566 -22.632  0.00  0.00     0.128 A 
ATOM      2  C   UNL d   1      33.060  20.128 -23.214  0.00  0.00     0.306 A 
ATOM      3  O   UNL d   1      33.120  20.909 -23.016  0.00  0.00    -0.271 OA
ATOM      4  C   UNL d   1      32.800  19.800 -21.868  0.00  0.00     0.013 A 
ATOM      5  C   UNL d   1      33.020  21.169 -22.220  0.00  0.00     0.125 A 
ATOM      6  C   UNL d   1      32.858  20.607 -21.638  0.00  0.00     0.025 A 
ATOM      7  O   UNL d   1      33.159  19.898 -23.982  0.00  0.00    -0.259 OA
ATOM      8  C   UNL d   1      33.079  21.966 -22.006  0.00  0.00     0.117 A 
ATOM      9  C   UNL d   1      32.759  20.857 -20.858  0.00  0.00     0.002 A 
ATOM     10  C   UNL d   1      32.817  21.654 -20.638  0.00  0.00     0.002 A 
ATOM     11  C   UNL d   1      32.979  22.216 -21.220  0.00  0.00     0.026 A 
ENDROOT
BRANCH   1  12
ATOM     12  C   UNL d   1      32.833  18.768 -22.812  0.00  0.00     0.216 C 
ATOM     13  O   UNL d   1      32.366  18.505 -23.467  0.00  0.00    -0.644 OA
ATOM     14  O   UNL d   1      33.240  18.283 -22.324  0.00  0.00    -0.644 OA
ENDBRANCH   1  12
BRANCH   8  15
ATOM     15  O   UNL d   1      33.239  22.522 -22.582  0.00  0.00    -0.326 OA
ATOM     16  C   UNL d   1      33.189  23.311 -22.412  0.00  0.00     0.181 C 
ENDBRANCH   8  15
TORSDOF 2
ENDMDL
MODEL 6
REMARK VINA RESULT:      -1.8      4.897      6.447
REMARK  2 active torsions:
REMARK  status: ('A' for Active; 'I' for Inactive)
REMARK    1  A    between atoms: C_6  and  C_1 
REMARK    2  A    between atoms: O_12  and  C_9 
ROOT
ATOM      1  C   UNL d   1      32.675  22.649 -21.192  0.00  0.00     0.128 A 
ATOM      2  C   UNL d   1      32.657  21.927 -20.794  0.00  0.00     0.306 A 
ATOM      3  O   UNL d   1      32.785  21.239 -21.199  0.00  0.00    -0.271 OA
ATOM      4  C   UNL d   1      32.821  22.665 -21.984  0.00  0.00     0.013 A 
ATOM      5  C   UNL d   1      32.939  21.240 -22.028  0.00  0.00     0.125 A 
ATOM      6  C   UNL d   1      32.957  21.962 -22.426  0.00  0.00     0.025 A 
ATOM      7  O   UNL d   1      32.511  21.906 -20.000  0.00  0.00    -0.259 OA
ATOM      8  C   UNL d   1      33.071  20.542 -22.452  0.00  0.00     0.117 A 
ATOM      9  C   UNL d   1      33.107  21.968 -23.237  0.00  0.00     0.002 A 
ATOM     10  C   UNL d   1      33.240  21.272 -23.667  0.00  0.00     0.002 A 
ATOM     11  C   UNL d   1      33.222  20.550 -23.269  0.00  0.00     0.026 A 
ENDROOT
BRANCH   1  12
ATOM     12  C   UNL d   1      32.548  23.359 -20.801  0.00  0.00     0.216 C 
ATOM     13  O   UNL d   1      33.139  23.688 -20.291  0.00  0.00    -0.644 OA
ATOM     14  O   UNL d   1      31.838  23.695 -20.943  0.00  0.00    -0.644 OA
ENDBRANCH   1  12
BRANCH   8  15
ATOM     15  O   UNL d   1      33.053  19.827 -22.059  0.00  0.00    -0.326 OA
ATOM     16  C   UNL d   1      33.210  19.139 -22.455  0.00  0.00     0.181 C 
ENDBRANCH   8  15
TORSDOF 2
ENDMDL
MODEL 7
REMARK VINA RESULT:      -1.8      5.331      6.673
REMARK  2 active torsions:
REMARK  status: ('A' for Active; 'I' for Inactive)
REMARK    1  A    between atoms: C_6  and  C_1 
REMARK    2  A    between atoms: O_12  and  C_9 
ROOT
ATOM      1  C   UNL d   1      32.925  20.893 -21.873  0.00  0.00     0.128 A 
ATOM      2  C   UNL d   1      33.051  20.737 -21.073  0.00  0.00     0.306 A 
ATOM      3  O   UNL d   1      32.984  21.332 -20.530  0.00  0.00    -0.271 OA
ATOM      4  C   UNL d   1      32.736  21.640 -22.109  0.00  0.00     0.013 A 
ATOM      5  C   UNL d   1      32.787  22.118 -20.762  0.00  0.00     0.125 A 
ATOM      6  C   UNL d   1      32.661  22.274 -21.563  0.00  0.00     0.025 A 
ATOM      7  O   UNL d   1      33.240  19.990 -20.831  0.00  0.00    -0.259 OA
ATOM      8  C   UNL d   1      32.716  22.735 -20.215  0.00  0.00     0.117 A 
ATOM      9  C   UNL d   1      32.468  23.042 -21.794  0.00  0.00     0.002 A 
ATOM     10  C   UNL d   1      32.396  23.663 -21.250  0.00  0.00     0.002 A 
ATOM     11  C   UNL d   1      32.522  23.507 -20.450  0.00  0.00     0.026 A 
ENDROOT
BRANCH   1  12
ATOM     12  C   UNL d   1      32.988  20.304 -22.441  0.00  0.00     0.216 C 
ATOM     13  O   UNL d   1      33.241  20.483 -23.229  0.00  0.00    -0.644 OA
ATOM     14  O   UNL d   1      32.793  19.573 -22.185  0.00  0.00    -0.644 OA
ENDBRANCH   1  12
BRANCH   8  15
ATOM     15  O   UNL d   1      32.840  22.580 -19.423  0.00  0.00    -0.326 OA
ATOM     16  C   UNL d   1      33.124  23.160 -18.934  0.00  0.00     0.181 C 
ENDBRANCH   8  15
TORSDOF 2
ENDMDL
MODEL 8
REMARK VINA RESULT:      -1.6      5.644      7.184
REMARK  2 active torsions:
REMARK  status: ('A' for Active; 'I' for Inactive)
REMARK    1  A    between atoms: C_6  and  C_1 
REMARK    2  A    between atoms: O_12  and  C_9 
ROOT
ATOM      1  C   UNL d   1      32.707  23.116 -20.680  0.00  0.00     0.128 A 
ATOM      2  C   UNL d   1      32.829  22.301 -20.726  0.00  0.00     0.306 A 
ATOM      3  O   UNL d   1      32.963  21.953 -21.443  0.00  0.00    -0.271 OA
ATOM      4  C   UNL d   1      32.723  23.561 -21.351  0.00  0.00     0.013 A 
ATOM      5  C   UNL d   1      32.982  22.406 -22.154  0.00  0.00     0.125 A 
ATOM      6  C   UNL d   1      32.861  23.221 -22.107  0.00  0.00     0.025 A 
ATOM      7  O   UNL d   1      32.814  21.851 -20.056  0.00  0.00    -0.259 OA
ATOM      8  C   UNL d   1      33.119  22.060 -22.893  0.00  0.00     0.117 A 
ATOM      9  C   UNL d   1      32.879  23.667 -22.801  0.00  0.00     0.002 A 
ATOM     10  C   UNL d   1      33.015  23.326 -23.543  0.00  0.00     0.002 A 
ATOM     11  C   UNL d   1      33.137  22.512 -23.590  0.00  0.00     0.026 A 
ENDROOT
BRANCH   1  12
ATOM     12  C   UNL d   1      32.569  23.489 -19.962  0.00  0.00     0.216 C 
ATOM     13  O   UNL d   1      31.779  23.630 -19.689  0.00  0.00    -0.644 OA
ATOM     14  O   UNL d   1      33.228  23.699 -19.563  0.00  0.00    -0.644 OA
ENDBRANCH   1  12
BRANCH   8  15
ATOM     15  O   UNL d   1      33.240  21.254 -22.939  0.00  0.00    -0.326 OA
ATOM     16  C   UNL d   1      33.217  20.879 -23.656  0.00  0.00     0.181 C 
ENDBRANCH   8  15
TORSDOF 2
ENDMDL
MODEL 9
REMARK VINA RESULT:      -1.2      2.857      4.375
REMARK  2 active torsions:
REMARK  status: ('A' for Active; 'I' for Inactive)
REMARK    1  A    between atoms: C_6  and  C_1 
REMARK    2  A    between atoms: O_12  and  C_9 
ROOT
ATOM      1  C   UNL d   1      32.800  18.577 -23.870  0.00  0.00     0.128 A 
ATOM      2  C   UNL d   1      32.857  18.324 -23.087  0.00  0.00     0.306 A 
ATOM      3  O   UNL d   1      32.963  18.864 -22.495  0.00  0.00    -0.271 OA
ATOM      4  C   UNL d   1      32.852  19.363 -24.040  0.00  0.00     0.013 A 
ATOM      5  C   UNL d   1      33.019  19.689 -22.657  0.00  0.00     0.125 A 
ATOM      6  C   UNL d   1      32.963  19.942 -23.441  0.00  0.00     0.025 A 
ATOM      7  O   UNL d   1      32.805  17.538 -22.912  0.00  0.00    -0.259 OA
ATOM      8  C   UNL d   1      33.129  20.249 -22.059  0.00  0.00     0.117 A 
ATOM      9  C   UNL d   1      33.017  20.749 -23.604  0.00  0.00     0.002 A 
ATOM     10  C   UNL d   1      33.126  21.315 -23.009  0.00  0.00     0.002 A 
ATOM     11  C   UNL d   1      33.183  21.062 -22.226  0.00  0.00     0.026 A 
ENDROOT
BRANCH   1  12
ATOM     12  C   UNL d   1      32.692  18.047 -24.487  0.00  0.00     0.216 C 
ATOM     13  O   UNL d   1      32.050  17.494 -24.478  0.00  0.00    -0.644 OA
ATOM     14  O   UNL d   1      33.231  18.102 -25.073  0.00  0.00    -0.644 OA
ENDBRANCH   1  12
BRANCH   8  15
ATOM     15  O   UNL d   1      33.184  19.999 -21.284  0.00  0.00    -0.326 OA
ATOM     16  C   UNL d   1      33.211  20.539 -20.682  0.00  0.00     0.181 C 
ENDBRANCH   8  15
TORSDOF 2
ENDMDL
