MODEL 1
REMARK VINA RESULT:      42.1      0.000      0.000
REMARK  3 active torsions:
REMARK  status: ('A' for Active; 'I' for Inactive)
REMARK    1  A    between atoms: N_6  and  C_2 
REMARK    2  A    between atoms: C_8  and  C_5 
REMARK    3  A    between atoms: C_9  and  N_7 
ROOT
ATOM      1  N   UNL d   1     -54.751-101.337 -41.097  0.00  0.00    -0.281 N 
ATOM      2  N   UNL d   1     -54.755-101.709 -39.499  0.00  0.00    -0.301 N 
ATOM      3  C   UNL d   1     -54.780-102.128 -40.863  0.00  0.00     0.101 A 
ATOM      4  C   UNL d   1     -54.724-100.731 -40.528  0.00  0.00     0.101 A 
ATOM      5  C   UNL d   1     -54.726-100.928 -39.738  0.00  0.00     0.100 A 
ATOM      6  C   UNL d   1     -54.782-102.309 -40.069  0.00  0.00     0.100 A 
ENDROOT
BRANCH   1   7
ATOM      7  C   UNL d   1     -54.749-101.151 -41.903  0.00  0.00     0.183 A 
ATOM      8  N   UNL d   1     -54.727-101.683 -42.526  0.00  0.00    -0.183 NA
ATOM      9  C   UNL d   1     -54.733-101.255 -43.234  0.00  0.00     0.287 A 
ATOM     10  C   UNL d   1     -54.760-100.451 -43.037  0.00  0.00     0.090 A 
ATOM     11  O   UNL d   1     -54.716-101.570 -43.987  0.00  0.00    -0.265 OA
ATOM     12  S   UNL d   1     -54.770-100.382 -42.219  0.00  0.00    -0.045 SA
BRANCH  10  13
ATOM     13  C   UNL d   1     -54.774 -99.829 -43.578  0.00  0.00     0.011 C 
ATOM     14  C   UNL d   1     -54.713 -99.974 -44.389  0.00  0.00     0.001 C 
ATOM     15  C   UNL d   1     -54.849 -99.053 -43.308  0.00  0.00     0.001 C 
ENDBRANCH  10  13
ENDBRANCH   1   7
BRANCH   2  16
ATOM     16  C   UNL d   1     -54.757-101.898 -38.693  0.00  0.00     0.064 A 
ATOM     17  C   UNL d   1     -54.713-101.294 -38.134  0.00  0.00     0.018 A 
ATOM     18  C   UNL d   1     -54.715-101.486 -37.329  0.00  0.00     0.002 A 
ATOM     19  C   UNL d   1     -54.762-102.272 -37.088  0.00  0.00     0.000 A 
ATOM     20  C   UNL d   1     -54.806-102.873 -37.658  0.00  0.00     0.002 A 
ATOM     21  C   UNL d   1     -54.764-102.463 -36.286  0.00  0.00     0.000 C 
ATOM     22  C   UNL d   1     -54.804-102.684 -38.464  0.00  0.00     0.018 A 
ENDBRANCH   2  16
TORSDOF 3
ENDMDL
