MODEL 1
REMARK VINA RESULT:      -7.3      0.000      0.000
REMARK  3 active torsions:
REMARK  status: ('A' for Active; 'I' for Inactive)
REMARK    1  A    between atoms: S_4  and  C_1 
REMARK    2  A    between atoms: N_3  and  C_2 
REMARK    3  A    between atoms: C_5  and  S_4 
ROOT
ATOM      1  C   UNL d   1     -47.951  13.217  22.716  0.00  0.00     0.139 A 
ATOM      2  C   UNL d   1     -47.284  12.841  23.024  0.00  0.00     0.188 A 
ATOM      3  N   UNL d   1     -48.686  12.812  22.775  0.00  0.00    -0.216 NA
ATOM      4  C   UNL d   1     -47.295  12.130  23.367  0.00  0.00     0.209 A 
ATOM      5  N   UNL d   1     -48.024  11.691  23.444  0.00  0.00    -0.202 NA
ATOM      6  C   UNL d   1     -48.723  12.064  23.132  0.00  0.00     0.201 A 
ATOM      7  N   UNL d   1     -46.649  11.697  23.698  0.00  0.00    -0.125 N 
ENDROOT
BRANCH   1   8
ATOM      8  S   UNL d   1     -47.941  13.913  22.380  0.00  0.00    -0.047 SA
BRANCH   8   9
ATOM      9  C   UNL d   1     -48.789  14.317  22.490  0.00  0.00     0.115 A 
ATOM     10  N   UNL d   1     -49.347  14.146  21.880  0.00  0.00    -0.217 NA
ATOM     11  C   UNL d   1     -50.113  14.481  21.932  0.00  0.00     0.200 A 
ATOM     12  N   UNL d   1     -50.317  14.963  22.560  0.00  0.00    -0.224 NA
ATOM     13  C   UNL d   1     -49.752  15.130  23.170  0.00  0.00     0.085 A 
ATOM     14  C   UNL d   1     -49.000  14.809  23.130  0.00  0.00     0.045 A 
ATOM     15  C   UNL d   1     -49.943  15.543  23.698  0.00  0.00     0.021 C 
ENDBRANCH   8   9
ENDBRANCH   1   8
BRANCH   2  16
ATOM     16  N   UNL d   1     -46.549  13.250  22.962  0.00  0.00    -0.108 N 
ATOM     17  O   UNL d   1     -46.187  13.667  23.570  0.00  0.00    -0.532 OA
ATOM     18  O   UNL d   1     -46.107  13.269  22.252  0.00  0.00    -0.532 OA
ENDBRANCH   2  16
TORSDOF 3
ENDMDL
MODEL 2
REMARK VINA RESULT:      -7.3      1.790      3.388
REMARK  3 active torsions:
REMARK  status: ('A' for Active; 'I' for Inactive)
REMARK    1  A    between atoms: S_4  and  C_1 
REMARK    2  A    between atoms: N_3  and  C_2 
REMARK    3  A    between atoms: C_5  and  S_4 
ROOT
ATOM      1  C   UNL d   1     -48.488  13.737  22.337  0.00  0.00     0.139 A 
ATOM      2  C   UNL d   1     -49.309  13.819  22.367  0.00  0.00     0.188 A 
ATOM      3  N   UNL d   1     -48.167  13.292  21.699  0.00  0.00    -0.216 NA
ATOM      4  C   UNL d   1     -49.806  13.508  21.838  0.00  0.00     0.209 A 
ATOM      5  N   UNL d   1     -49.514  13.052  21.178  0.00  0.00    -0.202 NA
ATOM      6  C   UNL d   1     -48.668  12.956  21.130  0.00  0.00     0.201 A 
ATOM      7  N   UNL d   1     -50.649  13.559  21.817  0.00  0.00    -0.125 N 
ENDROOT
BRANCH   1   8
ATOM      8  S   UNL d   1     -48.001  14.040  22.855  0.00  0.00    -0.047 SA
BRANCH   8   9
ATOM      9  C   UNL d   1     -47.249  13.474  22.934  0.00  0.00     0.115 A 
ATOM     10  N   UNL d   1     -46.546  13.760  22.565  0.00  0.00    -0.217 NA
ATOM     11  C   UNL d   1     -45.851  13.293  22.609  0.00  0.00     0.200 A 
ATOM     12  N   UNL d   1     -45.854  12.575  23.000  0.00  0.00    -0.224 NA
ATOM     13  C   UNL d   1     -46.563  12.293  23.369  0.00  0.00     0.085 A 
ATOM     14  C   UNL d   1     -47.248  12.740  23.333  0.00  0.00     0.045 A 
ATOM     15  C   UNL d   1     -46.546  11.679  23.698  0.00  0.00     0.021 C 
ENDBRANCH   8   9
ENDBRANCH   1   8
BRANCH   2  16
ATOM     16  N   UNL d   1     -49.627  14.265  23.009  0.00  0.00    -0.108 N 
ATOM     17  O   UNL d   1     -49.941  13.947  23.698  0.00  0.00    -0.532 OA
ATOM     18  O   UNL d   1     -49.653  15.101  23.001  0.00  0.00    -0.532 OA
ENDBRANCH   2  16
TORSDOF 3
ENDMDL
MODEL 3
REMARK VINA RESULT:      -7.0      1.759      3.495
REMARK  3 active torsions:
REMARK  status: ('A' for Active; 'I' for Inactive)
REMARK    1  A    between atoms: S_4  and  C_1 
REMARK    2  A    between atoms: N_3  and  C_2 
REMARK    3  A    between atoms: C_5  and  S_4 
ROOT
ATOM      1  C   UNL d   1     -48.832  13.429  22.393  0.00  0.00     0.139 A 
ATOM      2  C   UNL d   1     -49.656  13.413  22.447  0.00  0.00     0.188 A 
ATOM      3  N   UNL d   1     -48.440  14.122  22.666  0.00  0.00    -0.216 NA
ATOM      4  C   UNL d   1     -50.093  14.004  22.736  0.00  0.00     0.209 A 
ATOM      5  N   UNL d   1     -49.727  14.721  23.022  0.00  0.00    -0.202 NA
ATOM      6  C   UNL d   1     -48.877  14.756  22.974  0.00  0.00     0.201 A 
ATOM      7  N   UNL d   1     -50.933  14.044  22.816  0.00  0.00    -0.125 N 
ENDROOT
BRANCH   1   8
ATOM      8  S   UNL d   1     -48.404  12.852  22.110  0.00  0.00    -0.047 SA
BRANCH   8   9
ATOM      9  C   UNL d   1     -47.563  12.857  22.541  0.00  0.00     0.115 A 
ATOM     10  N   UNL d   1     -47.536  12.444  23.276  0.00  0.00    -0.217 NA
ATOM     11  C   UNL d   1     -46.811  12.419  23.697  0.00  0.00     0.200 A 
ATOM     12  N   UNL d   1     -46.144  12.788  23.403  0.00  0.00    -0.224 NA
ATOM     13  C   UNL d   1     -46.178  13.203  22.663  0.00  0.00     0.085 A 
ATOM     14  C   UNL d   1     -46.879  13.233  22.243  0.00  0.00     0.045 A 
ATOM     15  C   UNL d   1     -45.599  13.511  22.428  0.00  0.00     0.021 C 
ENDBRANCH   8   9
ENDBRANCH   1   8
BRANCH   2  16
ATOM     16  N   UNL d   1     -50.045  12.718  22.173  0.00  0.00    -0.108 N 
ATOM     17  O   UNL d   1     -50.301  12.098  22.648  0.00  0.00    -0.532 OA
ATOM     18  O   UNL d   1     -50.213  12.590  21.363  0.00  0.00    -0.532 OA
ENDBRANCH   2  16
TORSDOF 3
ENDMDL
MODEL 4
REMARK VINA RESULT:      -6.8      1.334      2.199
REMARK  3 active torsions:
REMARK  status: ('A' for Active; 'I' for Inactive)
REMARK    1  A    between atoms: S_4  and  C_1 
REMARK    2  A    between atoms: N_3  and  C_2 
REMARK    3  A    between atoms: C_5  and  S_4 
ROOT
ATOM      1  C   UNL d   1     -47.917  13.392  22.981  0.00  0.00     0.139 A 
ATOM      2  C   UNL d   1     -47.154  13.691  22.885  0.00  0.00     0.188 A 
ATOM      3  N   UNL d   1     -48.557  13.931  22.889  0.00  0.00    -0.216 NA
ATOM      4  C   UNL d   1     -46.989  14.444  22.715  0.00  0.00     0.209 A 
ATOM      5  N   UNL d   1     -47.615  15.017  22.615  0.00  0.00    -0.202 NA
ATOM      6  C   UNL d   1     -48.411  14.728  22.710  0.00  0.00     0.201 A 
ATOM      7  N   UNL d   1     -46.233  14.805  22.606  0.00  0.00    -0.125 N 
ENDROOT
BRANCH   1   8
ATOM      8  S   UNL d   1     -48.079  12.655  23.148  0.00  0.00    -0.047 SA
BRANCH   8   9
ATOM      9  C   UNL d   1     -48.984  12.486  22.935  0.00  0.00     0.115 A 
ATOM     10  N   UNL d   1     -49.138  12.338  22.119  0.00  0.00    -0.217 NA
ATOM     11  C   UNL d   1     -49.926  12.182  21.881  0.00  0.00     0.200 A 
ATOM     12  N   UNL d   1     -50.534  12.174  22.427  0.00  0.00    -0.224 NA
ATOM     13  C   UNL d   1     -50.373  12.324  23.246  0.00  0.00     0.085 A 
ATOM     14  C   UNL d   1     -49.608  12.477  23.491  0.00  0.00     0.045 A 
ATOM     15  C   UNL d   1     -50.905  12.313  23.697  0.00  0.00     0.021 C 
ENDBRANCH   8   9
ENDBRANCH   1   8
BRANCH   2  16
ATOM     16  N   UNL d   1     -46.515  13.148  22.978  0.00  0.00    -0.108 N 
ATOM     17  O   UNL d   1     -46.188  12.919  23.696  0.00  0.00    -0.532 OA
ATOM     18  O   UNL d   1     -46.143  12.780  22.325  0.00  0.00    -0.532 OA
ENDBRANCH   2  16
TORSDOF 3
ENDMDL
