MODEL 1
REMARK VINA RESULT:      15.3      0.000      0.000
REMARK  1 active torsions:
REMARK  status: ('A' for Active; 'I' for Inactive)
REMARK    1  A    between atoms: C_7  and  C_4 
ROOT
ATOM      1  N   UNL d   1      46.262 -17.574  43.269  0.00  0.00    -0.211 NA
ATOM      2  C   UNL d   1      46.450 -18.346  43.046  0.00  0.00     0.140 A 
ATOM      3  C   UNL d   1      46.455 -18.946  43.611  0.00  0.00     0.051 A 
ATOM      4  C   UNL d   1      46.077 -17.402  44.061  0.00  0.00     0.183 A 
ATOM      5  C   UNL d   1      46.271 -18.775  44.403  0.00  0.00     0.104 A 
ATOM      6  O   UNL d   1      46.083 -18.003  44.626  0.00  0.00    -0.289 OA
ATOM      7  S   UNL d   1      46.634 -18.520  42.259  0.00  0.00    -0.057 SA
ATOM      8  C   UNL d   1      46.642 -19.717  43.393  0.00  0.00     0.004 A 
ATOM      9  C   UNL d   1      46.278 -19.371  44.955  0.00  0.00     0.025 A 
ATOM     10  C   UNL d   1      46.647 -20.307  43.951  0.00  0.00     0.000 A 
ATOM     11  C   UNL d   1      46.466 -20.142  44.732  0.00  0.00     0.002 A 
ENDROOT
BRANCH   4  12
ATOM     12  C   UNL d   1      45.889 -16.630  44.283  0.00  0.00     0.041 A 
ATOM     13  C   UNL d   1      46.395 -16.010  44.076  0.00  0.00     0.004 A 
ATOM     14  C   UNL d   1      46.213 -15.240  44.294  0.00  0.00     0.007 A 
ATOM     15  C   UNL d   1      45.517 -15.080  44.726  0.00  0.00     0.035 A 
ATOM     16  C   UNL d   1      45.015 -15.701  44.932  0.00  0.00     0.007 A 
ATOM     17 BR   UNL d   1      45.330 -14.304  44.949  0.00  0.00    -0.049 Br
ATOM     18  C   UNL d   1      45.198 -16.480  44.711  0.00  0.00     0.004 A 
ENDBRANCH   4  12
TORSDOF 1
ENDMDL
