MODEL 1
REMARK VINA RESULT:      -1.5      0.000      0.000
REMARK  7 active torsions:
REMARK  status: ('A' for Active; 'I' for Inactive)
REMARK    1  A    between atoms: C_11  and  C_3 
REMARK    2  A    between atoms: N_12  and  C_7 
REMARK       I    between atoms: C_9  and  N_15 
REMARK    3  A    between atoms: C_14  and  C_9 
REMARK    4  A    between atoms: C_16  and  C_11 
REMARK    5  A    between atoms: C_17  and  N_12 
REMARK    6  A    between atoms: N_15  and  C_16 
REMARK    7  A    between atoms: C_19  and  C_17 
ROOT
ATOM      1  N   UNL d   1     -41.198-122.039 -51.590  0.00  0.00    -0.190 N 
ATOM      2  C   UNL d   1     -41.220-121.229 -51.423  0.00  0.00     0.187 A 
ATOM      3  C   UNL d   1     -41.213-122.138 -52.418  0.00  0.00     0.188 A 
ATOM      4  N   UNL d   1     -41.166-122.583 -50.958  0.00  0.00    -0.143 NA
ATOM      5  N   UNL d   1     -41.250-120.828 -52.155  0.00  0.00    -0.127 NA
ATOM      6  N   UNL d   1     -41.245-121.396 -52.753  0.00  0.00    -0.127 NA
ATOM      7  C   UNL d   1     -41.157-122.314 -50.178  0.00  0.00     0.182 A 
ATOM      8  C   UNL d   1     -41.212-120.960 -50.643  0.00  0.00     0.044 A 
ATOM      9  C   UNL d   1     -41.180-121.500 -50.022  0.00  0.00     0.044 A 
ENDROOT
BRANCH   3  10
ATOM     10  C   UNL d   1     -41.199-122.857 -52.828  0.00  0.00     0.061 C 
BRANCH  10  11
ATOM     11  C   UNL d   1     -41.573-122.922 -53.557  0.00  0.00     0.105 C 
BRANCH  11  12
ATOM     12  N   UNL d   1     -41.258-123.429 -54.129  0.00  0.00    -0.206 NA
ATOM     13  C   UNL d   1     -41.444-123.307 -54.929  0.00  0.00     0.279 C 
ATOM     14  O   UNL d   1     -41.126-123.817 -55.500  0.00  0.00    -0.265 OA
BRANCH  13  15
ATOM     15  C   UNL d   1     -41.937-122.688 -55.144  0.00  0.00     0.058 A 
ATOM     16  C   UNL d   1     -41.644-122.045 -55.583  0.00  0.00     0.005 A 
ATOM     17  C   UNL d   1     -42.144-121.436 -55.792  0.00  0.00     0.000 A 
ATOM     18  C   UNL d   1     -42.931-121.456 -55.570  0.00  0.00     0.000 A 
ATOM     19  C   UNL d   1     -43.232-122.078 -55.141  0.00  0.00     0.000 A 
ATOM     20  C   UNL d   1     -42.735-122.704 -54.923  0.00  0.00     0.005 A 
ENDBRANCH  13  15
ENDBRANCH  11  12
ENDBRANCH  10  11
ENDBRANCH   3  10
BRANCH   7  21
ATOM     21  N   UNL d   1     -41.126-122.850 -49.544  0.00  0.00    -0.224 NA
BRANCH  21  22
ATOM     22  C   UNL d   1     -41.706-123.437 -49.493  0.00  0.00     0.101 C 
BRANCH  22  23
ATOM     23  C   UNL d   1     -42.148-123.531 -48.802  0.00  0.00     0.019 A 
ATOM     24  C   UNL d   1     -41.773-123.491 -48.060  0.00  0.00     0.002 A 
ATOM     25  C   UNL d   1     -42.225-123.586 -47.376  0.00  0.00     0.011 A 
ATOM     26  C   UNL d   1     -43.036-123.720 -47.420  0.00  0.00     0.058 A 
ATOM     27  C   UNL d   1     -43.411-123.760 -48.162  0.00  0.00     0.011 A 
ATOM     28 CL   UNL d   1     -43.488-123.815 -46.736  0.00  0.00    -0.082 Cl
ATOM     29  C   UNL d   1     -42.962-123.665 -48.849  0.00  0.00     0.002 A 
ENDBRANCH  22  23
ENDBRANCH  21  22
ENDBRANCH   7  21
TORSDOF 7
ENDMDL
