MODEL 1
REMARK VINA RESULT:      -3.5      0.000      0.000
REMARK  5 active torsions:
REMARK  status: ('A' for Active; 'I' for Inactive)
REMARK    1  A    between atoms: C_6  and  N_1 
REMARK    2  A    between atoms: C_10  and  C_6 
REMARK    3  A    between atoms: O_18  and  C_12 
REMARK    4  A    between atoms: C_20  and  O_18 
REMARK    5  A    between atoms: C_21  and  C_20 
ROOT
ATOM      1  N   UNL d   1      31.774  16.427 -23.735  0.00  0.00    -0.251 N 
ATOM      2  C   UNL d   1      31.937  15.821 -23.184  0.00  0.00     0.378 A 
ATOM      3  C   UNL d   1      30.957  16.436 -23.868  0.00  0.00     0.092 A 
ATOM      4  O   UNL d   1      31.221  15.460 -22.980  0.00  0.00    -0.258 OA
ATOM      5  C   UNL d   1      30.616  15.839 -23.402  0.00  0.00     0.121 A 
ATOM      6  O   UNL d   1      32.682  15.623 -22.898  0.00  0.00    -0.237 OA
ATOM      7  C   UNL d   1      30.490  16.909 -24.349  0.00  0.00     0.020 A 
ATOM      8  C   UNL d   1      29.797  15.725 -23.428  0.00  0.00     0.026 A 
ATOM      9  C   UNL d   1      29.674  16.787 -24.368  0.00  0.00     0.002 A 
ATOM     10  C   UNL d   1      29.329  16.198 -23.909  0.00  0.00     0.002 A 
ATOM     11  C   UNL d   1      29.207  17.266 -24.856  0.00  0.00     0.000 C 
ENDROOT
BRANCH   1  12
ATOM     12  C   UNL d   1      32.299  16.944 -24.104  0.00  0.00     0.085 C 
BRANCH  12  13
ATOM     13  C   UNL d   1      32.538  17.633 -23.716  0.00  0.00     0.018 A 
ATOM     14  C   UNL d   1      32.963  17.591 -23.021  0.00  0.00     0.004 A 
ATOM     15  C   UNL d   1      33.198  18.274 -22.637  0.00  0.00     0.025 A 
ATOM     16  C   UNL d   1      33.005  19.010 -22.954  0.00  0.00     0.100 A 
ATOM     17  C   UNL d   1      32.576  19.053 -23.655  0.00  0.00     0.025 A 
ATOM     18  C   UNL d   1      32.339  18.362 -24.042  0.00  0.00     0.004 A 
BRANCH  16  19
ATOM     19  O   UNL d   1      33.241  19.696 -22.569  0.00  0.00    -0.305 OA
BRANCH  19  20
ATOM     20  C   UNL d   1      32.836  19.950 -21.904  0.00  0.00     0.123 C 
BRANCH  20  21
ATOM     21  C   UNL d   1      33.066  20.634 -21.519  0.00  0.00     0.027 C 
ATOM     22  C   UNL d   1      32.553  21.002 -20.986  0.00  0.00     0.002 C 
ENDBRANCH  20  21
ENDBRANCH  19  20
ENDBRANCH  16  19
ENDBRANCH  12  13
ENDBRANCH   1  12
TORSDOF 5
ENDMDL
MODEL 2
REMARK VINA RESULT:      -3.3      1.361      2.111
REMARK  5 active torsions:
REMARK  status: ('A' for Active; 'I' for Inactive)
REMARK    1  A    between atoms: C_6  and  N_1 
REMARK    2  A    between atoms: C_10  and  C_6 
REMARK    3  A    between atoms: O_18  and  C_12 
REMARK    4  A    between atoms: C_20  and  O_18 
REMARK    5  A    between atoms: C_21  and  C_20 
ROOT
ATOM      1  N   UNL d   1      32.341  18.027 -24.227  0.00  0.00    -0.251 N 
ATOM      2  C   UNL d   1      31.953  18.493 -24.802  0.00  0.00     0.378 A 
ATOM      3  C   UNL d   1      31.881  17.353 -24.093  0.00  0.00     0.092 A 
ATOM      4  O   UNL d   1      31.255  18.103 -25.019  0.00  0.00    -0.258 OA
ATOM      5  C   UNL d   1      31.210  17.400 -24.582  0.00  0.00     0.121 A 
ATOM      6  O   UNL d   1      32.222  19.212 -25.096  0.00  0.00    -0.237 OA
ATOM      7  C   UNL d   1      31.989  16.712 -23.592  0.00  0.00     0.020 A 
ATOM      8  C   UNL d   1      30.650  16.791 -24.559  0.00  0.00     0.026 A 
ATOM      9  C   UNL d   1      31.425  16.110 -23.577  0.00  0.00     0.002 A 
ATOM     10  C   UNL d   1      30.758  16.149 -24.058  0.00  0.00     0.002 A 
ATOM     11  C   UNL d   1      31.538  15.465 -23.071  0.00  0.00     0.000 C 
ENDROOT
BRANCH   1  12
ATOM     12  C   UNL d   1      33.053  18.175 -23.838  0.00  0.00     0.085 C 
BRANCH  12  13
ATOM     13  C   UNL d   1      33.101  18.787 -23.287  0.00  0.00     0.018 A 
ATOM     14  C   UNL d   1      33.184  19.561 -23.533  0.00  0.00     0.004 A 
ATOM     15  C   UNL d   1      33.230  20.166 -22.985  0.00  0.00     0.025 A 
ATOM     16  C   UNL d   1      33.193  19.996 -22.179  0.00  0.00     0.100 A 
ATOM     17  C   UNL d   1      33.110  19.215 -21.931  0.00  0.00     0.025 A 
ATOM     18  C   UNL d   1      33.063  18.604 -22.486  0.00  0.00     0.004 A 
BRANCH  16  19
ATOM     19  O   UNL d   1      33.240  20.604 -21.629  0.00  0.00    -0.305 OA
BRANCH  19  20
ATOM     20  C   UNL d   1      32.554  20.949 -21.344  0.00  0.00     0.123 C 
BRANCH  20  21
ATOM     21  C   UNL d   1      32.589  21.658 -20.939  0.00  0.00     0.027 C 
ATOM     22  C   UNL d   1      31.895  22.017 -20.671  0.00  0.00     0.002 C 
ENDBRANCH  20  21
ENDBRANCH  19  20
ENDBRANCH  16  19
ENDBRANCH  12  13
ENDBRANCH   1  12
TORSDOF 5
ENDMDL
MODEL 3
REMARK VINA RESULT:      -1.7      0.829      1.069
REMARK  5 active torsions:
REMARK  status: ('A' for Active; 'I' for Inactive)
REMARK    1  A    between atoms: C_6  and  N_1 
REMARK    2  A    between atoms: C_10  and  C_6 
REMARK    3  A    between atoms: O_18  and  C_12 
REMARK    4  A    between atoms: C_20  and  O_18 
REMARK    5  A    between atoms: C_21  and  C_20 
ROOT
ATOM      1  N   UNL d   1      30.919  16.468 -24.353  0.00  0.00    -0.251 N 
ATOM      2  C   UNL d   1      31.267  15.815 -23.965  0.00  0.00     0.378 A 
ATOM      3  C   UNL d   1      30.124  16.505 -24.125  0.00  0.00     0.092 A 
ATOM      4  O   UNL d   1      30.685  15.453 -23.501  0.00  0.00    -0.258 OA
ATOM      5  C   UNL d   1      29.980  15.878 -23.599  0.00  0.00     0.121 A 
ATOM      6  O   UNL d   1      32.051  15.579 -24.038  0.00  0.00    -0.237 OA
ATOM      7  C   UNL d   1      29.524  17.026 -24.329  0.00  0.00     0.020 A 
ATOM      8  C   UNL d   1      29.222  15.783 -23.282  0.00  0.00     0.026 A 
ATOM      9  C   UNL d   1      28.771  16.923 -24.008  0.00  0.00     0.002 A 
ATOM     10  C   UNL d   1      28.620  16.304 -23.486  0.00  0.00     0.002 A 
ATOM     11  C   UNL d   1      28.168  17.450 -24.217  0.00  0.00     0.000 C 
ENDROOT
BRANCH   1  12
ATOM     12  C   UNL d   1      31.266  17.004 -24.875  0.00  0.00     0.085 C 
BRANCH  12  13
ATOM     13  C   UNL d   1      31.763  17.596 -24.584  0.00  0.00     0.018 A 
ATOM     14  C   UNL d   1      32.146  17.502 -23.870  0.00  0.00     0.004 A 
ATOM     15  C   UNL d   1      32.637  18.090 -23.584  0.00  0.00     0.025 A 
ATOM     16  C   UNL d   1      32.747  18.782 -24.018  0.00  0.00     0.100 A 
ATOM     17  C   UNL d   1      32.361  18.877 -24.739  0.00  0.00     0.025 A 
ATOM     18  C   UNL d   1      31.864  18.282 -25.027  0.00  0.00     0.004 A 
BRANCH  16  19
ATOM     19  O   UNL d   1      33.241  19.371 -23.730  0.00  0.00    -0.305 OA
BRANCH  19  20
ATOM     20  C   UNL d   1      33.209  19.578 -22.939  0.00  0.00     0.123 C 
BRANCH  20  21
ATOM     21  C   UNL d   1      33.081  20.357 -22.722  0.00  0.00     0.027 C 
ATOM     22  C   UNL d   1      33.087  20.572 -21.924  0.00  0.00     0.002 C 
ENDBRANCH  20  21
ENDBRANCH  19  20
ENDBRANCH  16  19
ENDBRANCH  12  13
ENDBRANCH   1  12
TORSDOF 5
ENDMDL
