MODEL 1
REMARK VINA RESULT:     117.8      0.000      0.000
REMARK  5 active torsions:
REMARK  status: ('A' for Active; 'I' for Inactive)
REMARK    1  A    between atoms: C_9  and  C_3 
REMARK    2  A    between atoms: N_11  and  C_4 
REMARK    3  A    between atoms: C_17  and  N_11 
REMARK    4  A    between atoms: O_19  and  C_13 
REMARK    5  A    between atoms: O_20  and  C_15 
ROOT
ATOM      1  N   UNL d   1      60.755  47.227  50.447  0.00  0.00    -0.184 N 
ATOM      2  C   UNL d   1      60.086  47.548  50.834  0.00  0.00     0.168 A 
ATOM      3  C   UNL d   1      59.991  48.362  50.898  0.00  0.00     0.055 A 
ATOM      4  C   UNL d   1      60.833  46.409  50.392  0.00  0.00     0.218 A 
ATOM      5  N   UNL d   1      61.237  48.543  50.186  0.00  0.00    -0.162 NA
ATOM      6  C   UNL d   1      60.569  48.865  50.573  0.00  0.00     0.104 A 
ATOM      7  N   UNL d   1      59.509  47.046  51.159  0.00  0.00    -0.227 NA
ATOM      8  C   UNL d   1      60.269  45.898  50.709  0.00  0.00     0.071 A 
ATOM      9  C   UNL d   1      59.600  46.220  51.096  0.00  0.00     0.087 A 
ATOM     10  C   UNL d   1      60.485  49.677  50.631  0.00  0.00     0.023 C 
ATOM     11  C   UNL d   1      59.003  45.698  51.432  0.00  0.00     0.021 C 
ENDROOT
BRANCH   3  12
ATOM     12  C   UNL d   1      59.332  48.679  51.280  0.00  0.00     0.007 A 
ATOM     13  C   UNL d   1      58.586  48.591  50.939  0.00  0.00     0.026 A 
ATOM     14  C   UNL d   1      57.917  48.912  51.326  0.00  0.00     0.116 A 
ATOM     15  C   UNL d   1      58.008  49.315  52.046  0.00  0.00     0.116 A 
ATOM     16  C   UNL d   1      58.759  49.393  52.372  0.00  0.00     0.026 A 
ATOM     17  C   UNL d   1      59.424  49.073  51.986  0.00  0.00     0.002 A 
BRANCH  14  18
ATOM     18  O   UNL d   1      57.147  48.830  50.989  0.00  0.00    -0.326 OA
ATOM     19  C   UNL d   1      56.856  49.427  50.427  0.00  0.00     0.181 C 
ENDBRANCH  14  18
BRANCH  15  20
ATOM     20  O   UNL d   1      57.319  49.646  52.445  0.00  0.00    -0.326 OA
ATOM     21  C   UNL d   1      56.538  49.304  52.296  0.00  0.00     0.181 C 
ENDBRANCH  15  20
ENDBRANCH   3  12
BRANCH   4  22
ATOM     22  N   UNL d   1      61.519  46.079  49.995  0.00  0.00    -0.383 NA
BRANCH  22  23
ATOM     23  C   UNL d   1      62.130  45.786  49.642  0.00  0.00     0.134 A 
ATOM     24  C   UNL d   1      62.547  46.232  49.181  0.00  0.00     0.032 A 
ATOM     25  C   UNL d   1      63.157  45.939  48.828  0.00  0.00     0.003 A 
ATOM     26  C   UNL d   1      62.930  44.767  49.393  0.00  0.00     0.003 A 
ATOM     27  C   UNL d   1      62.317  45.061  49.748  0.00  0.00     0.032 A 
ENDBRANCH  22  23
ENDBRANCH   4  22
TORSDOF 5
ENDMDL
