MODEL 1
REMARK VINA RESULT:      63.6      0.000      0.000
REMARK  4 active torsions:
REMARK  status: ('A' for Active; 'I' for Inactive)
REMARK    1  A    between atoms: N_2  and  S_1 
REMARK    2  A    between atoms: C_3  and  S_1 
REMARK    3  A    between atoms: C_5  and  N_4 
REMARK    4  A    between atoms: O_17  and  C_14 
ROOT
ATOM      1  N   UNL d   1     -50.948  26.882  33.908  0.00  0.00    -0.226 N 
ATOM      2  N   UNL d   1     -49.631  27.653  34.499  0.00  0.00    -0.299 N 
ATOM      3  C   UNL d   1     -50.803  26.883  34.724  0.00  0.00     0.111 A 
ATOM      4  C   UNL d   1     -50.435  27.266  33.393  0.00  0.00     0.111 A 
ATOM      5  C   UNL d   1     -50.138  27.272  35.017  0.00  0.00     0.100 A 
ATOM      6  C   UNL d   1     -49.772  27.653  33.694  0.00  0.00     0.100 A 
ENDROOT
BRANCH   1   7
ATOM      7  S   UNL d   1     -51.613  26.494  33.610  0.00  0.00     0.272 S 
ATOM      8  O   UNL d   1     -52.273  26.112  33.316  0.00  0.00    -0.200 OA
ATOM      9  O   UNL d   1     -52.052  27.186  33.698  0.00  0.00    -0.200 OA
BRANCH   7  10
ATOM     10  C   UNL d   1     -51.167  25.804  33.526  0.00  0.00     0.106 A 
ATOM     11  C   UNL d   1     -51.540  25.069  33.461  0.00  0.00     0.037 A 
ATOM     12  C   UNL d   1     -51.088  24.385  33.377  0.00  0.00     0.095 A 
ATOM     13  C   UNL d   1     -50.262  24.435  33.358  0.00  0.00     0.024 A 
ATOM     14  C   UNL d   1     -49.893  25.169  33.423  0.00  0.00     0.003 A 
ATOM     15  C   UNL d   1     -50.345  25.853  33.507  0.00  0.00     0.013 A 
BRANCH  12  16
ATOM     16  O   UNL d   1     -51.456  23.652  33.311  0.00  0.00    -0.328 OA
ATOM     17  C   UNL d   1     -52.280  23.601  33.313  0.00  0.00     0.181 C 
ENDBRANCH  12  16
ENDBRANCH   7  10
ENDBRANCH   1   7
BRANCH   2  18
ATOM     18  C   UNL d   1     -48.965  28.042  34.793  0.00  0.00     0.092 A 
ATOM     19  C   UNL d   1     -48.298  28.121  34.323  0.00  0.00     0.156 A 
ATOM     20  F   UNL d   1     -48.338  27.793  33.561  0.00  0.00    -0.203 F 
ATOM     21  C   UNL d   1     -47.625  28.508  34.605  0.00  0.00     0.031 A 
ATOM     22  C   UNL d   1     -47.633  28.820  35.377  0.00  0.00     0.002 A 
ATOM     23  C   UNL d   1     -48.306  28.741  35.851  0.00  0.00     0.002 A 
ATOM     24  C   UNL d   1     -48.972  28.351  35.557  0.00  0.00     0.020 A 
ENDBRANCH   2  18
TORSDOF 4
ENDMDL
MODEL 2
REMARK VINA RESULT:      66.2      3.909      5.412
REMARK  4 active torsions:
REMARK  status: ('A' for Active; 'I' for Inactive)
REMARK    1  A    between atoms: N_2  and  S_1 
REMARK    2  A    between atoms: C_3  and  S_1 
REMARK    3  A    between atoms: C_5  and  N_4 
REMARK    4  A    between atoms: O_17  and  C_14 
ROOT
ATOM      1  N   UNL d   1     -47.297  30.644  35.937  0.00  0.00    -0.226 N 
ATOM      2  N   UNL d   1     -47.644  31.854  34.890  0.00  0.00    -0.299 N 
ATOM      3  C   UNL d   1     -48.061  30.710  35.622  0.00  0.00     0.111 A 
ATOM      4  C   UNL d   1     -46.712  31.183  35.727  0.00  0.00     0.111 A 
ATOM      5  C   UNL d   1     -48.231  31.321  35.095  0.00  0.00     0.100 A 
ATOM      6  C   UNL d   1     -46.890  31.791  35.200  0.00  0.00     0.100 A 
ENDROOT
BRANCH   1   7
ATOM      7  S   UNL d   1     -47.123  30.034  36.464  0.00  0.00     0.272 S 
ATOM      8  O   UNL d   1     -46.949  29.433  36.989  0.00  0.00    -0.200 OA
ATOM      9  O   UNL d   1     -46.912  30.592  37.034  0.00  0.00    -0.200 OA
BRANCH   7  10
ATOM     10  C   UNL d   1     -47.335  29.481  35.890  0.00  0.00     0.106 A 
ATOM     11  C   UNL d   1     -48.078  29.119  35.912  0.00  0.00     0.037 A 
ATOM     12  C   UNL d   1     -48.284  28.568  35.333  0.00  0.00     0.095 A 
ATOM     13  C   UNL d   1     -47.747  28.379  34.733  0.00  0.00     0.024 A 
ATOM     14  C   UNL d   1     -47.007  28.741  34.714  0.00  0.00     0.003 A 
ATOM     15  C   UNL d   1     -46.801  29.293  35.292  0.00  0.00     0.013 A 
BRANCH  12  16
ATOM     16  O   UNL d   1     -49.023  28.205  35.352  0.00  0.00    -0.328 OA
ATOM     17  C   UNL d   1     -49.134  27.473  34.989  0.00  0.00     0.181 C 
ENDBRANCH  12  16
ENDBRANCH   7  10
ENDBRANCH   1   7
BRANCH   2  18
ATOM     18  C   UNL d   1     -47.815  32.465  34.363  0.00  0.00     0.092 A 
ATOM     19  C   UNL d   1     -47.208  32.823  33.943  0.00  0.00     0.156 A 
ATOM     20  F   UNL d   1     -46.441  32.538  34.082  0.00  0.00    -0.203 F 
ATOM     21  C   UNL d   1     -47.366  33.436  33.413  0.00  0.00     0.031 A 
ATOM     22  C   UNL d   1     -48.152  33.688  33.308  0.00  0.00     0.002 A 
ATOM     23  C   UNL d   1     -48.764  33.326  33.731  0.00  0.00     0.002 A 
ATOM     24  C   UNL d   1     -48.593  32.715  34.258  0.00  0.00     0.020 A 
ENDBRANCH   2  18
TORSDOF 4
ENDMDL
