MODEL 1
REMARK VINA RESULT:      85.7      0.000      0.000
REMARK  8 active torsions:
REMARK  status: ('A' for Active; 'I' for Inactive)
REMARK    1  A    between atoms: C_11  and  C_3 
REMARK    2  A    between atoms: C_10  and  C_4 
REMARK    3  A    between atoms: O_18  and  C_10 
REMARK    4  A    between atoms: N_17  and  C_11 
REMARK    5  A    between atoms: C_12  and  C_15 
REMARK    6  A    between atoms: C_15  and  C_23 
REMARK    7  A    between atoms: C_23  and  N_17 
REMARK    8  A    between atoms: C_24  and  O_18 
ROOT
ATOM      1  C   UNL d   1     -56.997 -99.650 -44.268  0.00  0.00     0.035 A 
ATOM      2  C   UNL d   1     -56.898 -99.211 -44.965  0.00  0.00     0.100 A 
ATOM      3  C   UNL d   1     -56.371-100.102 -43.973  0.00  0.00     0.060 A 
ATOM      4  C   UNL d   1     -57.755 -99.533 -43.997  0.00  0.00     0.088 A 
ATOM      5  O   UNL d   1     -57.587 -98.838 -45.108  0.00  0.00    -0.307 OA
ATOM      6  C   UNL d   1     -58.114 -99.023 -44.530  0.00  0.00     0.105 A 
ATOM      7  C   UNL d   1     -55.651-100.113 -44.376  0.00  0.00     0.197 A 
ATOM      8  C   UNL d   1     -56.188 -99.235 -45.345  0.00  0.00     0.026 A 
ATOM      9  C   UNL d   1     -55.562 -99.688 -45.049  0.00  0.00     0.041 A 
ATOM     10  O   UNL d   1     -55.012-100.576 -44.074  0.00  0.00    -0.286 OA
ATOM     11  C   UNL d   1     -58.889 -98.758 -44.467  0.00  0.00     0.027 C 
ATOM     12  C   UNL d   1     -56.089 -98.797 -46.042  0.00  0.00     0.002 A 
ATOM     13  C   UNL d   1     -54.843 -99.699 -45.453  0.00  0.00     0.003 A 
ATOM     14  C   UNL d   1     -54.743 -99.268 -46.140  0.00  0.00     0.000 A 
ATOM     15  C   UNL d   1     -55.368 -98.815 -46.435  0.00  0.00     0.000 A 
ENDROOT
BRANCH   3  16
ATOM     16  C   UNL d   1     -56.468-100.557 -43.252  0.00  0.00     0.102 C 
BRANCH  16  17
ATOM     17  N   UNL d   1     -55.888-101.120 -43.025  0.00  0.00    -0.242 NA
BRANCH  17  18
ATOM     18  C   UNL d   1     -55.848-101.386 -42.267  0.00  0.00     0.105 C 
BRANCH  18  19
ATOM     19  C   UNL d   1     -55.133-101.647 -41.948  0.00  0.00     0.091 C 
BRANCH  19  20
ATOM     20  C   UNL d   1     -55.123-102.056 -41.226  0.00  0.00     0.213 C 
ATOM     21  O   UNL d   1     -55.326-101.666 -40.526  0.00  0.00    -0.644 OA
ATOM     22  O   UNL d   1     -54.912-102.850 -41.213  0.00  0.00    -0.644 OA
ENDBRANCH  19  20
ENDBRANCH  18  19
ENDBRANCH  17  18
ENDBRANCH  16  17
ENDBRANCH   3  16
BRANCH   4  23
ATOM     23  C   UNL d   1     -58.132 -99.844 -43.323  0.00  0.00     0.302 C 
ATOM     24  O   UNL d   1     -58.218-100.672 -43.238  0.00  0.00    -0.259 OA
BRANCH  23  25
ATOM     25  O   UNL d   1     -58.421 -99.353 -42.742  0.00  0.00    -0.271 OA
BRANCH  25  26
ATOM     26  C   UNL d   1     -59.220 -99.247 -42.663  0.00  0.00     0.126 C 
ATOM     27  C   UNL d   1     -59.488 -98.891 -41.984  0.00  0.00     0.029 C 
ENDBRANCH  25  26
ENDBRANCH  23  25
ENDBRANCH   4  23
TORSDOF 8
ENDMDL
MODEL 2
REMARK VINA RESULT:      86.9      1.656      3.183
REMARK  8 active torsions:
REMARK  status: ('A' for Active; 'I' for Inactive)
REMARK    1  A    between atoms: C_11  and  C_3 
REMARK    2  A    between atoms: C_10  and  C_4 
REMARK    3  A    between atoms: O_18  and  C_10 
REMARK    4  A    between atoms: N_17  and  C_11 
REMARK    5  A    between atoms: C_12  and  C_15 
REMARK    6  A    between atoms: C_15  and  C_23 
REMARK    7  A    between atoms: C_23  and  N_17 
REMARK    8  A    between atoms: C_24  and  O_18 
ROOT
ATOM      1  C   UNL d   1     -56.810 -99.006 -44.385  0.00  0.00     0.035 A 
ATOM      2  C   UNL d   1     -57.612 -98.883 -44.212  0.00  0.00     0.100 A 
ATOM      3  C   UNL d   1     -56.569 -99.126 -45.167  0.00  0.00     0.060 A 
ATOM      4  C   UNL d   1     -56.390 -98.981 -43.687  0.00  0.00     0.088 A 
ATOM      5  O   UNL d   1     -57.671 -98.786 -43.424  0.00  0.00    -0.307 OA
ATOM      6  C   UNL d   1     -56.940 -98.843 -43.094  0.00  0.00     0.105 A 
ATOM      7  C   UNL d   1     -57.131 -99.121 -45.770  0.00  0.00     0.197 A 
ATOM      8  C   UNL d   1     -58.146 -98.882 -44.815  0.00  0.00     0.026 A 
ATOM      9  C   UNL d   1     -57.905 -99.002 -45.597  0.00  0.00     0.041 A 
ATOM     10  O   UNL d   1     -56.885 -99.244 -46.569  0.00  0.00    -0.286 OA
ATOM     11  C   UNL d   1     -56.753 -98.777 -42.297  0.00  0.00     0.027 C 
ATOM     12  C   UNL d   1     -58.947 -98.759 -44.643  0.00  0.00     0.002 A 
ATOM     13  C   UNL d   1     -58.467 -98.998 -46.201  0.00  0.00     0.003 A 
ATOM     14  C   UNL d   1     -59.258 -98.876 -46.034  0.00  0.00     0.000 A 
ATOM     15  C   UNL d   1     -59.499 -98.757 -45.252  0.00  0.00     0.000 A 
ENDROOT
BRANCH   3  16
ATOM     16  C   UNL d   1     -55.741 -99.253 -45.350  0.00  0.00     0.102 C 
BRANCH  16  17
ATOM     17  N   UNL d   1     -55.484 -99.990 -45.661  0.00  0.00    -0.242 NA
BRANCH  17  18
ATOM     18  C   UNL d   1     -55.454-100.645 -45.196  0.00  0.00     0.105 C 
BRANCH  18  19
ATOM     19  C   UNL d   1     -55.141-101.353 -45.484  0.00  0.00     0.091 C 
BRANCH  19  20
ATOM     20  C   UNL d   1     -55.321-102.070 -45.108  0.00  0.00     0.213 C 
ATOM     21  O   UNL d   1     -56.107-102.313 -45.033  0.00  0.00    -0.644 OA
ATOM     22  O   UNL d   1     -54.712-102.536 -44.811  0.00  0.00    -0.644 OA
ENDBRANCH  19  20
ENDBRANCH  18  19
ENDBRANCH  17  18
ENDBRANCH  16  17
ENDBRANCH   3  16
BRANCH   4  23
ATOM     23  C   UNL d   1     -55.574 -99.072 -43.555  0.00  0.00     0.302 C 
ATOM     24  O   UNL d   1     -55.025 -98.758 -44.104  0.00  0.00    -0.259 OA
BRANCH  23  25
ATOM     25  O   UNL d   1     -55.298 -99.462 -42.896  0.00  0.00    -0.271 OA
BRANCH  25  26
ATOM     26  C   UNL d   1     -55.181-100.263 -42.922  0.00  0.00     0.126 C 
ATOM     27  C   UNL d   1     -54.714-100.594 -42.345  0.00  0.00     0.029 C 
ENDBRANCH  25  26
ENDBRANCH  23  25
ENDBRANCH   4  23
TORSDOF 8
ENDMDL
