MODEL 1
REMARK VINA RESULT:      -3.0      0.000      0.000
REMARK  4 active torsions:
REMARK  status: ('A' for Active; 'I' for Inactive)
REMARK    1  A    between atoms: C_2  and  S_1 
REMARK    2  A    between atoms: N_9  and  S_1 
REMARK    3  A    between atoms: C_18  and  N_9 
REMARK    4  A    between atoms: C_19  and  N_9 
ROOT
ATOM      1  C   UNL d   1     -41.546-123.081 -52.862  0.00  0.00     0.104 A 
ATOM      2  C   UNL d   1     -42.060-122.272 -55.446  0.00  0.00     0.225 A 
ATOM      3  S   UNL d   1     -41.506-123.197 -55.297  0.00  0.00    -0.046 SA
ATOM      4  C   UNL d   1     -41.856-122.588 -54.173  0.00  0.00     0.010 A 
ATOM      5  C   UNL d   1     -41.458-123.261 -54.498  0.00  0.00     0.033 A 
ATOM      6  C   UNL d   1     -41.902-122.494 -53.356  0.00  0.00     0.013 A 
ATOM      7  C   UNL d   1     -42.193-122.033 -54.667  0.00  0.00     0.046 A 
ATOM      8  C   UNL d   1     -41.164-123.727 -53.174  0.00  0.00     0.013 A 
ATOM      9  C   UNL d   1     -41.123-123.813 -53.993  0.00  0.00     0.007 A 
ATOM     10  O   UNL d   1     -42.366-121.773 -56.043  0.00  0.00    -0.279 OA
ATOM     11  C   UNL d   1     -42.300-121.821 -53.031  0.00  0.00     0.001 A 
ATOM     12  C   UNL d   1     -42.591-121.360 -54.342  0.00  0.00     0.004 A 
ATOM     13  C   UNL d   1     -42.636-121.268 -53.536  0.00  0.00     0.000 A 
ENDROOT
BRANCH   1  14
ATOM     14  S   UNL d   1     -41.583-123.001 -52.023  0.00  0.00     0.271 S 
ATOM     15  O   UNL d   1     -42.027-123.700 -52.009  0.00  0.00    -0.200 OA
ATOM     16  O   UNL d   1     -41.123-122.282 -52.064  0.00  0.00    -0.200 OA
BRANCH  14  17
ATOM     17  N   UNL d   1     -41.615-122.911 -51.179  0.00  0.00    -0.229 N 
BRANCH  17  18
ATOM     18  C   UNL d   1     -42.126-123.434 -50.784  0.00  0.00     0.092 C 
ATOM     19  C   UNL d   1     -42.424-123.299 -50.040  0.00  0.00     0.021 C 
ENDBRANCH  17  18
BRANCH  17  20
ATOM     20  C   UNL d   1     -41.175-122.352 -50.784  0.00  0.00     0.092 C 
ATOM     21  C   UNL d   1     -41.309-122.217 -49.976  0.00  0.00     0.021 C 
ENDBRANCH  17  20
ENDBRANCH  14  17
ENDBRANCH   1  14
TORSDOF 4
ENDMDL
MODEL 2
REMARK VINA RESULT:      -2.8      1.617      2.431
REMARK  4 active torsions:
REMARK  status: ('A' for Active; 'I' for Inactive)
REMARK    1  A    between atoms: C_2  and  S_1 
REMARK    2  A    between atoms: N_9  and  S_1 
REMARK    3  A    between atoms: C_18  and  N_9 
REMARK    4  A    between atoms: C_19  and  N_9 
ROOT
ATOM      1  C   UNL d   1     -41.886-123.147 -50.722  0.00  0.00     0.104 A 
ATOM      2  C   UNL d   1     -41.380-121.968 -53.161  0.00  0.00     0.225 A 
ATOM      3  S   UNL d   1     -41.738-122.996 -53.151  0.00  0.00    -0.046 SA
ATOM      4  C   UNL d   1     -41.598-122.459 -51.947  0.00  0.00     0.010 A 
ATOM      5  C   UNL d   1     -41.825-123.157 -52.369  0.00  0.00     0.033 A 
ATOM      6  C   UNL d   1     -41.627-122.449 -51.125  0.00  0.00     0.013 A 
ATOM      7  C   UNL d   1     -41.352-121.796 -52.355  0.00  0.00     0.046 A 
ATOM      8  C   UNL d   1     -42.103-123.817 -51.126  0.00  0.00     0.013 A 
ATOM      9  C   UNL d   1     -42.071-123.817 -51.950  0.00  0.00     0.007 A 
ATOM     10  O   UNL d   1     -41.146-121.355 -53.679  0.00  0.00    -0.279 OA
ATOM     11  C   UNL d   1     -41.401-121.750 -50.703  0.00  0.00     0.001 A 
ATOM     12  C   UNL d   1     -41.125-121.097 -51.934  0.00  0.00     0.004 A 
ATOM     13  C   UNL d   1     -41.154-121.089 -51.121  0.00  0.00     0.000 A 
ENDROOT
BRANCH   1  14
ATOM     14  S   UNL d   1     -41.922-123.155 -49.879  0.00  0.00     0.271 S 
ATOM     15  O   UNL d   1     -41.150-123.452 -49.882  0.00  0.00    -0.200 OA
ATOM     16  O   UNL d   1     -42.720-122.847 -49.903  0.00  0.00    -0.200 OA
BRANCH  14  17
ATOM     17  N   UNL d   1     -41.969-123.159 -49.031  0.00  0.00    -0.229 N 
BRANCH  17  18
ATOM     18  C   UNL d   1     -41.323-123.506 -48.640  0.00  0.00     0.092 C 
ATOM     19  C   UNL d   1     -41.171-123.413 -47.848  0.00  0.00     0.021 C 
ENDBRANCH  17  18
BRANCH  17  20
ATOM     20  C   UNL d   1     -42.602-122.846 -48.629  0.00  0.00     0.092 C 
ATOM     21  C   UNL d   1     -42.738-123.063 -47.839  0.00  0.00     0.021 C 
ENDBRANCH  17  20
ENDBRANCH  14  17
ENDBRANCH   1  14
TORSDOF 4
ENDMDL
MODEL 3
REMARK VINA RESULT:      -2.7      1.444      3.604
REMARK  4 active torsions:
REMARK  status: ('A' for Active; 'I' for Inactive)
REMARK    1  A    between atoms: C_2  and  S_1 
REMARK    2  A    between atoms: N_9  and  S_1 
REMARK    3  A    between atoms: C_18  and  N_9 
REMARK    4  A    between atoms: C_19  and  N_9 
ROOT
ATOM      1  C   UNL d   1     -41.598-122.735 -53.180  0.00  0.00     0.104 A 
ATOM      2  C   UNL d   1     -41.441-122.650 -50.430  0.00  0.00     0.225 A 
ATOM      3  S   UNL d   1     -41.123-123.560 -50.936  0.00  0.00    -0.046 SA
ATOM      4  C   UNL d   1     -41.549-122.607 -51.753  0.00  0.00     0.010 A 
ATOM      5  C   UNL d   1     -41.241-123.395 -51.713  0.00  0.00     0.033 A 
ATOM      6  C   UNL d   1     -41.729-122.273 -52.483  0.00  0.00     0.013 A 
ATOM      7  C   UNL d   1     -41.668-122.178 -51.068  0.00  0.00     0.046 A 
ATOM      8  C   UNL d   1     -41.302-123.490 -53.143  0.00  0.00     0.013 A 
ATOM      9  C   UNL d   1     -41.125-123.816 -52.406  0.00  0.00     0.007 A 
ATOM     10  O   UNL d   1     -41.521-122.309 -49.671  0.00  0.00    -0.279 OA
ATOM     11  C   UNL d   1     -42.037-121.485 -52.523  0.00  0.00     0.001 A 
ATOM     12  C   UNL d   1     -41.976-121.391 -51.107  0.00  0.00     0.004 A 
ATOM     13  C   UNL d   1     -42.153-121.063 -51.830  0.00  0.00     0.000 A 
ENDROOT
BRANCH   1  14
ATOM     14  S   UNL d   1     -41.776-122.409 -53.938  0.00  0.00     0.271 S 
ATOM     15  O   UNL d   1     -42.403-122.948 -53.986  0.00  0.00    -0.200 OA
ATOM     16  O   UNL d   1     -41.123-121.862 -53.865  0.00  0.00    -0.200 OA
BRANCH  14  17
ATOM     17  N   UNL d   1     -41.947-122.074 -54.700  0.00  0.00    -0.229 N 
BRANCH  17  18
ATOM     18  C   UNL d   1     -41.293-121.981 -55.203  0.00  0.00     0.092 C 
ATOM     19  C   UNL d   1     -41.326-121.605 -55.922  0.00  0.00     0.021 C 
ENDBRANCH  17  18
BRANCH  17  20
ATOM     20  C   UNL d   1     -42.700-121.859 -54.921  0.00  0.00     0.092 C 
ATOM     21  C   UNL d   1     -43.010-122.128 -55.642  0.00  0.00     0.021 C 
ENDBRANCH  17  20
ENDBRANCH  14  17
ENDBRANCH   1  14
TORSDOF 4
ENDMDL
