MODEL 1
REMARK VINA RESULT:      -0.4      0.000      0.000
REMARK  4 active torsions:
REMARK  status: ('A' for Active; 'I' for Inactive)
REMARK    1  A    between atoms: C_2  and  S_1 
REMARK    2  A    between atoms: N_3  and  S_1 
REMARK    3  A    between atoms: C_7  and  N_4 
REMARK    4  A    between atoms: O_16  and  C_13 
ROOT
ATOM      1  N   UNL d   1      29.476  17.418 -24.092  0.00  0.00    -0.226 N 
ATOM      2  N   UNL d   1      30.979  16.778 -24.357  0.00  0.00    -0.300 N 
ATOM      3  C   UNL d   1      29.909  17.108 -23.447  0.00  0.00     0.111 A 
ATOM      4  C   UNL d   1      29.790  17.408 -24.849  0.00  0.00     0.111 A 
ATOM      5  C   UNL d   1      30.544  17.087 -24.981  0.00  0.00     0.100 A 
ATOM      6  C   UNL d   1      30.660  16.792 -23.605  0.00  0.00     0.100 A 
ENDROOT
BRANCH   1   7
ATOM      7  S   UNL d   1      28.727  17.737 -23.960  0.00  0.00     0.274 S 
ATOM      8  O   UNL d   1      29.061  18.519 -23.952  0.00  0.00    -0.200 OA
ATOM      9  O   UNL d   1      27.973  18.058 -23.828  0.00  0.00    -0.200 OA
BRANCH   7  10
ATOM     10  C   UNL d   1      28.400  16.974 -23.968  0.00  0.00     0.131 A 
ATOM     11  C   UNL d   1      28.080  16.658 -23.285  0.00  0.00     0.152 A 
ATOM     12  F   UNL d   1      28.077  17.098 -22.574  0.00  0.00    -0.203 F 
ATOM     13  C   UNL d   1      27.755  15.900 -23.293  0.00  0.00     0.030 A 
ATOM     14  C   UNL d   1      27.750  15.453 -23.985  0.00  0.00     0.002 A 
ATOM     15  C   UNL d   1      28.073  15.778 -24.664  0.00  0.00     0.001 A 
ATOM     16  C   UNL d   1      28.398  16.537 -24.656  0.00  0.00     0.015 A 
ENDBRANCH   7  10
ENDBRANCH   1   7
BRANCH   2  17
ATOM     17  C   UNL d   1      31.722  16.467 -24.512  0.00  0.00     0.086 A 
ATOM     18  C   UNL d   1      32.396  16.900 -24.260  0.00  0.00     0.110 A 
ATOM     19  C   UNL d   1      33.141  16.583 -24.418  0.00  0.00     0.026 A 
ATOM     20  C   UNL d   1      33.241  15.878 -24.803  0.00  0.00     0.002 A 
ATOM     21  C   UNL d   1      32.585  15.459 -25.047  0.00  0.00     0.002 A 
ATOM     22  C   UNL d   1      31.828  15.753 -24.901  0.00  0.00     0.019 A 
BRANCH  18  23
ATOM     23  O   UNL d   1      32.300  17.634 -23.859  0.00  0.00    -0.327 OA
ATOM     24  C   UNL d   1      32.957  18.091 -23.706  0.00  0.00     0.181 C 
ENDBRANCH  18  23
ENDBRANCH   2  17
TORSDOF 4
ENDMDL
MODEL 2
REMARK VINA RESULT:       0.8      1.466      2.011
REMARK  4 active torsions:
REMARK  status: ('A' for Active; 'I' for Inactive)
REMARK    1  A    between atoms: C_2  and  S_1 
REMARK    2  A    between atoms: N_3  and  S_1 
REMARK    3  A    between atoms: C_7  and  N_4 
REMARK    4  A    between atoms: O_16  and  C_13 
ROOT
ATOM      1  N   UNL d   1      30.037  16.519 -24.607  0.00  0.00    -0.226 N 
ATOM      2  N   UNL d   1      31.315  17.570 -24.585  0.00  0.00    -0.300 N 
ATOM      3  C   UNL d   1      30.015  17.201 -25.089  0.00  0.00     0.111 A 
ATOM      4  C   UNL d   1      30.684  16.368 -24.127  0.00  0.00     0.111 A 
ATOM      5  C   UNL d   1      31.325  16.895 -24.116  0.00  0.00     0.100 A 
ATOM      6  C   UNL d   1      30.668  17.714 -25.061  0.00  0.00     0.100 A 
ENDROOT
BRANCH   1   7
ATOM      7  S   UNL d   1      29.400  15.995 -24.618  0.00  0.00     0.274 S 
ATOM      8  O   UNL d   1      29.853  15.454 -25.092  0.00  0.00    -0.200 OA
ATOM      9  O   UNL d   1      28.759  15.468 -24.628  0.00  0.00    -0.200 OA
BRANCH   7  10
ATOM     10  C   UNL d   1      28.958  16.523 -24.155  0.00  0.00     0.131 A 
ATOM     11  C   UNL d   1      28.743  16.319 -23.392  0.00  0.00     0.152 A 
ATOM     12  F   UNL d   1      28.965  15.579 -23.071  0.00  0.00    -0.203 F 
ATOM     13  C   UNL d   1      28.303  16.844 -22.932  0.00  0.00     0.030 A 
ATOM     14  C   UNL d   1      28.076  17.576 -23.231  0.00  0.00     0.002 A 
ATOM     15  C   UNL d   1      28.296  17.771 -23.996  0.00  0.00     0.001 A 
ATOM     16  C   UNL d   1      28.736  17.246 -24.457  0.00  0.00     0.015 A 
ENDBRANCH   7  10
ENDBRANCH   1   7
BRANCH   2  17
ATOM     17  C   UNL d   1      31.960  18.076 -24.558  0.00  0.00     0.086 A 
ATOM     18  C   UNL d   1      31.984  18.657 -23.951  0.00  0.00     0.110 A 
ATOM     19  C   UNL d   1      32.635  19.165 -23.927  0.00  0.00     0.026 A 
ATOM     20  C   UNL d   1      33.241  19.120 -24.462  0.00  0.00     0.002 A 
ATOM     21  C   UNL d   1      33.215  18.555 -25.049  0.00  0.00     0.002 A 
ATOM     22  C   UNL d   1      32.577  18.035 -25.097  0.00  0.00     0.019 A 
BRANCH  18  23
ATOM     23  O   UNL d   1      31.357  18.709 -23.392  0.00  0.00    -0.327 OA
ATOM     24  C   UNL d   1      31.473  19.135 -22.706  0.00  0.00     0.181 C 
ENDBRANCH  18  23
ENDBRANCH   2  17
TORSDOF 4
ENDMDL
MODEL 3
REMARK VINA RESULT:       1.0      4.033      5.641
REMARK  4 active torsions:
REMARK  status: ('A' for Active; 'I' for Inactive)
REMARK    1  A    between atoms: C_2  and  S_1 
REMARK    2  A    between atoms: N_3  and  S_1 
REMARK    3  A    between atoms: C_7  and  N_4 
REMARK    4  A    between atoms: O_16  and  C_13 
ROOT
ATOM      1  N   UNL d   1      32.707  20.894 -21.548  0.00  0.00    -0.226 N 
ATOM      2  N   UNL d   1      32.633  19.995 -22.935  0.00  0.00    -0.300 N 
ATOM      3  C   UNL d   1      32.122  20.301 -21.621  0.00  0.00     0.111 A 
ATOM      4  C   UNL d   1      33.239  21.032 -22.155  0.00  0.00     0.111 A 
ATOM      5  C   UNL d   1      33.203  20.581 -22.850  0.00  0.00     0.100 A 
ATOM      6  C   UNL d   1      32.106  19.863 -22.327  0.00  0.00     0.100 A 
ENDROOT
BRANCH   1   7
ATOM      7  S   UNL d   1      32.743  21.343 -20.857  0.00  0.00     0.274 S 
ATOM      8  O   UNL d   1      32.886  20.637 -20.406  0.00  0.00    -0.200 OA
ATOM      9  O   UNL d   1      32.780  21.794 -20.161  0.00  0.00    -0.200 OA
BRANCH   7  10
ATOM     10  C   UNL d   1      32.603  22.033 -21.297  0.00  0.00     0.131 A 
ATOM     11  C   UNL d   1      31.903  22.445 -21.201  0.00  0.00     0.152 A 
ATOM     12  F   UNL d   1      31.322  22.178 -20.662  0.00  0.00    -0.203 F 
ATOM     13  C   UNL d   1      31.764  23.130 -21.638  0.00  0.00     0.030 A 
ATOM     14  C   UNL d   1      32.324  23.408 -22.174  0.00  0.00     0.002 A 
ATOM     15  C   UNL d   1      33.023  22.988 -22.262  0.00  0.00     0.001 A 
ATOM     16  C   UNL d   1      33.162  22.302 -21.825  0.00  0.00     0.015 A 
ENDBRANCH   7  10
ENDBRANCH   1   7
BRANCH   2  17
ATOM     17  C   UNL d   1      32.617  19.562 -23.632  0.00  0.00     0.086 A 
ATOM     18  C   UNL d   1      32.829  18.749 -23.600  0.00  0.00     0.110 A 
ATOM     19  C   UNL d   1      32.811  18.317 -24.304  0.00  0.00     0.026 A 
ATOM     20  C   UNL d   1      32.598  18.648 -25.011  0.00  0.00     0.002 A 
ATOM     21  C   UNL d   1      32.392  19.435 -25.039  0.00  0.00     0.002 A 
ATOM     22  C   UNL d   1      32.402  19.891 -24.351  0.00  0.00     0.019 A 
BRANCH  18  23
ATOM     23  O   UNL d   1      33.051  18.400 -22.868  0.00  0.00    -0.327 OA
ATOM     24  C   UNL d   1      33.241  17.607 -22.849  0.00  0.00     0.181 C 
ENDBRANCH  18  23
ENDBRANCH   2  17
TORSDOF 4
ENDMDL
