MODEL 1
REMARK VINA RESULT:      31.1      0.000      0.000
REMARK  5 active torsions:
REMARK  status: ('A' for Active; 'I' for Inactive)
REMARK    1  A    between atoms: C_3  and  S_1 
REMARK    2  A    between atoms: N_2  and  C_4 
REMARK    3  A    between atoms: N_5  and  C_16 
REMARK    4  A    between atoms: C_11  and  N_5 
REMARK    5  A    between atoms: C_17  and  C_11 
ROOT
ATOM      1  N   UNL d   1     -55.377-102.721 -41.824  0.00  0.00    -0.244 NA
ENDROOT
BRANCH   1   2
ATOM      2  C   UNL d   1     -55.402-102.699 -40.995  0.00  0.00     0.082 A 
ATOM      3  C   UNL d   1     -54.737-102.513 -40.566  0.00  0.00     0.020 A 
ATOM      4  C   UNL d   1     -54.760-102.490 -39.741  0.00  0.00     0.015 A 
ATOM      5  C   UNL d   1     -55.472-102.662 -39.363  0.00  0.00     0.107 A 
ATOM      6  C   UNL d   1     -56.137-102.848 -39.793  0.00  0.00     0.015 A 
ATOM      7  C   UNL d   1     -56.115-102.871 -40.617  0.00  0.00     0.020 A 
BRANCH   5   8
ATOM      8  S   UNL d   1     -55.500-102.641 -38.530  0.00  0.00     0.302 S 
ATOM      9  O   UNL d   1     -56.294-102.400 -38.567  0.00  0.00    -0.197 OA
ATOM     10  O   UNL d   1     -55.540-102.616 -37.703  0.00  0.00    -0.197 OA
ATOM     11  N   UNL d   1     -54.715-102.879 -38.495  0.00  0.00    -0.043 N 
ENDBRANCH   5   8
ENDBRANCH   1   2
BRANCH   1  12
ATOM     12  C   UNL d   1     -54.715-102.474 -42.226  0.00  0.00     0.099 C 
BRANCH  12  13
ATOM     13  C   UNL d   1     -54.773-101.957 -42.869  0.00  0.00     0.019 A 
ATOM     14  C   UNL d   1     -54.887-101.143 -42.711  0.00  0.00     0.003 A 
ATOM     15  C   UNL d   1     -54.945-100.625 -43.355  0.00  0.00     0.024 A 
ATOM     16  C   UNL d   1     -54.891-100.906 -44.145  0.00  0.00     0.127 A 
ATOM     17  C   UNL d   1     -54.780-101.700 -44.276  0.00  0.00     0.024 A 
ATOM     18  C   UNL d   1     -54.718-102.238 -43.659  0.00  0.00     0.003 A 
BRANCH  16  19
ATOM     19  N   UNL d   1     -54.947-100.403 -44.795  0.00  0.00    -0.114 N 
ATOM     20  O   UNL d   1     -55.172 -99.606 -44.681  0.00  0.00    -0.532 OA
ATOM     21  O   UNL d   1     -54.778-100.694 -45.554  0.00  0.00    -0.532 OA
ENDBRANCH  16  19
ENDBRANCH  12  13
ENDBRANCH   1  12
TORSDOF 5
ENDMDL
