MODEL 1
REMARK VINA RESULT:      -4.1      0.000      0.000
REMARK  4 active torsions:
REMARK  status: ('A' for Active; 'I' for Inactive)
REMARK       I    between atoms: N_2  and  C_1 
REMARK    1  A    between atoms: C_5  and  C_1 
REMARK    2  A    between atoms: C_8  and  N_2 
REMARK    3  A    between atoms: O_9  and  C_5 
REMARK    4  A    between atoms: C_11  and  O_9 
ROOT
ATOM      1  C   UNL d   1      58.530  -1.424  29.621  0.00  0.00     0.290 C 
ATOM      2  N   UNL d   1      59.235  -1.359  29.197  0.00  0.00    -0.270 N 
ATOM      3  O   UNL d   1      58.072  -2.111  29.558  0.00  0.00    -0.264 OA
ATOM      4  C   UNL d   1      59.481  -1.990  28.706  0.00  0.00     0.102 C 
ENDROOT
BRANCH   1   5
ATOM      5  C   UNL d   1      58.284  -0.808  30.104  0.00  0.00     0.184 C 
BRANCH   5   6
ATOM      6  O   UNL d   1      57.480  -0.720  30.288  0.00  0.00    -0.300 OA
BRANCH   6   7
ATOM      7  C   UNL d   1      57.246  -0.415  31.028  0.00  0.00     0.100 A 
ATOM      8  C   UNL d   1      56.877  -0.902  31.585  0.00  0.00     0.025 A 
ATOM      9  C   UNL d   1      56.647  -0.598  32.312  0.00  0.00     0.013 A 
ATOM     10  C   UNL d   1      56.282  -1.079  32.864  0.00  0.00     0.001 C 
ATOM     11  C   UNL d   1      56.786   0.196  32.484  0.00  0.00     0.058 A 
ATOM     12  C   UNL d   1      57.154   0.681  31.929  0.00  0.00     0.013 A 
ATOM     13 CL   UNL d   1      56.557   0.501  33.211  0.00  0.00    -0.082 Cl
ATOM     14  C   UNL d   1      57.385   0.375  31.198  0.00  0.00     0.026 A 
ENDBRANCH   6   7
ENDBRANCH   5   6
ENDBRANCH   1   5
BRANCH   2  15
ATOM     15  C   UNL d   1      59.686  -0.683  29.259  0.00  0.00     0.067 A 
ATOM     16  C   UNL d   1      60.280  -0.645  29.844  0.00  0.00     0.018 A 
ATOM     17  C   UNL d   1      60.733   0.034  29.906  0.00  0.00     0.002 A 
ATOM     18  C   UNL d   1      60.604   0.679  29.393  0.00  0.00     0.000 A 
ATOM     19  C   UNL d   1      60.017   0.649  28.812  0.00  0.00     0.002 A 
ATOM     20  C   UNL d   1      59.554  -0.046  28.748  0.00  0.00     0.018 A 
ENDBRANCH   2  15
TORSDOF 4
ENDMDL
MODEL 2
REMARK VINA RESULT:      -3.2      1.403      2.125
REMARK  4 active torsions:
REMARK  status: ('A' for Active; 'I' for Inactive)
REMARK       I    between atoms: N_2  and  C_1 
REMARK    1  A    between atoms: C_5  and  C_1 
REMARK    2  A    between atoms: C_8  and  N_2 
REMARK    3  A    between atoms: O_9  and  C_5 
REMARK    4  A    between atoms: C_11  and  O_9 
ROOT
ATOM      1  C   UNL d   1      59.057   0.428  31.189  0.00  0.00     0.290 C 
ATOM      2  N   UNL d   1      59.463   0.351  30.475  0.00  0.00    -0.270 N 
ATOM      3  O   UNL d   1      59.460   0.681  31.868  0.00  0.00    -0.264 OA
ATOM      4  C   UNL d   1      60.280   0.530  30.443  0.00  0.00     0.102 C 
ENDROOT
BRANCH   1   5
ATOM      5  C   UNL d   1      58.257   0.254  31.227  0.00  0.00     0.184 C 
BRANCH   5   6
ATOM      6  O   UNL d   1      57.788   0.582  31.826  0.00  0.00    -0.300 OA
BRANCH   6   7
ATOM      7  C   UNL d   1      57.152   0.152  32.151  0.00  0.00     0.100 A 
ATOM      8  C   UNL d   1      56.613   0.518  32.661  0.00  0.00     0.025 A 
ATOM      9  C   UNL d   1      55.989   0.090  32.978  0.00  0.00     0.013 A 
ATOM     10  C   UNL d   1      55.456   0.452  33.483  0.00  0.00     0.001 C 
ATOM     11  C   UNL d   1      55.901  -0.707  32.787  0.00  0.00     0.058 A 
ATOM     12  C   UNL d   1      56.438  -1.071  32.279  0.00  0.00     0.013 A 
ATOM     13 CL   UNL d   1      55.277  -1.134  33.105  0.00  0.00    -0.082 Cl
ATOM     14  C   UNL d   1      57.066  -0.642  31.960  0.00  0.00     0.026 A 
ENDBRANCH   6   7
ENDBRANCH   5   6
ENDBRANCH   1   5
BRANCH   2  15
ATOM     15  C   UNL d   1      59.068   0.103  29.807  0.00  0.00     0.067 A 
ATOM     16  C   UNL d   1      58.610   0.653  29.380  0.00  0.00     0.018 A 
ATOM     17  C   UNL d   1      58.212   0.403  28.709  0.00  0.00     0.002 A 
ATOM     18  C   UNL d   1      58.264  -0.390  28.456  0.00  0.00     0.000 A 
ATOM     19  C   UNL d   1      58.716  -0.941  28.874  0.00  0.00     0.002 A 
ATOM     20  C   UNL d   1      59.123  -0.685  29.561  0.00  0.00     0.018 A 
ENDBRANCH   2  15
TORSDOF 4
ENDMDL
