MODEL 1
REMARK VINA RESULT:      75.6      0.000      0.000
REMARK  5 active torsions:
REMARK  status: ('A' for Active; 'I' for Inactive)
REMARK    1  A    between atoms: S_6  and  C_2 
REMARK    2  A    between atoms: C_16  and  S_6 
REMARK    3  A    between atoms: C_8  and  C_16 
REMARK       I    between atoms: N_13  and  C_8 
REMARK    4  A    between atoms: C_19  and  N_13 
REMARK    5  A    between atoms: C_18  and  C_19 
ROOT
ATOM      1  C   UNL d   1      61.314  48.675  50.230  0.00  0.00     0.286 C 
ATOM      2  N   UNL d   1      61.129  47.891  50.090  0.00  0.00    -0.206 NA
ATOM      3  O   UNL d   1      61.856  49.064  49.747  0.00  0.00    -0.265 OA
ENDROOT
BRANCH   1   4
ATOM      4  C   UNL d   1      60.961  49.085  50.855  0.00  0.00     0.098 C 
BRANCH   4   5
ATOM      5  S   UNL d   1      60.435  49.704  50.699  0.00  0.00    -0.080 SA
BRANCH   5   6
ATOM      6  C   UNL d   1      59.691  49.702  51.052  0.00  0.00     0.049 A 
ATOM      7  C   UNL d   1      59.533  49.703  51.865  0.00  0.00     0.087 A 
ATOM      8  N   UNL d   1      58.714  49.699  51.971  0.00  0.00    -0.302 N 
ATOM      9  C   UNL d   1      58.365  49.695  51.221  0.00  0.00     0.065 A 
ATOM     10  C   UNL d   1      58.310  49.700  52.688  0.00  0.00     0.100 C 
ATOM     11  C   UNL d   1      58.970  49.697  50.655  0.00  0.00     0.024 A 
ATOM     12  C   UNL d   1      57.569  49.691  50.981  0.00  0.00     0.018 A 
ATOM     13  C   UNL d   1      58.781  49.693  49.850  0.00  0.00     0.002 A 
ATOM     14  C   UNL d   1      57.992  49.689  49.615  0.00  0.00     0.000 A 
ATOM     15  C   UNL d   1      57.386  49.687  50.180  0.00  0.00     0.002 A 
ENDBRANCH   5   6
ENDBRANCH   4   5
ENDBRANCH   1   4
BRANCH   2  16
ATOM     16  C   UNL d   1      61.480  47.490  49.471  0.00  0.00     0.102 C 
BRANCH  16  17
ATOM     17  C   UNL d   1      61.701  46.702  49.525  0.00  0.00     0.021 A 
ATOM     18  C   UNL d   1      61.219  46.128  49.175  0.00  0.00     0.028 A 
ATOM     19  C   UNL d   1      61.439  45.321  49.226  0.00  0.00     0.119 A 
ATOM     20  O   UNL d   1      61.097  44.641  48.950  0.00  0.00    -0.300 OA
ATOM     21  C   UNL d   1      62.130  45.121  49.625  0.00  0.00     0.119 A 
ATOM     22  C   UNL d   1      61.563  44.007  49.167  0.00  0.00     0.304 A 
ATOM     23  O   UNL d   1      62.209  44.300  49.589  0.00  0.00    -0.300 OA
ATOM     24  C   UNL d   1      62.603  45.710  49.972  0.00  0.00     0.026 A 
ATOM     25  C   UNL d   1      62.375  46.496  49.913  0.00  0.00     0.004 A 
ENDBRANCH  16  17
ENDBRANCH   2  16
TORSDOF 5
ENDMDL
