MODEL 1
REMARK VINA RESULT:       1.3      0.000      0.000
REMARK  5 active torsions:
REMARK  status: ('A' for Active; 'I' for Inactive)
REMARK    1  A    between atoms: C_11  and  C_4 
REMARK    2  A    between atoms: N_10  and  C_5 
REMARK    3  A    between atoms: C_12  and  C_8 
REMARK    4  A    between atoms: C_16  and  N_10 
REMARK    5  A    between atoms: C_17  and  C_16 
ROOT
ATOM      1  C   UNL d   1      58.614  -1.467  30.082  0.00  0.00     0.167 A 
ATOM      2  N   UNL d   1      57.972  -1.091  30.450  0.00  0.00    -0.195 N 
ATOM      3  N   UNL d   1      59.258  -1.029  29.859  0.00  0.00    -0.231 NA
ATOM      4  C   UNL d   1      58.591  -2.258  29.950  0.00  0.00     0.057 A 
ATOM      5  C   UNL d   1      58.005  -0.296  30.578  0.00  0.00     0.167 A 
ATOM      6  N   UNL d   1      57.313  -2.314  30.538  0.00  0.00    -0.161 NA
ATOM      7  C   UNL d   1      58.649   0.147  30.357  0.00  0.00     0.054 A 
ATOM      8  C   UNL d   1      59.287  -0.227  29.991  0.00  0.00     0.063 A 
ATOM      9  C   UNL d   1      57.941  -2.682  30.177  0.00  0.00     0.124 A 
ENDROOT
BRANCH   5  10
ATOM     10  N   UNL d   1      57.351   0.087  30.954  0.00  0.00    -0.224 NA
BRANCH  10  11
ATOM     11  C   UNL d   1      57.169   0.681  31.522  0.00  0.00     0.120 C 
BRANCH  11  12
ATOM     12  C   UNL d   1      56.722   0.498  32.206  0.00  0.00     0.101 A 
ATOM     13  N   UNL d   1      57.036   0.664  32.978  0.00  0.00    -0.242 NA
ATOM     14  C   UNL d   1      56.580   0.477  33.664  0.00  0.00     0.099 A 
ATOM     15  C   UNL d   1      55.814   0.124  33.585  0.00  0.00     0.021 A 
ATOM     16  C   UNL d   1      55.505  -0.040  32.807  0.00  0.00     0.003 A 
ATOM     17  C   UNL d   1      55.958   0.146  32.128  0.00  0.00     0.021 A 
ENDBRANCH  11  12
ENDBRANCH  10  11
ENDBRANCH   5  10
BRANCH   8  18
ATOM     18  C   UNL d   1      59.966   0.225  29.755  0.00  0.00     0.036 C 
ATOM     19  C   UNL d   1      60.637   0.674  29.517  0.00  0.00     0.006 C 
ATOM     20  C   UNL d   1      60.619   0.317  30.288  0.00  0.00     0.006 C 
ATOM     21  C   UNL d   1      59.983   0.582  28.982  0.00  0.00     0.006 C 
ENDBRANCH   8  18
BRANCH   4  22
ATOM     22  C   UNL d   1      59.219  -2.625  29.589  0.00  0.00     0.005 A 
ATOM     23  C   UNL d   1      59.913  -2.754  30.000  0.00  0.00     0.001 A 
ATOM     24  C   UNL d   1      60.531  -3.115  29.645  0.00  0.00     0.011 A 
ATOM     25  C   UNL d   1      60.481  -3.365  28.864  0.00  0.00     0.058 A 
ATOM     26  C   UNL d   1      59.802  -3.242  28.455  0.00  0.00     0.011 A 
ATOM     27 CL   UNL d   1      61.133  -3.746  28.491  0.00  0.00    -0.082 Cl
ATOM     28  C   UNL d   1      59.168  -2.870  28.820  0.00  0.00     0.001 A 
ENDBRANCH   4  22
TORSDOF 5
ENDMDL
