MODEL 1
REMARK VINA RESULT:      88.4      0.000      0.000
REMARK  6 active torsions:
REMARK  status: ('A' for Active; 'I' for Inactive)
REMARK    1  A    between atoms: C_6  and  C_1 
REMARK    2  A    between atoms: C_8  and  C_2 
REMARK    3  A    between atoms: C_9  and  C_4 
REMARK    4  A    between atoms: C_12  and  C_8 
REMARK    5  A    between atoms: O_27  and  C_11 
REMARK    6  A    between atoms: C_30  and  O_27 
ROOT
ATOM      1  C   UNL d   1     -58.361 -99.274 -42.968  0.00  0.00     0.306 A 
ATOM      2  C   UNL d   1     -57.794 -99.284 -43.568  0.00  0.00     0.114 A 
ATOM      3  N   UNL d   1     -58.112 -99.354 -42.178  0.00  0.00    -0.152 NA
ATOM      4  C   UNL d   1     -56.995 -99.371 -43.385  0.00  0.00     0.094 A 
ATOM      5  C   UNL d   1     -57.314 -99.441 -41.999  0.00  0.00     0.371 A 
ATOM      6  N   UNL d   1     -56.749 -99.450 -42.610  0.00  0.00    -0.191 NA
ATOM      7  O   UNL d   1     -57.063 -99.521 -41.210  0.00  0.00    -0.242 OA
ATOM      8  O   UNL d   1     -58.999 -99.251 -42.466  0.00  0.00    -0.266 OA
ENDROOT
BRANCH   4   9
ATOM      9  C   UNL d   1     -56.431 -99.380 -43.996  0.00  0.00     0.020 A 
ATOM     10  C   UNL d   1     -55.883 -99.989 -44.045  0.00  0.00     0.029 A 
ATOM     11  C   UNL d   1     -55.318 -99.998 -44.655  0.00  0.00     0.139 A 
ATOM     12  C   UNL d   1     -55.305 -99.388 -45.221  0.00  0.00     0.218 A 
ATOM     13  C   UNL d   1     -55.861 -98.774 -45.167  0.00  0.00     0.044 A 
ATOM     14  O   UNL d   1     -54.753 -99.397 -45.818  0.00  0.00    -0.284 OA
ATOM     15  C   UNL d   1     -56.425 -98.765 -44.557  0.00  0.00     0.005 A 
BRANCH  11  16
ATOM     16  O   UNL d   1     -54.774-100.608 -44.699  0.00  0.00    -0.302 OA
BRANCH  16  17
ATOM     17  C   UNL d   1     -55.027-101.372 -44.725  0.00  0.00     0.123 C 
ATOM     18  C   UNL d   1     -55.247-101.754 -44.035  0.00  0.00     0.029 C 
ENDBRANCH  16  17
ENDBRANCH  11  16
ENDBRANCH   4   9
BRANCH   2  19
ATOM     19  C   UNL d   1     -58.045 -99.204 -44.359  0.00  0.00     0.201 C 
ATOM     20  O   UNL d   1     -57.394 -99.353 -44.669  0.00  0.00    -0.286 OA
BRANCH  19  21
ATOM     21  C   UNL d   1     -58.473 -99.088 -44.865  0.00  0.00     0.039 A 
ATOM     22  C   UNL d   1     -59.262 -98.855 -44.878  0.00  0.00     0.004 A 
ATOM     23  C   UNL d   1     -59.642 -98.757 -45.596  0.00  0.00     0.011 A 
ATOM     24  C   UNL d   1     -59.244 -98.890 -46.306  0.00  0.00     0.058 A 
ATOM     25  C   UNL d   1     -58.446 -99.125 -46.290  0.00  0.00     0.011 A 
ATOM     26 CL   UNL d   1     -59.633 -98.790 -47.016  0.00  0.00    -0.082 Cl
ATOM     27  C   UNL d   1     -58.065 -99.223 -45.572  0.00  0.00     0.004 A 
ENDBRANCH  19  21
ENDBRANCH   2  19
BRANCH   1  28
ATOM     28  C   UNL d   1     -59.096 -99.186 -43.252  0.00  0.00     0.470 C 
ATOM     29  F   UNL d   1     -59.737 -98.791 -42.929  0.00  0.00    -0.162 F 
ATOM     30  F   UNL d   1     -59.758 -99.111 -43.516  0.00  0.00    -0.162 F 
ATOM     31  F   UNL d   1     -59.413 -99.473 -43.959  0.00  0.00    -0.162 F 
ENDBRANCH   1  28
TORSDOF 6
ENDMDL
