MODEL 1
REMARK VINA RESULT:      24.5      0.000      0.000
REMARK  4 active torsions:
REMARK  status: ('A' for Active; 'I' for Inactive)
REMARK    1  A    between atoms: S_6  and  C_1 
REMARK    2  A    between atoms: C_7  and  S_6 
REMARK    3  A    between atoms: C_10  and  C_7 
REMARK    4  A    between atoms: C_11  and  C_10 
ROOT
ATOM      1  C   UNL d   1     -54.871 -99.902 -44.722  0.00  0.00     0.194 A 
ATOM      2  N   UNL d   1     -54.837-100.178 -43.926  0.00  0.00    -0.220 NA
ATOM      3  N   UNL d   1     -54.847-100.564 -45.216  0.00  0.00    -0.220 NA
ATOM      4  C   UNL d   1     -54.795-100.984 -43.942  0.00  0.00     0.101 A 
ATOM      5  C   UNL d   1     -54.801-101.228 -44.756  0.00  0.00     0.101 A 
ATOM      6  C   UNL d   1     -54.749-101.584 -43.368  0.00  0.00     0.021 A 
ATOM      7  C   UNL d   1     -54.762-102.029 -44.946  0.00  0.00     0.021 A 
ATOM      8  C   UNL d   1     -54.718-102.594 -44.347  0.00  0.00     0.002 A 
ATOM      9  C   UNL d   1     -54.712-102.359 -43.560  0.00  0.00     0.002 A 
ENDROOT
BRANCH   1  10
ATOM     10  S   UNL d   1     -54.909 -99.101 -44.536  0.00  0.00    -0.048 SA
BRANCH  10  11
ATOM     11  C   UNL d   1     -55.618 -98.761 -44.279  0.00  0.00     0.038 C 
BRANCH  11  12
ATOM     12  C   UNL d   1     -56.274 -98.761 -44.778  0.00  0.00     0.007 C 
BRANCH  12  13
ATOM     13  C   UNL d   1     -57.016 -98.769 -44.444  0.00  0.00     0.001 C 
ATOM     14  C   UNL d   1     -57.672 -98.798 -44.944  0.00  0.00     0.000 C 
ATOM     15  C   UNL d   1     -57.344 -98.755 -43.691  0.00  0.00     0.000 C 
ENDBRANCH  12  13
ENDBRANCH  11  12
ENDBRANCH  10  11
ENDBRANCH   1  10
TORSDOF 4
ENDMDL
MODEL 2
REMARK VINA RESULT:      27.1      5.505      6.754
REMARK  4 active torsions:
REMARK  status: ('A' for Active; 'I' for Inactive)
REMARK    1  A    between atoms: S_6  and  C_1 
REMARK    2  A    between atoms: C_7  and  S_6 
REMARK    3  A    between atoms: C_10  and  C_7 
REMARK    4  A    between atoms: C_11  and  C_10 
ROOT
ATOM      1  C   UNL d   1     -55.477-102.291 -38.515  0.00  0.00     0.194 A 
ATOM      2  N   UNL d   1     -55.332-102.859 -39.120  0.00  0.00    -0.220 NA
ATOM      3  N   UNL d   1     -55.344-101.543 -38.838  0.00  0.00    -0.220 NA
ATOM      4  C   UNL d   1     -55.118-102.462 -39.790  0.00  0.00     0.101 A 
ATOM      5  C   UNL d   1     -55.126-101.631 -39.612  0.00  0.00     0.101 A 
ATOM      6  C   UNL d   1     -54.907-102.682 -40.564  0.00  0.00     0.021 A 
ATOM      7  C   UNL d   1     -54.929-101.083 -40.196  0.00  0.00     0.021 A 
ATOM      8  C   UNL d   1     -54.724-101.341 -40.952  0.00  0.00     0.002 A 
ATOM      9  C   UNL d   1     -54.717-102.144 -41.124  0.00  0.00     0.002 A 
ENDROOT
BRANCH   1  10
ATOM     10  S   UNL d   1     -55.674-102.835 -37.929  0.00  0.00    -0.048 SA
BRANCH  10  11
ATOM     11  C   UNL d   1     -55.884-102.582 -37.171  0.00  0.00     0.038 C 
BRANCH  11  12
ATOM     12  C   UNL d   1     -55.461-101.971 -36.814  0.00  0.00     0.007 C 
BRANCH  12  13
ATOM     13  C   UNL d   1     -55.011-102.142 -36.158  0.00  0.00     0.001 C 
ATOM     14  C   UNL d   1     -54.738-101.517 -35.694  0.00  0.00     0.000 C 
ATOM     15  C   UNL d   1     -54.717-102.809 -35.780  0.00  0.00     0.000 C 
ENDBRANCH  12  13
ENDBRANCH  11  12
ENDBRANCH  10  11
ENDBRANCH   1  10
TORSDOF 4
ENDMDL
MODEL 3
REMARK VINA RESULT:      27.3      4.886      6.000
REMARK  4 active torsions:
REMARK  status: ('A' for Active; 'I' for Inactive)
REMARK    1  A    between atoms: S_6  and  C_1 
REMARK    2  A    between atoms: C_7  and  S_6 
REMARK    3  A    between atoms: C_10  and  C_7 
REMARK    4  A    between atoms: C_11  and  C_10 
ROOT
ATOM      1  C   UNL d   1     -55.315-102.763 -39.424  0.00  0.00     0.194 A 
ATOM      2  N   UNL d   1     -56.062-102.820 -39.040  0.00  0.00    -0.220 NA
ATOM      3  N   UNL d   1     -54.734-102.737 -38.837  0.00  0.00    -0.220 NA
ATOM      4  C   UNL d   1     -55.934-102.829 -38.243  0.00  0.00     0.101 A 
ATOM      5  C   UNL d   1     -55.095-102.777 -38.115  0.00  0.00     0.101 A 
ATOM      6  C   UNL d   1     -56.417-102.875 -37.567  0.00  0.00     0.021 A 
ATOM      7  C   UNL d   1     -54.795-102.774 -37.347  0.00  0.00     0.021 A 
ATOM      8  C   UNL d   1     -55.308-102.821 -36.702  0.00  0.00     0.002 A 
ATOM      9  C   UNL d   1     -56.118-102.872 -36.826  0.00  0.00     0.002 A 
ENDROOT
BRANCH   1  10
ATOM     10  S   UNL d   1     -55.611-102.766 -40.192  0.00  0.00    -0.048 SA
BRANCH  10  11
ATOM     11  C   UNL d   1     -55.197-102.398 -40.806  0.00  0.00     0.038 C 
BRANCH  11  12
ATOM     12  C   UNL d   1     -55.369-102.595 -41.589  0.00  0.00     0.007 C 
BRANCH  12  13
ATOM     13  C   UNL d   1     -55.223-102.044 -42.169  0.00  0.00     0.001 C 
ATOM     14  C   UNL d   1     -55.669-101.351 -42.175  0.00  0.00     0.000 C 
ATOM     15  C   UNL d   1     -54.718-101.958 -42.811  0.00  0.00     0.000 C 
ENDBRANCH  12  13
ENDBRANCH  11  12
ENDBRANCH  10  11
ENDBRANCH   1  10
TORSDOF 4
ENDMDL
