MODEL 1
REMARK VINA RESULT:     102.3      0.000      0.000
REMARK  5 active torsions:
REMARK  status: ('A' for Active; 'I' for Inactive)
REMARK    1  A    between atoms: C_3  and  C_1 
REMARK    2  A    between atoms: S_2  and  C_3 
REMARK    3  A    between atoms: C_8  and  S_2 
REMARK    4  A    between atoms: C_9  and  C_3 
REMARK    5  A    between atoms: N_7  and  C_4 
ROOT
ATOM      1  C   UNL d   1      59.901  48.185  51.031  0.00  0.00     0.128 A 
ATOM      2  C   UNL d   1      59.917  48.946  51.338  0.00  0.00     0.166 A 
ATOM      3  N   UNL d   1      59.254  47.927  50.592  0.00  0.00    -0.240 NA
ATOM      4  N   UNL d   1      59.286  49.456  51.207  0.00  0.00    -0.225 NA
ATOM      5  C   UNL d   1      58.626  48.440  50.464  0.00  0.00     0.099 A 
ATOM      6  C   UNL d   1      58.635  49.203  50.767  0.00  0.00     0.101 A 
ATOM      7  C   UNL d   1      58.004  49.706  50.634  0.00  0.00     0.021 A 
ATOM      8  C   UNL d   1      57.975  48.183  50.023  0.00  0.00     0.021 A 
ATOM      9  C   UNL d   1      57.360  49.455  50.199  0.00  0.00     0.002 A 
ATOM     10  C   UNL d   1      57.348  48.693  49.894  0.00  0.00     0.002 A 
ENDROOT
BRANCH   1  11
ATOM     11  C   UNL d   1      60.528  47.671  51.159  0.00  0.00     0.129 C 
BRANCH  11  12
ATOM     12  S   UNL d   1      60.987  47.389  50.452  0.00  0.00     0.213 S 
ATOM     13  O   UNL d   1      61.325  48.007  49.911  0.00  0.00    -0.217 OA
ATOM     14  O   UNL d   1      60.998  48.220  50.415  0.00  0.00    -0.217 OA
BRANCH  12  15
ATOM     15  C   UNL d   1      61.183  46.633  50.165  0.00  0.00     0.088 A 
ATOM     16  C   UNL d   1      61.824  46.549  49.640  0.00  0.00     0.011 A 
ATOM     17  C   UNL d   1      62.014  45.795  49.358  0.00  0.00     0.001 A 
ATOM     18  C   UNL d   1      62.645  45.702  48.840  0.00  0.00     0.000 C 
ATOM     19  C   UNL d   1      61.576  45.133  49.593  0.00  0.00     0.000 A 
ATOM     20  C   UNL d   1      60.936  45.229  50.119  0.00  0.00     0.001 A 
ATOM     21  C   UNL d   1      60.749  45.983  50.398  0.00  0.00     0.011 A 
ENDBRANCH  12  15
ENDBRANCH  11  12
BRANCH  11  22
ATOM     22  C   UNL d   1      60.835  47.341  51.898  0.00  0.00     0.135 C 
ATOM     23  N   UNL d   1      60.649  46.558  52.267  0.00  0.00    -0.146 N 
ENDBRANCH  11  22
ENDBRANCH   1  11
BRANCH   2  24
ATOM     24  N   UNL d   1      60.572  49.199  51.779  0.00  0.00    -0.284 N 
ATOM     25  C   UNL d   1      61.310  49.301  51.401  0.00  0.00     0.108 A 
ATOM     26  C   UNL d   1      61.964  49.556  51.855  0.00  0.00     0.142 A 
ATOM     27  O   UNL d   1      61.881  49.706  52.672  0.00  0.00    -0.300 OA
ATOM     28  C   UNL d   1      61.144  49.600  53.033  0.00  0.00     0.142 A 
ATOM     29  C   UNL d   1      60.488  49.348  52.595  0.00  0.00     0.108 A 
ENDBRANCH   2  24
TORSDOF 5
ENDMDL
