MODEL 1
REMARK VINA RESULT:     -10.9      0.000      0.000
REMARK  2 active torsions:
REMARK  status: ('A' for Active; 'I' for Inactive)
REMARK    1  A    between atoms: N_2  and  S_1 
REMARK    2  A    between atoms: C_3  and  S_1 
ROOT
ATOM      1  S   UNL d   1      53.466  32.482  53.775  0.00  0.00     0.274 S 
ATOM      2  O   UNL d   1      54.107  32.559  53.248  0.00  0.00    -0.200 OA
ATOM      3  O   UNL d   1      52.830  32.410  54.305  0.00  0.00    -0.200 OA
ENDROOT
BRANCH   1   4
ATOM      4  N   UNL d   1      53.134  31.896  53.284  0.00  0.00    -0.212 N 
ATOM      5  C   UNL d   1      52.722  31.938  52.578  0.00  0.00     0.193 A 
ATOM      6  N   UNL d   1      52.527  31.164  52.344  0.00  0.00    -0.223 NA
ATOM      7  C   UNL d   1      52.826  30.644  52.921  0.00  0.00     0.100 A 
ATOM      8  C   UNL d   1      53.195  31.104  53.490  0.00  0.00     0.094 A 
ATOM      9  C   UNL d   1      52.801  29.823  52.984  0.00  0.00     0.021 A 
ATOM     10  C   UNL d   1      53.554  30.728  54.149  0.00  0.00     0.020 A 
ATOM     11  C   UNL d   1      53.533  29.896  54.221  0.00  0.00     0.002 A 
ATOM     12  C   UNL d   1      53.152  29.457  53.628  0.00  0.00     0.002 A 
ENDBRANCH   1   4
BRANCH   1  13
ATOM     13  C   UNL d   1      53.804  33.067  54.261  0.00  0.00     0.122 A 
ATOM     14  C   UNL d   1      53.511  33.827  54.254  0.00  0.00     0.093 A 
ATOM     15  N   UNL d   1      52.876  34.023  53.764  0.00  0.00    -0.243 NA
ATOM     16  C   UNL d   1      53.849  34.412  54.739  0.00  0.00     0.018 A 
ATOM     17  C   UNL d   1      52.585  34.781  53.757  0.00  0.00     0.099 A 
ATOM     18  C   UNL d   1      52.911  35.384  54.238  0.00  0.00     0.021 A 
ATOM     19  C   UNL d   1      53.542  35.185  54.723  0.00  0.00     0.003 A 
ATOM     20  C   UNL d   1      54.469  34.232  55.220  0.00  0.00     0.002 A 
ATOM     21  C   UNL d   1      54.765  33.474  55.231  0.00  0.00     0.001 A 
ATOM     22  C   UNL d   1      54.438  32.874  54.750  0.00  0.00     0.014 A 
ENDBRANCH   1  13
TORSDOF 2
ENDMDL
MODEL 2
REMARK VINA RESULT:      -9.1      0.837      3.961
REMARK  2 active torsions:
REMARK  status: ('A' for Active; 'I' for Inactive)
REMARK    1  A    between atoms: N_2  and  S_1 
REMARK    2  A    between atoms: C_3  and  S_1 
ROOT
ATOM      1  S   UNL d   1      53.503  32.287  53.953  0.00  0.00     0.274 S 
ATOM      2  O   UNL d   1      54.262  32.265  53.609  0.00  0.00    -0.200 OA
ATOM      3  O   UNL d   1      52.744  32.303  54.292  0.00  0.00    -0.200 OA
ENDROOT
BRANCH   1   4
ATOM      4  N   UNL d   1      53.725  32.956  54.398  0.00  0.00    -0.212 N 
ATOM      5  C   UNL d   1      54.240  33.054  55.026  0.00  0.00     0.193 A 
ATOM      6  N   UNL d   1      54.235  33.857  55.244  0.00  0.00    -0.223 NA
ATOM      7  C   UNL d   1      53.706  34.251  54.738  0.00  0.00     0.100 A 
ATOM      8  C   UNL d   1      53.401  33.690  54.225  0.00  0.00     0.094 A 
ATOM      9  C   UNL d   1      53.478  35.041  54.693  0.00  0.00     0.021 A 
ATOM     10  C   UNL d   1      52.844  33.928  53.644  0.00  0.00     0.020 A 
ATOM     11  C   UNL d   1      52.607  34.727  53.590  0.00  0.00     0.002 A 
ATOM     12  C   UNL d   1      52.934  35.272  54.124  0.00  0.00     0.002 A 
ENDBRANCH   1   4
BRANCH   1  13
ATOM     13  C   UNL d   1      53.290  31.619  53.506  0.00  0.00     0.122 A 
ATOM     14  C   UNL d   1      53.298  30.877  53.843  0.00  0.00     0.093 A 
ATOM     15  N   UNL d   1      53.520  30.783  54.633  0.00  0.00    -0.243 NA
ATOM     16  C   UNL d   1      53.084  30.210  53.396  0.00  0.00     0.018 A 
ATOM     17  C   UNL d   1      53.528  30.043  54.969  0.00  0.00     0.099 A 
ATOM     18  C   UNL d   1      53.316  29.359  54.535  0.00  0.00     0.021 A 
ATOM     19  C   UNL d   1      53.097  29.458  53.750  0.00  0.00     0.003 A 
ATOM     20  C   UNL d   1      52.867  30.290  52.625  0.00  0.00     0.002 A 
ATOM     21  C   UNL d   1      52.856  31.028  52.283  0.00  0.00     0.001 A 
ATOM     22  C   UNL d   1      53.068  31.710  52.717  0.00  0.00     0.014 A 
ENDBRANCH   1  13
TORSDOF 2
ENDMDL
MODEL 3
REMARK VINA RESULT:      -8.6      1.947      3.433
REMARK  2 active torsions:
REMARK  status: ('A' for Active; 'I' for Inactive)
REMARK    1  A    between atoms: N_2  and  S_1 
REMARK    2  A    between atoms: C_3  and  S_1 
ROOT
ATOM      1  S   UNL d   1      52.242  34.180  53.240  0.00  0.00     0.274 S 
ATOM      2  O   UNL d   1      52.649  34.811  52.878  0.00  0.00    -0.200 OA
ATOM      3  O   UNL d   1      51.840  33.551  53.605  0.00  0.00    -0.200 OA
ENDROOT
BRANCH   1   4
ATOM      4  N   UNL d   1      51.699  34.170  52.607  0.00  0.00    -0.212 N 
ATOM      5  C   UNL d   1      51.772  33.954  51.821  0.00  0.00     0.193 A 
ATOM      6  N   UNL d   1      51.035  34.061  51.452  0.00  0.00    -0.223 NA
ATOM      7  C   UNL d   1      50.506  34.348  52.026  0.00  0.00     0.100 A 
ATOM      8  C   UNL d   1      50.923  34.410  52.728  0.00  0.00     0.094 A 
ATOM      9  C   UNL d   1      49.709  34.554  51.982  0.00  0.00     0.021 A 
ATOM     10  C   UNL d   1      50.529  34.689  53.414  0.00  0.00     0.020 A 
ATOM     11  C   UNL d   1      49.722  34.899  53.379  0.00  0.00     0.002 A 
ATOM     12  C   UNL d   1      49.325  34.825  52.653  0.00  0.00     0.002 A 
ENDBRANCH   1   4
BRANCH   1  13
ATOM     13  C   UNL d   1      52.787  34.197  53.867  0.00  0.00     0.122 A 
ATOM     14  C   UNL d   1      53.332  33.596  53.955  0.00  0.00     0.093 A 
ATOM     15  N   UNL d   1      53.346  32.966  53.421  0.00  0.00    -0.243 NA
ATOM     16  C   UNL d   1      53.877  33.613  54.583  0.00  0.00     0.018 A 
ATOM     17  C   UNL d   1      53.888  32.369  53.510  0.00  0.00     0.099 A 
ATOM     18  C   UNL d   1      54.446  32.367  54.135  0.00  0.00     0.021 A 
ATOM     19  C   UNL d   1      54.428  32.995  54.663  0.00  0.00     0.003 A 
ATOM     20  C   UNL d   1      53.872  34.222  55.109  0.00  0.00     0.002 A 
ATOM     21  C   UNL d   1      53.331  34.824  55.026  0.00  0.00     0.001 A 
ATOM     22  C   UNL d   1      52.776  34.824  54.401  0.00  0.00     0.014 A 
ENDBRANCH   1  13
TORSDOF 2
ENDMDL
MODEL 4
REMARK VINA RESULT:      -8.1      2.051      3.620
REMARK  2 active torsions:
REMARK  status: ('A' for Active; 'I' for Inactive)
REMARK    1  A    between atoms: N_2  and  S_1 
REMARK    2  A    between atoms: C_3  and  S_1 
ROOT
ATOM      1  S   UNL d   1      52.257  34.381  53.486  0.00  0.00     0.274 S 
ATOM      2  O   UNL d   1      52.617  35.028  53.102  0.00  0.00    -0.200 OA
ATOM      3  O   UNL d   1      51.894  33.735  53.863  0.00  0.00    -0.200 OA
ENDROOT
BRANCH   1   4
ATOM      4  N   UNL d   1      52.782  34.470  54.127  0.00  0.00    -0.212 N 
ATOM      5  C   UNL d   1      52.844  35.037  54.714  0.00  0.00     0.193 A 
ATOM      6  N   UNL d   1      53.482  34.833  55.207  0.00  0.00    -0.223 NA
ATOM      7  C   UNL d   1      53.813  34.129  54.911  0.00  0.00     0.100 A 
ATOM      8  C   UNL d   1      53.376  33.918  54.251  0.00  0.00     0.094 A 
ATOM      9  C   UNL d   1      54.449  33.673  55.168  0.00  0.00     0.021 A 
ATOM     10  C   UNL d   1      53.583  33.221  53.831  0.00  0.00     0.020 A 
ATOM     11  C   UNL d   1      54.226  32.753  54.084  0.00  0.00     0.002 A 
ATOM     12  C   UNL d   1      54.650  32.993  54.757  0.00  0.00     0.002 A 
ENDBRANCH   1   4
BRANCH   1  13
ATOM     13  C   UNL d   1      51.736  34.299  52.843  0.00  0.00     0.122 A 
ATOM     14  C   UNL d   1      50.956  34.524  52.912  0.00  0.00     0.093 A 
ATOM     15  N   UNL d   1      50.676  34.837  53.624  0.00  0.00    -0.243 NA
ATOM     16  C   UNL d   1      50.436  34.441  52.269  0.00  0.00     0.018 A 
ATOM     17  C   UNL d   1      49.899  35.061  53.692  0.00  0.00     0.099 A 
ATOM     18  C   UNL d   1      49.359  34.986  53.057  0.00  0.00     0.021 A 
ATOM     19  C   UNL d   1      49.642  34.674  52.352  0.00  0.00     0.003 A 
ATOM     20  C   UNL d   1      50.698  34.137  51.571  0.00  0.00     0.002 A 
ATOM     21  C   UNL d   1      51.476  33.911  51.496  0.00  0.00     0.001 A 
ATOM     22  C   UNL d   1      52.012  33.987  52.132  0.00  0.00     0.014 A 
ENDBRANCH   1  13
TORSDOF 2
ENDMDL
