MODEL 1
REMARK VINA RESULT:      15.2      0.000      0.000
REMARK  1 active torsions:
REMARK  status: ('A' for Active; 'I' for Inactive)
REMARK    1  A    between atoms: C_5  and  C_8 
ROOT
ATOM      1  C   UNL d   1      59.008  49.700  51.010  0.00  0.00     0.084 A 
ATOM      2  C   UNL d   1      59.397  49.700  50.285  0.00  0.00     0.057 A 
ATOM      3  N   UNL d   1      59.439  49.702  51.710  0.00  0.00    -0.245 NA
ATOM      4  C   UNL d   1      60.217  49.700  50.250  0.00  0.00     0.199 A 
ATOM      5  C   UNL d   1      60.654  49.702  50.951  0.00  0.00     0.061 A 
ATOM      6  C   UNL d   1      60.264  49.703  51.676  0.00  0.00     0.085 A 
ATOM      7  C   UNL d   1      57.749  49.698  50.340  0.00  0.00     0.073 A 
ATOM      8  C   UNL d   1      58.181  49.700  51.038  0.00  0.00     0.023 A 
ATOM      9  C   UNL d   1      58.962  49.698  49.585  0.00  0.00     0.005 A 
ATOM     10  O   UNL d   1      60.600  49.699  49.520  0.00  0.00    -0.286 OA
ATOM     11  C   UNL d   1      58.141  49.697  49.610  0.00  0.00     0.004 A 
ATOM     12  C   UNL d   1      60.703  49.705  52.379  0.00  0.00     0.021 C 
ENDROOT
BRANCH   7  13
ATOM     13  C   UNL d   1      56.921  49.697  50.362  0.00  0.00     0.419 C 
ATOM     14  F   UNL d   1      56.172  49.696  50.384  0.00  0.00    -0.166 F 
ATOM     15  F   UNL d   1      56.362  49.685  49.708  0.00  0.00    -0.166 F 
ATOM     16  F   UNL d   1      56.399  49.707  51.044  0.00  0.00    -0.166 F 
ENDBRANCH   7  13
TORSDOF 1
ENDMDL
