MODEL 1
REMARK VINA RESULT:      -5.8      0.000      0.000
REMARK  3 active torsions:
REMARK  status: ('A' for Active; 'I' for Inactive)
REMARK    1  A    between atoms: S_11  and  C_1 
REMARK    2  A    between atoms: C_7  and  C_13 
REMARK    3  A    between atoms: C_13  and  S_11 
ROOT
ATOM      1  C   UNL d   1     -41.410-122.551 -52.740  0.00  0.00     0.141 A 
ATOM      2  N   UNL d   1     -41.872-121.960 -53.082  0.00  0.00    -0.232 NA
ATOM      3  S   UNL d   1     -41.136-123.039 -53.334  0.00  0.00    -0.060 SA
ATOM      4  C   UNL d   1     -41.885-122.082 -53.896  0.00  0.00     0.088 A 
ATOM      5  C   UNL d   1     -41.422-122.761 -54.058  0.00  0.00     0.049 A 
ATOM      6  C   UNL d   1     -42.248-121.680 -54.517  0.00  0.00     0.020 A 
ATOM      7  C   UNL d   1     -41.332-123.021 -54.830  0.00  0.00     0.008 A 
ATOM      8  C   UNL d   1     -41.696-122.619 -55.456  0.00  0.00     0.001 A 
ATOM      9  C   UNL d   1     -42.156-121.944 -55.298  0.00  0.00     0.002 A 
ENDROOT
BRANCH   1  10
ATOM     10  S   UNL d   1     -41.254-122.630 -51.931  0.00  0.00    -0.057 SA
BRANCH  10  11
ATOM     11  C   UNL d   1     -41.777-122.310 -51.380  0.00  0.00     0.084 C 
BRANCH  11  12
ATOM     12  C   UNL d   1     -41.787-122.595 -50.613  0.00  0.00     0.212 A 
ATOM     13  O   UNL d   1     -42.453-122.827 -50.187  0.00  0.00    -0.259 OA
ATOM     14  C   UNL d   1     -42.209-123.076 -49.441  0.00  0.00     0.262 A 
ATOM     15  S   UNL d   1     -42.699-123.352 -48.844  0.00  0.00    -0.029 SA
ATOM     16  N   UNL d   1     -41.391-122.999 -49.402  0.00  0.00    -0.109 NA
ATOM     17  N   UNL d   1     -41.126-122.702 -50.125  0.00  0.00    -0.119 NA
ENDBRANCH  11  12
ENDBRANCH  10  11
ENDBRANCH   1  10
TORSDOF 3
ENDMDL
MODEL 2
REMARK VINA RESULT:      -4.7      1.280      1.680
REMARK  3 active torsions:
REMARK  status: ('A' for Active; 'I' for Inactive)
REMARK    1  A    between atoms: S_11  and  C_1 
REMARK    2  A    between atoms: C_7  and  C_13 
REMARK    3  A    between atoms: C_13  and  S_11 
ROOT
ATOM      1  C   UNL d   1     -41.450-122.836 -51.290  0.00  0.00     0.141 A 
ATOM      2  N   UNL d   1     -41.528-122.224 -51.836  0.00  0.00    -0.232 NA
ATOM      3  S   UNL d   1     -41.287-123.525 -51.696  0.00  0.00    -0.060 SA
ATOM      4  C   UNL d   1     -41.412-122.536 -52.590  0.00  0.00     0.088 A 
ATOM      5  C   UNL d   1     -41.261-123.355 -52.505  0.00  0.00     0.049 A 
ATOM      6  C   UNL d   1     -41.422-122.199 -53.343  0.00  0.00     0.020 A 
ATOM      7  C   UNL d   1     -41.123-123.817 -53.168  0.00  0.00     0.008 A 
ATOM      8  C   UNL d   1     -41.131-123.482 -53.925  0.00  0.00     0.001 A 
ATOM      9  C   UNL d   1     -41.282-122.668 -54.013  0.00  0.00     0.002 A 
ENDROOT
BRANCH   1  10
ATOM     10  S   UNL d   1     -41.525-122.759 -50.470  0.00  0.00    -0.057 SA
BRANCH  10  11
ATOM     11  C   UNL d   1     -42.078-123.218 -50.064  0.00  0.00     0.084 C 
BRANCH  11  12
ATOM     12  C   UNL d   1     -42.195-123.104 -49.262  0.00  0.00     0.212 A 
ATOM     13  O   UNL d   1     -41.727-123.403 -48.654  0.00  0.00    -0.259 OA
ATOM     14  C   UNL d   1     -42.045-123.152 -47.936  0.00  0.00     0.262 A 
ATOM     15  S   UNL d   1     -41.748-123.328 -47.193  0.00  0.00    -0.029 SA
ATOM     16  N   UNL d   1     -42.711-122.698 -48.099  0.00  0.00    -0.109 NA
ATOM     17  N   UNL d   1     -42.807-122.665 -48.918  0.00  0.00    -0.119 NA
ENDBRANCH  11  12
ENDBRANCH  10  11
ENDBRANCH   1  10
TORSDOF 3
ENDMDL
