MODEL 1
REMARK VINA RESULT:      18.5      0.000      0.000
REMARK  7 active torsions:
REMARK  status: ('A' for Active; 'I' for Inactive)
REMARK    1  A    between atoms: O_9  and  N_1 
REMARK    2  A    between atoms: C_8  and  O_11 
REMARK    3  A    between atoms: C_15  and  O_9 
REMARK    4  A    between atoms: O_11  and  C_16 
REMARK    5  A    between atoms: C_18  and  C_15 
REMARK    6  A    between atoms: C_16  and  C_17 
REMARK    7  A    between atoms: C_17  and  C_18 
ROOT
ATOM      1  N   UNL d   1      46.366 -18.632  41.727  0.00  0.00    -0.139 N 
ATOM      2  C   UNL d   1      46.499 -19.450  41.809  0.00  0.00     0.287 A 
ATOM      3  C   UNL d   1      46.314 -18.302  42.487  0.00  0.00     0.287 A 
ATOM      4  C   UNL d   1      46.529 -19.620  42.619  0.00  0.00     0.063 A 
ATOM      5  C   UNL d   1      46.415 -18.914  43.036  0.00  0.00     0.063 A 
ATOM      6  O   UNL d   1      46.187 -17.515  42.706  0.00  0.00    -0.265 OA
ATOM      7  O   UNL d   1      46.590 -20.018  41.226  0.00  0.00    -0.265 OA
ATOM      8  C   UNL d   1      46.418 -18.917  43.863  0.00  0.00     0.005 A 
ATOM      9  C   UNL d   1      46.645 -20.328  43.030  0.00  0.00     0.005 A 
ATOM     10  C   UNL d   1      46.533 -19.623  44.270  0.00  0.00     0.000 A 
ATOM     11  C   UNL d   1      46.647 -20.330  43.853  0.00  0.00     0.000 A 
ENDROOT
BRANCH   1  12
ATOM     12  O   UNL d   1      46.298 -18.222  41.016  0.00  0.00    -0.221 OA
BRANCH  12  13
ATOM     13  C   UNL d   1      46.069 -18.209  40.221  0.00  0.00     0.148 C 
BRANCH  13  14
ATOM     14  C   UNL d   1      45.503 -17.664  39.973  0.00  0.00     0.031 C 
BRANCH  14  15
ATOM     15  C   UNL d   1      45.284 -17.633  39.180  0.00  0.00     0.029 C 
BRANCH  15  16
ATOM     16  C   UNL d   1      45.150 -16.904  38.822  0.00  0.00     0.126 C 
BRANCH  16  17
ATOM     17  O   UNL d   1      44.575 -16.840  38.234  0.00  0.00    -0.271 OA
BRANCH  17  18
ATOM     18  C   UNL d   1      44.583 -16.193  37.726  0.00  0.00     0.300 C 
ATOM     19  O   UNL d   1      44.064 -15.564  37.849  0.00  0.00    -0.259 OA
ATOM     20  C   UNL d   1      45.110 -16.175  37.094  0.00  0.00     0.074 C 
ENDBRANCH  17  18
ENDBRANCH  16  17
ENDBRANCH  15  16
ENDBRANCH  14  15
ENDBRANCH  13  14
ENDBRANCH  12  13
ENDBRANCH   1  12
TORSDOF 7
ENDMDL
MODEL 2
REMARK VINA RESULT:      18.5      3.893      5.685
REMARK  7 active torsions:
REMARK  status: ('A' for Active; 'I' for Inactive)
REMARK    1  A    between atoms: O_9  and  N_1 
REMARK    2  A    between atoms: C_8  and  O_11 
REMARK    3  A    between atoms: C_15  and  O_9 
REMARK    4  A    between atoms: O_11  and  C_16 
REMARK    5  A    between atoms: C_18  and  C_15 
REMARK    6  A    between atoms: C_16  and  C_17 
REMARK    7  A    between atoms: C_17  and  C_18 
ROOT
ATOM      1  N   UNL d   1      45.939 -14.742  43.606  0.00  0.00    -0.139 N 
ATOM      2  C   UNL d   1      46.072 -14.037  43.182  0.00  0.00     0.287 A 
ATOM      3  C   UNL d   1      45.595 -14.544  44.334  0.00  0.00     0.287 A 
ATOM      4  C   UNL d   1      45.809 -13.408  43.652  0.00  0.00     0.063 A 
ATOM      5  C   UNL d   1      45.516 -13.719  44.361  0.00  0.00     0.063 A 
ATOM      6  O   UNL d   1      45.359 -15.041  44.951  0.00  0.00    -0.265 OA
ATOM      7  O   UNL d   1      46.399 -13.937  42.437  0.00  0.00    -0.265 OA
ATOM      8  C   UNL d   1      45.213 -13.213  44.940  0.00  0.00     0.005 A 
ATOM      9  C   UNL d   1      45.799 -12.591  43.524  0.00  0.00     0.005 A 
ATOM     10  C   UNL d   1      45.204 -12.400  44.811  0.00  0.00     0.000 A 
ATOM     11  C   UNL d   1      45.497 -12.089  44.102  0.00  0.00     0.000 A 
ENDROOT
BRANCH   1  12
ATOM     12  O   UNL d   1      46.119 -15.503  43.346  0.00  0.00    -0.221 OA
BRANCH  12  13
ATOM     13  C   UNL d   1      46.512 -16.221  43.464  0.00  0.00     0.148 C 
BRANCH  13  14
ATOM     14  C   UNL d   1      46.177 -16.788  43.960  0.00  0.00     0.031 C 
BRANCH  14  15
ATOM     15  C   UNL d   1      45.674 -17.360  43.647  0.00  0.00     0.029 C 
BRANCH  15  16
ATOM     16  C   UNL d   1      45.963 -17.902  43.099  0.00  0.00     0.126 C 
BRANCH  16  17
ATOM     17  O   UNL d   1      45.878 -18.710  43.244  0.00  0.00    -0.271 OA
BRANCH  17  18
ATOM     18  C   UNL d   1      46.240 -19.253  42.742  0.00  0.00     0.300 C 
ATOM     19  O   UNL d   1      46.640 -18.991  42.070  0.00  0.00    -0.259 OA
ATOM     20  C   UNL d   1      46.201 -20.057  42.912  0.00  0.00     0.074 C 
ENDBRANCH  17  18
ENDBRANCH  16  17
ENDBRANCH  15  16
ENDBRANCH  14  15
ENDBRANCH  13  14
ENDBRANCH  12  13
ENDBRANCH   1  12
TORSDOF 7
ENDMDL
MODEL 3
REMARK VINA RESULT:      18.8      4.074      6.230
REMARK  7 active torsions:
REMARK  status: ('A' for Active; 'I' for Inactive)
REMARK    1  A    between atoms: O_9  and  N_1 
REMARK    2  A    between atoms: C_8  and  O_11 
REMARK    3  A    between atoms: C_15  and  O_9 
REMARK    4  A    between atoms: O_11  and  C_16 
REMARK    5  A    between atoms: C_18  and  C_15 
REMARK    6  A    between atoms: C_16  and  C_17 
REMARK    7  A    between atoms: C_17  and  C_18 
ROOT
ATOM      1  N   UNL d   1      45.339 -14.676  44.453  0.00  0.00    -0.139 N 
ATOM      2  C   UNL d   1      45.882 -14.050  44.547  0.00  0.00     0.287 A 
ATOM      3  C   UNL d   1      44.708 -14.402  43.990  0.00  0.00     0.287 A 
ATOM      4  C   UNL d   1      45.581 -13.394  44.140  0.00  0.00     0.063 A 
ATOM      5  C   UNL d   1      44.859 -13.610  43.798  0.00  0.00     0.063 A 
ATOM      6  O   UNL d   1      44.031 -14.806  43.741  0.00  0.00    -0.265 OA
ATOM      7  O   UNL d   1      46.592 -14.040  44.955  0.00  0.00    -0.265 OA
ATOM      8  C   UNL d   1      44.431 -13.059  43.355  0.00  0.00     0.005 A 
ATOM      9  C   UNL d   1      45.874 -12.628  44.039  0.00  0.00     0.005 A 
ATOM     10  C   UNL d   1      44.723 -12.296  43.255  0.00  0.00     0.000 A 
ATOM     11  C   UNL d   1      45.446 -12.080  43.597  0.00  0.00     0.000 A 
ENDROOT
BRANCH   1  12
ATOM     12  O   UNL d   1      45.418 -15.434  44.767  0.00  0.00    -0.221 OA
BRANCH  12  13
ATOM     13  C   UNL d   1      45.898 -16.080  44.955  0.00  0.00     0.148 C 
BRANCH  13  14
ATOM     14  C   UNL d   1      45.606 -16.844  44.851  0.00  0.00     0.031 C 
BRANCH  14  15
ATOM     15  C   UNL d   1      46.128 -17.478  44.799  0.00  0.00     0.029 C 
BRANCH  15  16
ATOM     16  C   UNL d   1      46.002 -18.066  44.237  0.00  0.00     0.126 C 
BRANCH  16  17
ATOM     17  O   UNL d   1      46.509 -18.716  44.208  0.00  0.00    -0.271 OA
BRANCH  17  18
ATOM     18  C   UNL d   1      46.420 -19.274  43.610  0.00  0.00     0.300 C 
ATOM     19  O   UNL d   1      46.451 -19.039  42.819  0.00  0.00    -0.259 OA
ATOM     20  C   UNL d   1      46.301 -20.065  43.800  0.00  0.00     0.074 C 
ENDBRANCH  17  18
ENDBRANCH  16  17
ENDBRANCH  15  16
ENDBRANCH  14  15
ENDBRANCH  13  14
ENDBRANCH  12  13
ENDBRANCH   1  12
TORSDOF 7
ENDMDL
