MODEL 1
REMARK VINA RESULT:      -5.9      0.000      0.000
REMARK  6 active torsions:
REMARK  status: ('A' for Active; 'I' for Inactive)
REMARK       I    between atoms: N_2  and  C_1 
REMARK    1  A    between atoms: C_14  and  C_1 
REMARK    2  A    between atoms: C_6  and  N_2 
REMARK    3  A    between atoms: C_4  and  O_13 
REMARK    4  A    between atoms: O_13  and  C_18 
REMARK    5  A    between atoms: C_19  and  C_14 
REMARK    6  A    between atoms: C_18  and  C_19 
ROOT
ATOM      1  C   UNL d   1     -46.780  13.080  23.010  0.00  0.00     0.078 C 
ENDROOT
BRANCH   1   2
ATOM      2  C   UNL d   1     -45.994  13.008  22.776  0.00  0.00     0.328 C 
ATOM      3  N   UNL d   1     -45.564  12.316  22.957  0.00  0.00    -0.365 NA
ATOM      4  O   UNL d   1     -45.628  13.619  22.362  0.00  0.00    -0.251 OA
BRANCH   3   5
ATOM      5  C   UNL d   1     -45.141  11.638  23.134  0.00  0.00     0.135 A 
ATOM      6  C   UNL d   1     -44.332  11.589  22.924  0.00  0.00     0.033 A 
ATOM      7  C   UNL d   1     -43.912  10.899  23.107  0.00  0.00     0.009 A 
ATOM      8  C   UNL d   1     -44.282  10.269  23.490  0.00  0.00     0.035 A 
ATOM      9  C   UNL d   1     -45.079  10.318  23.698  0.00  0.00     0.009 A 
ATOM     10 BR   UNL d   1     -43.846   9.590  23.664  0.00  0.00    -0.049 Br
ATOM     11  C   UNL d   1     -45.511  11.008  23.518  0.00  0.00     0.033 A 
ENDBRANCH   3   5
ENDBRANCH   1   2
BRANCH   1  12
ATOM     12  C   UNL d   1     -47.256  13.661  22.691  0.00  0.00     0.033 C 
BRANCH  12  13
ATOM     13  C   UNL d   1     -48.038  13.740  22.920  0.00  0.00     0.123 C 
BRANCH  13  14
ATOM     14  O   UNL d   1     -48.635  13.798  22.363  0.00  0.00    -0.305 OA
BRANCH  14  15
ATOM     15  C   UNL d   1     -49.343  14.174  22.549  0.00  0.00     0.100 A 
ATOM     16  C   UNL d   1     -50.050  13.956  22.165  0.00  0.00     0.023 A 
ATOM     17  C   UNL d   1     -50.037  13.362  21.598  0.00  0.00     0.002 C 
ATOM     18  C   UNL d   1     -50.758  14.335  22.354  0.00  0.00     0.002 A 
ATOM     19  C   UNL d   1     -50.771  14.931  22.924  0.00  0.00     0.000 A 
ATOM     20  C   UNL d   1     -50.077  15.158  23.312  0.00  0.00     0.002 A 
ATOM     21  C   UNL d   1     -49.356  14.774  23.122  0.00  0.00     0.025 A 
ENDBRANCH  14  15
ENDBRANCH  13  14
ENDBRANCH  12  13
ENDBRANCH   1  12
TORSDOF 6
ENDMDL
MODEL 2
REMARK VINA RESULT:      -5.8      3.890      6.628
REMARK  6 active torsions:
REMARK  status: ('A' for Active; 'I' for Inactive)
REMARK       I    between atoms: N_2  and  C_1 
REMARK    1  A    between atoms: C_14  and  C_1 
REMARK    2  A    between atoms: C_6  and  N_2 
REMARK    3  A    between atoms: C_4  and  O_13 
REMARK    4  A    between atoms: O_13  and  C_18 
REMARK    5  A    between atoms: C_19  and  C_14 
REMARK    6  A    between atoms: C_18  and  C_19 
ROOT
ATOM      1  C   UNL d   1     -43.357  13.109  21.339  0.00  0.00     0.078 C 
ENDROOT
BRANCH   1   2
ATOM      2  C   UNL d   1     -43.759  12.589  21.835  0.00  0.00     0.328 C 
ATOM      3  N   UNL d   1     -44.525  12.776  22.107  0.00  0.00    -0.365 NA
ATOM      4  O   UNL d   1     -43.406  11.882  22.066  0.00  0.00    -0.251 OA
BRANCH   3   5
ATOM      5  C   UNL d   1     -45.278  12.958  22.374  0.00  0.00     0.135 A 
ATOM      6  C   UNL d   1     -45.705  12.395  22.821  0.00  0.00     0.033 A 
ATOM      7  C   UNL d   1     -46.465  12.588  23.087  0.00  0.00     0.009 A 
ATOM      8  C   UNL d   1     -46.798  13.323  22.916  0.00  0.00     0.035 A 
ATOM      9  C   UNL d   1     -46.377  13.879  22.474  0.00  0.00     0.009 A 
ATOM     10 BR   UNL d   1     -47.556  13.496  23.190  0.00  0.00    -0.049 Br
ATOM     11  C   UNL d   1     -45.611  13.693  22.202  0.00  0.00     0.033 A 
ENDBRANCH   3   5
ENDBRANCH   1   2
BRANCH   1  12
ATOM     12  C   UNL d   1     -42.541  13.103  21.304  0.00  0.00     0.033 C 
BRANCH  12  13
ATOM     13  C   UNL d   1     -42.124  13.759  21.048  0.00  0.00     0.123 C 
BRANCH  13  14
ATOM     14  O   UNL d   1     -41.308  13.785  21.105  0.00  0.00    -0.305 OA
BRANCH  14  15
ATOM     15  C   UNL d   1     -40.905  14.493  20.985  0.00  0.00     0.100 A 
ATOM     16  C   UNL d   1     -40.095  14.554  21.173  0.00  0.00     0.023 A 
ATOM     17  C   UNL d   1     -39.699  13.902  21.478  0.00  0.00     0.002 C 
ATOM     18  C   UNL d   1     -39.695  15.264  21.051  0.00  0.00     0.002 A 
ATOM     19  C   UNL d   1     -40.092  15.919  20.745  0.00  0.00     0.000 A 
ATOM     20  C   UNL d   1     -40.896  15.872  20.555  0.00  0.00     0.002 A 
ATOM     21  C   UNL d   1     -41.305  15.151  20.677  0.00  0.00     0.025 A 
ENDBRANCH  14  15
ENDBRANCH  13  14
ENDBRANCH  12  13
ENDBRANCH   1  12
TORSDOF 6
ENDMDL
MODEL 3
REMARK VINA RESULT:      -5.8      2.181      5.771
REMARK  6 active torsions:
REMARK  status: ('A' for Active; 'I' for Inactive)
REMARK       I    between atoms: N_2  and  C_1 
REMARK    1  A    between atoms: C_14  and  C_1 
REMARK    2  A    between atoms: C_6  and  N_2 
REMARK    3  A    between atoms: C_4  and  O_13 
REMARK    4  A    between atoms: O_13  and  C_18 
REMARK    5  A    between atoms: C_19  and  C_14 
REMARK    6  A    between atoms: C_18  and  C_19 
ROOT
ATOM      1  C   UNL d   1     -46.707  13.156  22.915  0.00  0.00     0.078 C 
ENDROOT
BRANCH   1   2
ATOM      2  C   UNL d   1     -46.983  13.928  22.843  0.00  0.00     0.328 C 
ATOM      3  N   UNL d   1     -47.795  14.074  22.718  0.00  0.00    -0.365 NA
ATOM      4  O   UNL d   1     -46.458  14.561  22.894  0.00  0.00    -0.251 OA
BRANCH   3   5
ATOM      5  C   UNL d   1     -48.591  14.218  22.595  0.00  0.00     0.135 A 
ATOM      6  C   UNL d   1     -49.010  14.706  23.131  0.00  0.00     0.033 A 
ATOM      7  C   UNL d   1     -49.815  14.847  22.998  0.00  0.00     0.009 A 
ATOM      8  C   UNL d   1     -50.201  14.512  22.350  0.00  0.00     0.035 A 
ATOM      9  C   UNL d   1     -49.788  14.031  21.822  0.00  0.00     0.009 A 
ATOM     10 BR   UNL d   1     -51.004  14.664  22.235  0.00  0.00    -0.049 Br
ATOM     11  C   UNL d   1     -48.977  13.884  21.947  0.00  0.00     0.033 A 
ENDBRANCH   3   5
ENDBRANCH   1   2
BRANCH   1  12
ATOM     12  C   UNL d   1     -45.909  12.993  22.858  0.00  0.00     0.033 C 
BRANCH  12  13
ATOM     13  C   UNL d   1     -45.613  12.254  23.048  0.00  0.00     0.123 C 
BRANCH  13  14
ATOM     14  O   UNL d   1     -44.877  12.014  22.782  0.00  0.00    -0.305 OA
BRANCH  14  15
ATOM     15  C   UNL d   1     -44.547  11.310  23.049  0.00  0.00     0.100 A 
ATOM     16  C   UNL d   1     -43.734  11.159  22.944  0.00  0.00     0.023 A 
ATOM     17  C   UNL d   1     -43.262  11.719  22.571  0.00  0.00     0.002 C 
ATOM     18  C   UNL d   1     -43.406  10.452  23.213  0.00  0.00     0.002 A 
ATOM     19  C   UNL d   1     -43.879   9.890  23.587  0.00  0.00     0.000 A 
ATOM     20  C   UNL d   1     -44.687  10.026  23.698  0.00  0.00     0.002 A 
ATOM     21  C   UNL d   1     -45.023  10.745  23.425  0.00  0.00     0.025 A 
ENDBRANCH  14  15
ENDBRANCH  13  14
ENDBRANCH  12  13
ENDBRANCH   1  12
TORSDOF 6
ENDMDL
MODEL 4
REMARK VINA RESULT:      -5.7      3.449      4.488
REMARK  6 active torsions:
REMARK  status: ('A' for Active; 'I' for Inactive)
REMARK       I    between atoms: N_2  and  C_1 
REMARK    1  A    between atoms: C_14  and  C_1 
REMARK    2  A    between atoms: C_6  and  N_2 
REMARK    3  A    between atoms: C_4  and  O_13 
REMARK    4  A    between atoms: O_13  and  C_18 
REMARK    5  A    between atoms: C_19  and  C_14 
REMARK    6  A    between atoms: C_18  and  C_19 
ROOT
ATOM      1  C   UNL d   1     -43.695  13.197  21.461  0.00  0.00     0.078 C 
ENDROOT
BRANCH   1   2
ATOM      2  C   UNL d   1     -42.932  12.889  21.449  0.00  0.00     0.328 C 
ATOM      3  N   UNL d   1     -42.297  13.350  21.167  0.00  0.00    -0.365 NA
ATOM      4  O   UNL d   1     -42.792  12.122  21.717  0.00  0.00    -0.251 OA
BRANCH   3   5
ATOM      5  C   UNL d   1     -41.673  13.802  20.889  0.00  0.00     0.135 A 
ATOM      6  C   UNL d   1     -41.108  14.101  21.429  0.00  0.00     0.033 A 
ATOM      7  C   UNL d   1     -40.480  14.557  21.140  0.00  0.00     0.009 A 
ATOM      8  C   UNL d   1     -40.411  14.715  20.333  0.00  0.00     0.035 A 
ATOM      9  C   UNL d   1     -40.968  14.420  19.801  0.00  0.00     0.009 A 
ATOM     10 BR   UNL d   1     -39.778  15.171  20.064  0.00  0.00    -0.049 Br
ATOM     11  C   UNL d   1     -41.604  13.960  20.083  0.00  0.00     0.033 A 
ENDBRANCH   3   5
ENDBRANCH   1   2
BRANCH   1  12
ATOM     12  C   UNL d   1     -44.295  12.806  21.853  0.00  0.00     0.033 C 
BRANCH  12  13
ATOM     13  C   UNL d   1     -44.990  13.189  22.054  0.00  0.00     0.123 C 
BRANCH  13  14
ATOM     14  O   UNL d   1     -45.485  12.887  22.632  0.00  0.00    -0.305 OA
BRANCH  14  15
ATOM     15  C   UNL d   1     -46.214  13.237  22.780  0.00  0.00     0.100 A 
ATOM     16  C   UNL d   1     -46.808  12.817  23.188  0.00  0.00     0.023 A 
ATOM     17  C   UNL d   1     -46.661  12.050  23.442  0.00  0.00     0.002 C 
ATOM     18  C   UNL d   1     -47.538  13.170  23.334  0.00  0.00     0.002 A 
ATOM     19  C   UNL d   1     -47.686  13.941  23.079  0.00  0.00     0.000 A 
ATOM     20  C   UNL d   1     -47.106  14.369  22.674  0.00  0.00     0.002 A 
ATOM     21  C   UNL d   1     -46.363  14.011  22.524  0.00  0.00     0.025 A 
ENDBRANCH  14  15
ENDBRANCH  13  14
ENDBRANCH  12  13
ENDBRANCH   1  12
TORSDOF 6
ENDMDL
MODEL 5
REMARK VINA RESULT:      -5.3      7.766      9.538
REMARK  6 active torsions:
REMARK  status: ('A' for Active; 'I' for Inactive)
REMARK       I    between atoms: N_2  and  C_1 
REMARK    1  A    between atoms: C_14  and  C_1 
REMARK    2  A    between atoms: C_6  and  N_2 
REMARK    3  A    between atoms: C_4  and  O_13 
REMARK    4  A    between atoms: O_13  and  C_18 
REMARK    5  A    between atoms: C_19  and  C_14 
REMARK    6  A    between atoms: C_18  and  C_19 
ROOT
ATOM      1  C   UNL d   1     -40.393  14.740  19.807  0.00  0.00     0.078 C 
ENDROOT
BRANCH   1   2
ATOM      2  C   UNL d   1     -40.606  14.570  20.583  0.00  0.00     0.328 C 
ATOM      3  N   UNL d   1     -40.090  14.757  21.211  0.00  0.00    -0.365 NA
ATOM      4  O   UNL d   1     -41.331  14.212  20.744  0.00  0.00    -0.251 OA
BRANCH   3   5
ATOM      5  C   UNL d   1     -39.584  14.941  21.829  0.00  0.00     0.135 A 
ATOM      6  C   UNL d   1     -39.550  15.727  22.115  0.00  0.00     0.033 A 
ATOM      7  C   UNL d   1     -39.036  15.903  22.739  0.00  0.00     0.009 A 
ATOM      8  C   UNL d   1     -38.564  15.316  23.076  0.00  0.00     0.035 A 
ATOM      9  C   UNL d   1     -38.597  14.541  22.794  0.00  0.00     0.009 A 
ATOM     10 BR   UNL d   1     -38.058  15.512  23.697  0.00  0.00    -0.049 Br
ATOM     11  C   UNL d   1     -39.112  14.354  22.165  0.00  0.00     0.033 A 
ENDBRANCH   3   5
ENDBRANCH   1   2
BRANCH   1  12
ATOM     12  C   UNL d   1     -40.354  14.147  19.247  0.00  0.00     0.033 C 
BRANCH  12  13
ATOM     13  C   UNL d   1     -39.943  14.252  18.546  0.00  0.00     0.123 C 
BRANCH  13  14
ATOM     14  O   UNL d   1     -39.645  13.611  18.134  0.00  0.00    -0.305 OA
BRANCH  14  15
ATOM     15  C   UNL d   1     -39.208  13.726  17.447  0.00  0.00     0.100 A 
ATOM     16  C   UNL d   1     -38.647  13.158  17.204  0.00  0.00     0.023 A 
ATOM     17  C   UNL d   1     -38.534  12.482  17.656  0.00  0.00     0.002 C 
ATOM     18  C   UNL d   1     -38.210  13.276  16.515  0.00  0.00     0.002 A 
ATOM     19  C   UNL d   1     -38.324  13.956  16.061  0.00  0.00     0.000 A 
ATOM     20  C   UNL d   1     -38.877  14.527  16.290  0.00  0.00     0.002 A 
ATOM     21  C   UNL d   1     -39.322  14.409  16.991  0.00  0.00     0.025 A 
ENDBRANCH  14  15
ENDBRANCH  13  14
ENDBRANCH  12  13
ENDBRANCH   1  12
TORSDOF 6
ENDMDL
MODEL 6
REMARK VINA RESULT:      -4.9      1.424      1.723
REMARK  6 active torsions:
REMARK  status: ('A' for Active; 'I' for Inactive)
REMARK       I    between atoms: N_2  and  C_1 
REMARK    1  A    between atoms: C_14  and  C_1 
REMARK    2  A    between atoms: C_6  and  N_2 
REMARK    3  A    between atoms: C_4  and  O_13 
REMARK    4  A    between atoms: O_13  and  C_18 
REMARK    5  A    between atoms: C_19  and  C_14 
REMARK    6  A    between atoms: C_18  and  C_19 
ROOT
ATOM      1  C   UNL d   1     -47.046  13.129  23.210  0.00  0.00     0.078 C 
ENDROOT
BRANCH   1   2
ATOM      2  C   UNL d   1     -46.500  12.515  23.254  0.00  0.00     0.328 C 
ATOM      3  N   UNL d   1     -45.772  12.570  22.850  0.00  0.00    -0.365 NA
ATOM      4  O   UNL d   1     -46.670  11.842  23.698  0.00  0.00    -0.251 OA
BRANCH   3   5
ATOM      5  C   UNL d   1     -45.058  12.623  22.454  0.00  0.00     0.135 A 
ATOM      6  C   UNL d   1     -44.942  13.232  21.891  0.00  0.00     0.033 A 
ATOM      7  C   UNL d   1     -44.216  13.277  21.496  0.00  0.00     0.009 A 
ATOM      8  C   UNL d   1     -43.615  12.733  21.651  0.00  0.00     0.035 A 
ATOM      9  C   UNL d   1     -43.730  12.133  22.205  0.00  0.00     0.009 A 
ATOM     10 BR   UNL d   1     -42.899  12.795  21.246  0.00  0.00    -0.049 Br
ATOM     11  C   UNL d   1     -44.458  12.078  22.609  0.00  0.00     0.033 A 
ENDBRANCH   3   5
ENDBRANCH   1   2
BRANCH   1  12
ATOM     12  C   UNL d   1     -47.845  12.982  23.293  0.00  0.00     0.033 C 
BRANCH  12  13
ATOM     13  C   UNL d   1     -48.397  13.581  23.208  0.00  0.00     0.123 C 
BRANCH  13  14
ATOM     14  O   UNL d   1     -49.157  13.418  22.953  0.00  0.00    -0.305 OA
BRANCH  14  15
ATOM     15  C   UNL d   1     -49.724  14.014  22.928  0.00  0.00     0.100 A 
ATOM     16  C   UNL d   1     -50.473  13.869  22.591  0.00  0.00     0.023 A 
ATOM     17  C   UNL d   1     -50.642  13.127  22.283  0.00  0.00     0.002 C 
ATOM     18  C   UNL d   1     -51.039  14.468  22.568  0.00  0.00     0.002 A 
ATOM     19  C   UNL d   1     -50.869  15.214  22.878  0.00  0.00     0.000 A 
ATOM     20  C   UNL d   1     -50.130  15.371  23.215  0.00  0.00     0.002 A 
ATOM     21  C   UNL d   1     -49.553  14.763  23.240  0.00  0.00     0.025 A 
ENDBRANCH  14  15
ENDBRANCH  13  14
ENDBRANCH  12  13
ENDBRANCH   1  12
TORSDOF 6
ENDMDL
MODEL 7
REMARK VINA RESULT:      -4.0      4.503      5.926
REMARK  6 active torsions:
REMARK  status: ('A' for Active; 'I' for Inactive)
REMARK       I    between atoms: N_2  and  C_1 
REMARK    1  A    between atoms: C_14  and  C_1 
REMARK    2  A    between atoms: C_6  and  N_2 
REMARK    3  A    between atoms: C_4  and  O_13 
REMARK    4  A    between atoms: O_13  and  C_18 
REMARK    5  A    between atoms: C_19  and  C_14 
REMARK    6  A    between atoms: C_18  and  C_19 
ROOT
ATOM      1  C   UNL d   1     -42.379  13.383  20.889  0.00  0.00     0.078 C 
ENDROOT
BRANCH   1   2
ATOM      2  C   UNL d   1     -41.600  13.616  21.016  0.00  0.00     0.328 C 
ATOM      3  N   UNL d   1     -41.204  14.083  20.449  0.00  0.00    -0.365 NA
ATOM      4  O   UNL d   1     -41.207  13.390  21.704  0.00  0.00    -0.251 OA
BRANCH   3   5
ATOM      5  C   UNL d   1     -40.814  14.540  19.893  0.00  0.00     0.135 A 
ATOM      6  C   UNL d   1     -40.509  14.180  19.202  0.00  0.00     0.033 A 
ATOM      7  C   UNL d   1     -40.117  14.651  18.645  0.00  0.00     0.009 A 
ATOM      8  C   UNL d   1     -40.026  15.462  18.767  0.00  0.00     0.035 A 
ATOM      9  C   UNL d   1     -40.326  15.817  19.449  0.00  0.00     0.009 A 
ATOM     10 BR   UNL d   1     -39.632  15.914  18.201  0.00  0.00    -0.049 Br
ATOM     11  C   UNL d   1     -40.724  15.351  20.015  0.00  0.00     0.033 A 
ENDBRANCH   3   5
ENDBRANCH   1   2
BRANCH   1  12
ATOM     12  C   UNL d   1     -42.797  12.996  21.475  0.00  0.00     0.033 C 
BRANCH  12  13
ATOM     13  C   UNL d   1     -43.613  13.049  21.517  0.00  0.00     0.123 C 
BRANCH  13  14
ATOM     14  O   UNL d   1     -44.047  12.507  21.950  0.00  0.00    -0.305 OA
BRANCH  14  15
ATOM     15  C   UNL d   1     -44.800  12.698  22.221  0.00  0.00     0.100 A 
ATOM     16  C   UNL d   1     -45.205  12.182  22.736  0.00  0.00     0.023 A 
ATOM     17  C   UNL d   1     -44.849  11.481  22.972  0.00  0.00     0.002 C 
ATOM     18  C   UNL d   1     -45.960  12.377  23.006  0.00  0.00     0.002 A 
ATOM     19  C   UNL d   1     -46.318  13.081  22.769  0.00  0.00     0.000 A 
ATOM     20  C   UNL d   1     -45.927  13.601  22.258  0.00  0.00     0.002 A 
ATOM     21  C   UNL d   1     -45.160  13.405  21.983  0.00  0.00     0.025 A 
ENDBRANCH  14  15
ENDBRANCH  13  14
ENDBRANCH  12  13
ENDBRANCH   1  12
TORSDOF 6
ENDMDL
MODEL 8
REMARK VINA RESULT:      -3.6      8.668      9.913
REMARK  6 active torsions:
REMARK  status: ('A' for Active; 'I' for Inactive)
REMARK       I    between atoms: N_2  and  C_1 
REMARK    1  A    between atoms: C_14  and  C_1 
REMARK    2  A    between atoms: C_6  and  N_2 
REMARK    3  A    between atoms: C_4  and  O_13 
REMARK    4  A    between atoms: O_13  and  C_18 
REMARK    5  A    between atoms: C_19  and  C_14 
REMARK    6  A    between atoms: C_18  and  C_19 
ROOT
ATOM      1  C   UNL d   1     -38.893  13.576  19.377  0.00  0.00     0.078 C 
ENDROOT
BRANCH   1   2
ATOM      2  C   UNL d   1     -38.782  13.704  18.571  0.00  0.00     0.328 C 
ATOM      3  N   UNL d   1     -39.336  14.151  18.136  0.00  0.00    -0.365 NA
ATOM      4  O   UNL d   1     -38.122  13.391  18.191  0.00  0.00    -0.251 OA
BRANCH   3   5
ATOM      5  C   UNL d   1     -39.879  14.590  17.709  0.00  0.00     0.135 A 
ATOM      6  C   UNL d   1     -39.653  14.925  16.975  0.00  0.00     0.033 A 
ATOM      7  C   UNL d   1     -40.209  15.367  16.550  0.00  0.00     0.009 A 
ATOM      8  C   UNL d   1     -40.973  15.477  16.841  0.00  0.00     0.035 A 
ATOM      9  C   UNL d   1     -41.196  15.146  17.563  0.00  0.00     0.009 A 
ATOM     10 BR   UNL d   1     -41.513  15.920  16.402  0.00  0.00    -0.049 Br
ATOM     11  C   UNL d   1     -40.643  14.699  18.000  0.00  0.00     0.033 A 
ENDBRANCH   3   5
ENDBRANCH   1   2
BRANCH   1  12
ATOM     12  C   UNL d   1     -38.656  14.136  19.923  0.00  0.00     0.033 C 
BRANCH  12  13
ATOM     13  C   UNL d   1     -38.580  13.947  20.716  0.00  0.00     0.123 C 
BRANCH  13  14
ATOM     14  O   UNL d   1     -38.311  14.501  21.255  0.00  0.00    -0.305 OA
BRANCH  14  15
ATOM     15  C   UNL d   1     -38.419  14.383  22.062  0.00  0.00     0.100 A 
ATOM     16  C   UNL d   1     -38.280  15.004  22.601  0.00  0.00     0.023 A 
ATOM     17  C   UNL d   1     -38.035  15.736  22.322  0.00  0.00     0.002 C 
ATOM     18  C   UNL d   1     -38.390  14.882  23.409  0.00  0.00     0.002 A 
ATOM     19  C   UNL d   1     -38.637  14.146  23.689  0.00  0.00     0.000 A 
ATOM     20  C   UNL d   1     -38.778  13.522  23.165  0.00  0.00     0.002 A 
ATOM     21  C   UNL d   1     -38.667  13.643  22.343  0.00  0.00     0.025 A 
ENDBRANCH  14  15
ENDBRANCH  13  14
ENDBRANCH  12  13
ENDBRANCH   1  12
TORSDOF 6
ENDMDL
