MODEL 1
REMARK VINA RESULT:      -9.6      0.000      0.000
REMARK  2 active torsions:
REMARK  status: ('A' for Active; 'I' for Inactive)
REMARK       I    between atoms: C_6  and  N_8 
REMARK    1  A    between atoms: C_7  and  C_6 
REMARK    2  A    between atoms: N_8  and  C_11 
ROOT
ATOM      1  N   UNL d   1      54.202  31.305  52.959  0.00  0.00    -0.246 NA
ATOM      2  C   UNL d   1      53.547  31.078  54.104  0.00  0.00     0.019 A 
ATOM      3  C   UNL d   1      53.792  30.735  53.391  0.00  0.00     0.081 A 
ATOM      4  C   UNL d   1      53.808  31.853  54.104  0.00  0.00     0.021 A 
ATOM      5  C   UNL d   1      54.210  31.983  53.395  0.00  0.00     0.082 A 
ATOM      6  C   UNL d   1      53.731  32.451  54.656  0.00  0.00     0.021 A 
ATOM      7  C   UNL d   1      54.058  33.198  54.507  0.00  0.00     0.085 A 
ATOM      8  C   UNL d   1      54.540  32.733  53.241  0.00  0.00     0.021 A 
ATOM      9  C   UNL d   1      54.460  33.332  53.799  0.00  0.00     0.021 A 
ATOM     10  C   UNL d   1      53.115  30.629  54.661  0.00  0.00     0.002 A 
ATOM     11  C   UNL d   1      53.605  29.944  53.233  0.00  0.00     0.019 A 
ATOM     12  C   UNL d   1      52.931  29.841  54.501  0.00  0.00     0.000 A 
ATOM     13  C   UNL d   1      53.176  29.499  53.787  0.00  0.00     0.002 A 
ENDROOT
BRANCH   7  14
ATOM     14  N   UNL d   1      53.976  33.816  55.080  0.00  0.00    -0.206 NA
ATOM     15  C   UNL d   1      53.394  34.398  54.984  0.00  0.00     0.302 C 
ATOM     16  O   UNL d   1      53.330  34.985  55.544  0.00  0.00    -0.263 OA
BRANCH  15  17
ATOM     17  C   UNL d   1      52.884  34.375  54.317  0.00  0.00     0.158 A 
ATOM     18  O   UNL d   1      52.266  33.870  54.099  0.00  0.00    -0.300 OA
ATOM     19  C   UNL d   1      51.975  34.129  53.381  0.00  0.00     0.123 A 
ATOM     20  C   UNL d   1      52.399  34.781  53.152  0.00  0.00     0.029 A 
ATOM     21  C   UNL d   1      52.958  34.928  53.734  0.00  0.00     0.032 A 
ENDBRANCH  15  17
ENDBRANCH   7  14
TORSDOF 2
ENDMDL
MODEL 2
REMARK VINA RESULT:      -9.2      1.506      3.349
REMARK  2 active torsions:
REMARK  status: ('A' for Active; 'I' for Inactive)
REMARK       I    between atoms: C_6  and  N_8 
REMARK    1  A    between atoms: C_7  and  C_6 
REMARK    2  A    between atoms: N_8  and  C_11 
ROOT
ATOM      1  N   UNL d   1      52.150  34.878  52.447  0.00  0.00    -0.246 NA
ATOM      2  C   UNL d   1      51.463  34.023  53.215  0.00  0.00     0.019 A 
ATOM      3  C   UNL d   1      51.436  34.471  52.519  0.00  0.00     0.081 A 
ATOM      4  C   UNL d   1      52.190  34.157  53.563  0.00  0.00     0.021 A 
ATOM      5  C   UNL d   1      52.606  34.685  53.083  0.00  0.00     0.082 A 
ATOM      6  C   UNL d   1      52.524  33.868  54.251  0.00  0.00     0.021 A 
ATOM      7  C   UNL d   1      53.287  34.104  54.474  0.00  0.00     0.085 A 
ATOM      8  C   UNL d   1      53.373  34.925  53.303  0.00  0.00     0.021 A 
ATOM      9  C   UNL d   1      53.704  34.631  53.996  0.00  0.00     0.021 A 
ATOM     10  C   UNL d   1      50.811  33.548  53.436  0.00  0.00     0.002 A 
ATOM     11  C   UNL d   1      50.758  34.446  52.043  0.00  0.00     0.019 A 
ATOM     12  C   UNL d   1      50.138  33.525  52.960  0.00  0.00     0.000 A 
ATOM     13  C   UNL d   1      50.112  33.974  52.264  0.00  0.00     0.002 A 
ENDROOT
BRANCH   7  14
ATOM     14  N   UNL d   1      53.629  33.803  55.187  0.00  0.00    -0.206 NA
ATOM     15  C   UNL d   1      54.106  33.126  55.165  0.00  0.00     0.302 C 
ATOM     16  O   UNL d   1      54.428  32.850  55.860  0.00  0.00    -0.263 OA
BRANCH  15  17
ATOM     17  C   UNL d   1      54.250  32.737  54.435  0.00  0.00     0.158 A 
ATOM     18  O   UNL d   1      54.676  32.951  53.759  0.00  0.00    -0.300 OA
ATOM     19  C   UNL d   1      54.614  32.338  53.222  0.00  0.00     0.123 A 
ATOM     20  C   UNL d   1      54.160  31.753  53.551  0.00  0.00     0.029 A 
ATOM     21  C   UNL d   1      53.939  32.005  54.300  0.00  0.00     0.032 A 
ENDBRANCH  15  17
ENDBRANCH   7  14
TORSDOF 2
ENDMDL
MODEL 3
REMARK VINA RESULT:      -9.1      1.652      3.314
REMARK  2 active torsions:
REMARK  status: ('A' for Active; 'I' for Inactive)
REMARK       I    between atoms: C_6  and  N_8 
REMARK    1  A    between atoms: C_7  and  C_6 
REMARK    2  A    between atoms: N_8  and  C_11 
ROOT
ATOM      1  N   UNL d   1      51.298  32.401  53.307  0.00  0.00    -0.246 NA
ATOM      2  C   UNL d   1      51.737  33.614  52.948  0.00  0.00     0.019 A 
ATOM      3  C   UNL d   1      51.060  33.167  53.116  0.00  0.00     0.081 A 
ATOM      4  C   UNL d   1      52.383  33.120  53.037  0.00  0.00     0.021 A 
ATOM      5  C   UNL d   1      52.102  32.376  53.258  0.00  0.00     0.082 A 
ATOM      6  C   UNL d   1      53.184  33.253  52.946  0.00  0.00     0.021 A 
ATOM      7  C   UNL d   1      53.725  32.638  53.075  0.00  0.00     0.085 A 
ATOM      8  C   UNL d   1      52.642  31.754  53.390  0.00  0.00     0.021 A 
ATOM      9  C   UNL d   1      53.447  31.893  53.296  0.00  0.00     0.021 A 
ATOM     10  C   UNL d   1      51.669  34.419  52.734  0.00  0.00     0.002 A 
ATOM     11  C   UNL d   1      50.314  33.524  53.071  0.00  0.00     0.019 A 
ATOM     12  C   UNL d   1      50.925  34.772  52.690  0.00  0.00     0.000 A 
ATOM     13  C   UNL d   1      50.248  34.324  52.858  0.00  0.00     0.002 A 
ENDROOT
BRANCH   7  14
ATOM     14  N   UNL d   1      54.554  32.778  52.980  0.00  0.00    -0.206 NA
ATOM     15  C   UNL d   1      55.021  32.971  53.637  0.00  0.00     0.302 C 
ATOM     16  O   UNL d   1      55.817  33.102  53.527  0.00  0.00    -0.263 OA
BRANCH  15  17
ATOM     17  C   UNL d   1      54.671  33.026  54.398  0.00  0.00     0.158 A 
ATOM     18  O   UNL d   1      54.284  32.477  54.881  0.00  0.00    -0.300 OA
ATOM     19  C   UNL d   1      54.063  32.861  55.568  0.00  0.00     0.123 A 
ATOM     20  C   UNL d   1      54.305  33.633  55.518  0.00  0.00     0.029 A 
ATOM     21  C   UNL d   1      54.680  33.729  54.795  0.00  0.00     0.032 A 
ENDBRANCH  15  17
ENDBRANCH   7  14
TORSDOF 2
ENDMDL
MODEL 4
REMARK VINA RESULT:      -8.8      1.736      3.857
REMARK  2 active torsions:
REMARK  status: ('A' for Active; 'I' for Inactive)
REMARK       I    between atoms: C_6  and  N_8 
REMARK    1  A    between atoms: C_7  and  C_6 
REMARK    2  A    between atoms: N_8  and  C_11 
ROOT
ATOM      1  N   UNL d   1      52.866  33.503  54.569  0.00  0.00    -0.246 NA
ATOM      2  C   UNL d   1      54.082  33.086  54.196  0.00  0.00     0.019 A 
ATOM      3  C   UNL d   1      53.674  33.600  54.700  0.00  0.00     0.081 A 
ATOM      4  C   UNL d   1      53.523  32.677  53.761  0.00  0.00     0.021 A 
ATOM      5  C   UNL d   1      52.778  32.940  53.998  0.00  0.00     0.082 A 
ATOM      6  C   UNL d   1      53.598  32.103  53.184  0.00  0.00     0.021 A 
ATOM      7  C   UNL d   1      52.922  31.779  52.829  0.00  0.00     0.085 A 
ATOM      8  C   UNL d   1      52.095  32.617  53.645  0.00  0.00     0.021 A 
ATOM      9  C   UNL d   1      52.176  32.040  53.064  0.00  0.00     0.021 A 
ATOM     10  C   UNL d   1      54.917  33.062  54.204  0.00  0.00     0.002 A 
ATOM     11  C   UNL d   1      54.100  34.092  55.213  0.00  0.00     0.019 A 
ATOM     12  C   UNL d   1      55.338  33.552  54.716  0.00  0.00     0.000 A 
ATOM     13  C   UNL d   1      54.929  34.067  55.220  0.00  0.00     0.002 A 
ENDROOT
BRANCH   7  14
ATOM     14  N   UNL d   1      53.003  31.185  52.232  0.00  0.00    -0.206 NA
ATOM     15  C   UNL d   1      52.998  30.382  52.441  0.00  0.00     0.302 C 
ATOM     16  O   UNL d   1      53.076  29.824  51.854  0.00  0.00    -0.263 OA
BRANCH  15  17
ATOM     17  C   UNL d   1      52.911  30.159  53.246  0.00  0.00     0.158 A 
ATOM     18  O   UNL d   1      52.296  30.248  53.791  0.00  0.00    -0.300 OA
ATOM     19  C   UNL d   1      52.539  29.914  54.497  0.00  0.00     0.123 A 
ATOM     20  C   UNL d   1      53.288  29.623  54.398  0.00  0.00     0.029 A 
ATOM     21  C   UNL d   1      53.513  29.776  53.624  0.00  0.00     0.032 A 
ENDBRANCH  15  17
ENDBRANCH   7  14
TORSDOF 2
ENDMDL
MODEL 5
REMARK VINA RESULT:      -8.4      1.820      2.804
REMARK  2 active torsions:
REMARK  status: ('A' for Active; 'I' for Inactive)
REMARK       I    between atoms: C_6  and  N_8 
REMARK    1  A    between atoms: C_7  and  C_6 
REMARK    2  A    between atoms: N_8  and  C_11 
ROOT
ATOM      1  N   UNL d   1      54.709  32.653  53.500  0.00  0.00    -0.246 NA
ATOM      2  C   UNL d   1      54.087  33.283  54.505  0.00  0.00     0.019 A 
ATOM      3  C   UNL d   1      54.827  33.119  54.171  0.00  0.00     0.081 A 
ATOM      4  C   UNL d   1      53.523  32.918  54.039  0.00  0.00     0.021 A 
ATOM      5  C   UNL d   1      53.915  32.533  53.423  0.00  0.00     0.082 A 
ATOM      6  C   UNL d   1      52.708  32.889  54.098  0.00  0.00     0.021 A 
ATOM      7  C   UNL d   1      52.266  32.469  53.536  0.00  0.00     0.085 A 
ATOM      8  C   UNL d   1      53.475  32.110  52.856  0.00  0.00     0.021 A 
ATOM      9  C   UNL d   1      52.655  32.083  52.919  0.00  0.00     0.021 A 
ATOM     10  C   UNL d   1      54.032  33.749  55.197  0.00  0.00     0.002 A 
ATOM     11  C   UNL d   1      55.512  33.419  54.526  0.00  0.00     0.019 A 
ATOM     12  C   UNL d   1      54.716  34.046  55.549  0.00  0.00     0.000 A 
ATOM     13  C   UNL d   1      55.455  33.881  55.214  0.00  0.00     0.002 A 
ENDROOT
BRANCH   7  14
ATOM     14  N   UNL d   1      51.423  32.440  53.599  0.00  0.00    -0.206 NA
ATOM     15  C   UNL d   1      50.957  33.000  53.204  0.00  0.00     0.302 C 
ATOM     16  O   UNL d   1      50.147  32.958  53.275  0.00  0.00    -0.263 OA
BRANCH  15  17
ATOM     17  C   UNL d   1      51.322  33.598  52.740  0.00  0.00     0.158 A 
ATOM     18  O   UNL d   1      51.763  33.575  52.040  0.00  0.00    -0.300 OA
ATOM     19  C   UNL d   1      51.973  34.343  51.854  0.00  0.00     0.123 A 
ATOM     20  C   UNL d   1      51.672  34.836  52.422  0.00  0.00     0.029 A 
ATOM     21  C   UNL d   1      51.272  34.371  52.965  0.00  0.00     0.032 A 
ENDBRANCH  15  17
ENDBRANCH   7  14
TORSDOF 2
ENDMDL
MODEL 6
REMARK VINA RESULT:      -7.6      1.823      3.625
REMARK  2 active torsions:
REMARK  status: ('A' for Active; 'I' for Inactive)
REMARK       I    between atoms: C_6  and  N_8 
REMARK    1  A    between atoms: C_7  and  C_6 
REMARK    2  A    between atoms: N_8  and  C_11 
ROOT
ATOM      1  N   UNL d   1      53.126  33.770  52.691  0.00  0.00    -0.246 NA
ATOM      2  C   UNL d   1      52.017  33.310  53.283  0.00  0.00     0.019 A 
ATOM      3  C   UNL d   1      52.310  33.871  52.750  0.00  0.00     0.081 A 
ATOM      4  C   UNL d   1      52.653  32.869  53.546  0.00  0.00     0.021 A 
ATOM      5  C   UNL d   1      53.331  33.160  53.177  0.00  0.00     0.082 A 
ATOM      6  C   UNL d   1      52.700  32.245  54.072  0.00  0.00     0.021 A 
ATOM      7  C   UNL d   1      53.434  31.896  54.239  0.00  0.00     0.085 A 
ATOM      8  C   UNL d   1      54.072  32.813  53.341  0.00  0.00     0.021 A 
ATOM      9  C   UNL d   1      54.114  32.185  53.871  0.00  0.00     0.021 A 
ATOM     10  C   UNL d   1      51.200  33.278  53.456  0.00  0.00     0.002 A 
ATOM     11  C   UNL d   1      51.787  34.403  52.388  0.00  0.00     0.019 A 
ATOM     12  C   UNL d   1      50.682  33.809  53.094  0.00  0.00     0.000 A 
ATOM     13  C   UNL d   1      50.976  34.371  52.561  0.00  0.00     0.002 A 
ENDROOT
BRANCH   7  14
ATOM     14  N   UNL d   1      53.479  31.250  54.784  0.00  0.00    -0.206 NA
ATOM     15  C   UNL d   1      53.429  30.470  54.509  0.00  0.00     0.302 C 
ATOM     16  O   UNL d   1      53.475  29.861  55.046  0.00  0.00    -0.263 OA
BRANCH  15  17
ATOM     17  C   UNL d   1      53.332  30.321  53.688  0.00  0.00     0.158 A 
ATOM     18  O   UNL d   1      53.805  30.479  53.028  0.00  0.00    -0.300 OA
ATOM     19  C   UNL d   1      53.413  30.200  52.368  0.00  0.00     0.123 A 
ATOM     20  C   UNL d   1      52.711  29.873  52.606  0.00  0.00     0.029 A 
ATOM     21  C   UNL d   1      52.667  29.951  53.421  0.00  0.00     0.032 A 
ENDBRANCH  15  17
ENDBRANCH   7  14
TORSDOF 2
ENDMDL
