MODEL 1
REMARK VINA RESULT:      26.8      0.000      0.000
REMARK  4 active torsions:
REMARK  status: ('A' for Active; 'I' for Inactive)
REMARK    1  A    between atoms: C_2  and  N_1 
REMARK    2  A    between atoms: C_12  and  C_5 
REMARK    3  A    between atoms: O_20  and  C_12 
REMARK    4  A    between atoms: C_21  and  C_13 
ROOT
ATOM      1  N   UNL d   1      46.049 -17.534  43.506  0.00  0.00    -0.237 N 
ATOM      2  C   UNL d   1      45.609 -17.437  44.210  0.00  0.00     0.263 A 
ATOM      3  C   UNL d   1      46.230 -16.779  43.208  0.00  0.00     0.263 A 
ATOM      4  C   UNL d   1      45.906 -16.217  43.722  0.00  0.00     0.039 A 
ATOM      5  C   UNL d   1      45.521 -16.627  44.343  0.00  0.00     0.039 A 
ATOM      6  C   UNL d   1      45.909 -15.379  43.708  0.00  0.00     0.049 A 
ATOM      7  C   UNL d   1      45.136 -16.201  44.955  0.00  0.00     0.049 A 
ATOM      8  C   UNL d   1      45.518 -14.956  44.330  0.00  0.00    -0.026 A 
ATOM      9  C   UNL d   1      45.136 -15.370  44.946  0.00  0.00    -0.026 A 
ATOM     10  C   UNL d   1      45.680 -16.040  44.082  0.00  0.00     0.018 A 
ATOM     11  O   UNL d   1      46.641 -16.637  42.548  0.00  0.00    -0.267 OA
ATOM     12  O   UNL d   1      45.331 -18.021  44.662  0.00  0.00    -0.267 OA
ENDROOT
BRANCH   1  13
ATOM     13  C   UNL d   1      46.257 -18.239  43.179  0.00  0.00     0.105 A 
ATOM     14  C   UNL d   1      46.492 -18.882  43.581  0.00  0.00     0.086 A 
ATOM     15  C   UNL d   1      46.647 -19.462  43.049  0.00  0.00     0.014 A 
ATOM     16  C   UNL d   1      46.503 -19.163  42.330  0.00  0.00     0.031 A 
ATOM     17  S   UNL d   1      46.264 -18.414  42.401  0.00  0.00    -0.069 SA
BRANCH  14  18
ATOM     18  C   UNL d   1      46.563 -18.941  44.373  0.00  0.00     0.298 C 
ATOM     19  O   UNL d   1      46.640 -18.284  44.821  0.00  0.00    -0.259 OA
BRANCH  18  20
ATOM     20  O   UNL d   1      46.556 -19.666  44.725  0.00  0.00    -0.296 OA
ATOM     21  C   UNL d   1      45.829 -19.900  44.931  0.00  0.00     0.185 C 
ENDBRANCH  18  20
ENDBRANCH  14  18
BRANCH  16  22
ATOM     22  C   UNL d   1      46.612 -19.626  41.685  0.00  0.00     0.006 C 
ATOM     23  C   UNL d   1      46.621 -19.297  40.940  0.00  0.00     0.001 C 
ENDBRANCH  16  22
ENDBRANCH   1  13
TORSDOF 4
ENDMDL
MODEL 2
REMARK VINA RESULT:      27.2      6.471      7.729
REMARK  4 active torsions:
REMARK  status: ('A' for Active; 'I' for Inactive)
REMARK    1  A    between atoms: C_2  and  N_1 
REMARK    2  A    between atoms: C_12  and  C_5 
REMARK    3  A    between atoms: O_20  and  C_12 
REMARK    4  A    between atoms: C_21  and  C_13 
ROOT
ATOM      1  N   UNL d   1      43.921 -15.323  36.831  0.00  0.00    -0.237 N 
ATOM      2  C   UNL d   1      44.276 -14.588  37.014  0.00  0.00     0.263 A 
ATOM      3  C   UNL d   1      44.516 -15.836  36.558  0.00  0.00     0.263 A 
ATOM      4  C   UNL d   1      45.234 -15.425  36.572  0.00  0.00     0.039 A 
ATOM      5  C   UNL d   1      45.083 -14.651  36.855  0.00  0.00     0.039 A 
ATOM      6  C   UNL d   1      46.013 -15.653  36.362  0.00  0.00     0.049 A 
ATOM      7  C   UNL d   1      45.711 -14.099  36.930  0.00  0.00     0.049 A 
ATOM      8  C   UNL d   1      46.642 -15.090  36.441  0.00  0.00    -0.026 A 
ATOM      9  C   UNL d   1      46.484 -14.320  36.724  0.00  0.00    -0.026 A 
ATOM     10  C   UNL d   1      45.535 -15.081  36.634  0.00  0.00     0.018 A 
ATOM     11  O   UNL d   1      44.402 -16.584  36.330  0.00  0.00    -0.267 OA
ATOM     12  O   UNL d   1      43.898 -13.953  37.290  0.00  0.00    -0.267 OA
ENDROOT
BRANCH   1  13
ATOM     13  C   UNL d   1      43.140 -15.496  36.908  0.00  0.00     0.105 A 
ATOM     14  C   UNL d   1      42.784 -15.740  37.575  0.00  0.00     0.086 A 
ATOM     15  C   UNL d   1      42.006 -15.850  37.413  0.00  0.00     0.014 A 
ATOM     16  C   UNL d   1      41.899 -15.671  36.650  0.00  0.00     0.031 A 
ATOM     17  S   UNL d   1      42.588 -15.453  36.332  0.00  0.00    -0.069 SA
BRANCH  14  18
ATOM     18  C   UNL d   1      43.138 -15.855  38.280  0.00  0.00     0.298 C 
ATOM     19  O   UNL d   1      43.564 -15.270  38.617  0.00  0.00    -0.259 OA
BRANCH  18  20
ATOM     20  O   UNL d   1      43.067 -16.566  38.655  0.00  0.00    -0.296 OA
ATOM     21  C   UNL d   1      43.745 -16.809  38.982  0.00  0.00     0.185 C 
ENDBRANCH  18  20
ENDBRANCH  14  18
BRANCH  16  22
ATOM     22  C   UNL d   1      41.165 -15.732  36.333  0.00  0.00     0.006 C 
ATOM     23  C   UNL d   1      40.710 -16.392  36.473  0.00  0.00     0.001 C 
ENDBRANCH  16  22
ENDBRANCH   1  13
TORSDOF 4
ENDMDL
MODEL 3
REMARK VINA RESULT:      29.2      1.309      3.803
REMARK  4 active torsions:
REMARK  status: ('A' for Active; 'I' for Inactive)
REMARK    1  A    between atoms: C_2  and  N_1 
REMARK    2  A    between atoms: C_12  and  C_5 
REMARK    3  A    between atoms: O_20  and  C_12 
REMARK    4  A    between atoms: C_21  and  C_13 
ROOT
ATOM      1  N   UNL d   1      46.091 -16.549  43.696  0.00  0.00    -0.237 N 
ATOM      2  C   UNL d   1      45.937 -16.869  42.939  0.00  0.00     0.263 A 
ATOM      3  C   UNL d   1      46.344 -17.167  44.192  0.00  0.00     0.263 A 
ATOM      4  C   UNL d   1      46.348 -17.865  43.747  0.00  0.00     0.039 A 
ATOM      5  C   UNL d   1      46.095 -17.678  42.971  0.00  0.00     0.039 A 
ATOM      6  C   UNL d   1      46.549 -18.654  43.947  0.00  0.00     0.049 A 
ATOM      7  C   UNL d   1      46.042 -18.280  42.388  0.00  0.00     0.049 A 
ATOM      8  C   UNL d   1      46.493 -19.256  43.353  0.00  0.00    -0.026 A 
ATOM      9  C   UNL d   1      46.240 -19.063  42.581  0.00  0.00    -0.026 A 
ATOM     10  C   UNL d   1      46.299 -18.149  43.388  0.00  0.00     0.018 A 
ATOM     11  O   UNL d   1      46.543 -17.088  44.952  0.00  0.00    -0.267 OA
ATOM     12  O   UNL d   1      45.686 -16.462  42.312  0.00  0.00    -0.267 OA
ENDROOT
BRANCH   1  13
ATOM     13  C   UNL d   1      46.007 -15.776  43.902  0.00  0.00     0.105 A 
ATOM     14  C   UNL d   1      45.380 -15.464  44.278  0.00  0.00     0.086 A 
ATOM     15  C   UNL d   1      45.518 -14.680  44.376  0.00  0.00     0.014 A 
ATOM     16  C   UNL d   1      46.226 -14.526  44.059  0.00  0.00     0.031 A 
ATOM     17  S   UNL d   1      46.532 -15.191  43.766  0.00  0.00    -0.069 SA
BRANCH  14  18
ATOM     18  C   UNL d   1      44.731 -15.861  44.515  0.00  0.00     0.298 C 
ATOM     19  O   UNL d   1      44.801 -16.530  44.944  0.00  0.00    -0.259 OA
BRANCH  18  20
ATOM     20  O   UNL d   1      43.998 -15.585  44.321  0.00  0.00    -0.296 OA
ATOM     21  C   UNL d   1      43.525 -15.504  44.950  0.00  0.00     0.185 C 
ENDBRANCH  18  20
ENDBRANCH  14  18
BRANCH  16  22
ATOM     22  C   UNL d   1      46.508 -13.776  44.078  0.00  0.00     0.006 C 
ATOM     23  C   UNL d   1      46.007 -13.151  44.219  0.00  0.00     0.001 C 
ENDBRANCH  16  22
ENDBRANCH   1  13
TORSDOF 4
ENDMDL
MODEL 4
REMARK VINA RESULT:      29.3      0.942      3.365
REMARK  4 active torsions:
REMARK  status: ('A' for Active; 'I' for Inactive)
REMARK    1  A    between atoms: C_2  and  N_1 
REMARK    2  A    between atoms: C_12  and  C_5 
REMARK    3  A    between atoms: O_20  and  C_12 
REMARK    4  A    between atoms: C_21  and  C_13 
ROOT
ATOM      1  N   UNL d   1      45.977 -18.120  42.698  0.00  0.00    -0.237 N 
ATOM      2  C   UNL d   1      46.347 -18.870  42.680  0.00  0.00     0.263 A 
ATOM      3  C   UNL d   1      45.756 -17.923  41.921  0.00  0.00     0.263 A 
ATOM      4  C   UNL d   1      45.986 -18.544  41.425  0.00  0.00     0.039 A 
ATOM      5  C   UNL d   1      46.352 -19.130  41.898  0.00  0.00     0.039 A 
ATOM      6  C   UNL d   1      45.910 -18.656  40.597  0.00  0.00     0.049 A 
ATOM      7  C   UNL d   1      46.646 -19.834  41.545  0.00  0.00     0.049 A 
ATOM      8  C   UNL d   1      46.209 -19.369  40.250  0.00  0.00    -0.026 A 
ATOM      9  C   UNL d   1      46.573 -19.949  40.727  0.00  0.00    -0.026 A 
ATOM     10  C   UNL d   1      46.164 -18.947  41.290  0.00  0.00     0.018 A 
ATOM     11  O   UNL d   1      45.390 -17.256  41.708  0.00  0.00    -0.267 OA
ATOM     12  O   UNL d   1      46.637 -19.253  43.306  0.00  0.00    -0.267 OA
ENDROOT
BRANCH   1  13
ATOM     13  C   UNL d   1      45.859 -17.673  43.356  0.00  0.00     0.105 A 
ATOM     14  C   UNL d   1      45.774 -17.952  44.095  0.00  0.00     0.086 A 
ATOM     15  C   UNL d   1      45.669 -17.326  44.584  0.00  0.00     0.014 A 
ATOM     16  C   UNL d   1      45.691 -16.674  44.136  0.00  0.00     0.031 A 
ATOM     17  S   UNL d   1      45.807 -16.877  43.382  0.00  0.00    -0.069 SA
BRANCH  14  18
ATOM     18  C   UNL d   1      45.791 -18.720  44.311  0.00  0.00     0.298 C 
ATOM     19  O   UNL d   1      45.223 -19.221  44.061  0.00  0.00    -0.259 OA
BRANCH  18  20
ATOM     20  O   UNL d   1      46.385 -18.992  44.784  0.00  0.00    -0.296 OA
ATOM     21  C   UNL d   1      46.316 -19.762  44.950  0.00  0.00     0.185 C 
ENDBRANCH  18  20
ENDBRANCH  14  18
BRANCH  16  22
ATOM     22  C   UNL d   1      45.600 -15.957  44.483  0.00  0.00     0.006 C 
ATOM     23  C   UNL d   1      45.156 -15.378  44.121  0.00  0.00     0.001 C 
ENDBRANCH  16  22
ENDBRANCH   1  13
TORSDOF 4
ENDMDL
