MODEL 1
REMARK VINA RESULT:     -10.0      0.000      0.000
REMARK  3 active torsions:
REMARK  status: ('A' for Active; 'I' for Inactive)
REMARK    1  A    between atoms: N_12  and  C_6 
REMARK    2  A    between atoms: C_18  and  N_12 
REMARK    3  A    between atoms: C_19  and  C_18 
ROOT
ATOM      1  N   UNL d   1     -48.174  12.331  23.326  0.00  0.00    -0.175 N 
ATOM      2  C   UNL d   1     -48.237  13.087  23.090  0.00  0.00     0.167 A 
ATOM      3  N   UNL d   1     -47.426  12.002  23.442  0.00  0.00    -0.142 NA
ATOM      4  C   UNL d   1     -48.821  11.888  23.450  0.00  0.00     0.283 A 
ATOM      5  N   UNL d   1     -48.949  13.419  22.973  0.00  0.00    -0.227 NA
ATOM      6  C   UNL d   1     -46.744  12.447  23.317  0.00  0.00     0.182 A 
ATOM      7  C   UNL d   1     -49.569  12.217  23.334  0.00  0.00     0.076 A 
ATOM      8  C   UNL d   1     -47.554  13.533  22.965  0.00  0.00     0.039 A 
ATOM      9  C   UNL d   1     -49.632  12.974  23.098  0.00  0.00     0.088 A 
ATOM     10  C   UNL d   1     -46.807  13.204  23.081  0.00  0.00     0.041 A 
ATOM     11  O   UNL d   1     -48.755  11.096  23.697  0.00  0.00    -0.265 OA
ATOM     12  C   UNL d   1     -50.252  11.771  23.459  0.00  0.00     0.006 A 
ATOM     13  C   UNL d   1     -47.620  14.324  22.719  0.00  0.00     0.003 A 
ATOM     14  C   UNL d   1     -46.123  13.650  22.956  0.00  0.00     0.003 A 
ATOM     15  C   UNL d   1     -50.380  13.303  22.982  0.00  0.00     0.019 A 
ATOM     16  C   UNL d   1     -51.001  12.123  23.336  0.00  0.00     0.000 A 
ATOM     17  C   UNL d   1     -46.937  14.770  22.594  0.00  0.00     0.000 A 
ATOM     18  C   UNL d   1     -46.189  14.441  22.710  0.00  0.00     0.000 A 
ATOM     19  C   UNL d   1     -51.061  12.834  23.114  0.00  0.00     0.002 A 
ENDROOT
BRANCH   6  20
ATOM     20  N   UNL d   1     -45.962  12.150  23.424  0.00  0.00    -0.220 NA
BRANCH  20  21
ATOM     21  C   UNL d   1     -45.835  11.339  23.531  0.00  0.00     0.146 C 
BRANCH  21  22
ATOM     22  C   UNL d   1     -45.113  11.002  23.382  0.00  0.00     0.255 C 
ATOM     23  O   UNL d   1     -44.948  10.243  23.698  0.00  0.00    -0.281 OA
ENDBRANCH  21  22
ENDBRANCH  20  21
ENDBRANCH   6  20
TORSDOF 3
ENDMDL
MODEL 2
REMARK VINA RESULT:      -9.2      1.702      2.525
REMARK  3 active torsions:
REMARK  status: ('A' for Active; 'I' for Inactive)
REMARK    1  A    between atoms: N_12  and  C_6 
REMARK    2  A    between atoms: C_18  and  N_12 
REMARK    3  A    between atoms: C_19  and  C_18 
ROOT
ATOM      1  N   UNL d   1     -47.780  13.883  22.917  0.00  0.00    -0.175 N 
ATOM      2  C   UNL d   1     -48.230  13.280  23.174  0.00  0.00     0.167 A 
ATOM      3  N   UNL d   1     -46.975  13.762  22.782  0.00  0.00    -0.142 NA
ATOM      4  C   UNL d   1     -48.096  14.601  22.789  0.00  0.00     0.283 A 
ATOM      5  N   UNL d   1     -49.006  13.380  23.309  0.00  0.00    -0.227 NA
ATOM      6  C   UNL d   1     -46.631  13.023  22.910  0.00  0.00     0.182 A 
ATOM      7  C   UNL d   1     -48.901  14.722  22.924  0.00  0.00     0.076 A 
ATOM      8  C   UNL d   1     -47.885  12.541  23.302  0.00  0.00     0.039 A 
ATOM      9  C   UNL d   1     -49.351  14.119  23.181  0.00  0.00     0.088 A 
ATOM     10  C   UNL d   1     -47.081  12.420  23.167  0.00  0.00     0.041 A 
ATOM     11  O   UNL d   1     -47.625  15.232  22.521  0.00  0.00    -0.265 OA
ATOM     12  C   UNL d   1     -49.246  15.461  22.797  0.00  0.00     0.006 A 
ATOM     13  C   UNL d   1     -48.356  11.911  23.570  0.00  0.00     0.003 A 
ATOM     14  C   UNL d   1     -46.737  11.681  23.294  0.00  0.00     0.003 A 
ATOM     15  C   UNL d   1     -50.156  14.240  23.316  0.00  0.00     0.019 A 
ATOM     16  C   UNL d   1     -50.063  15.564  22.940  0.00  0.00     0.000 A 
ATOM     17  C   UNL d   1     -48.012  11.172  23.698  0.00  0.00     0.000 A 
ATOM     18  C   UNL d   1     -47.207  11.051  23.563  0.00  0.00     0.000 A 
ATOM     19  C   UNL d   1     -50.486  14.997  23.181  0.00  0.00     0.002 A 
ENDROOT
BRANCH   6  20
ATOM     20  N   UNL d   1     -45.814  12.858  22.784  0.00  0.00    -0.220 NA
BRANCH  20  21
ATOM     21  C   UNL d   1     -45.384  13.282  22.219  0.00  0.00     0.146 C 
BRANCH  21  22
ATOM     22  C   UNL d   1     -44.735  12.962  21.855  0.00  0.00     0.255 C 
ATOM     23  O   UNL d   1     -44.018  13.397  21.851  0.00  0.00    -0.281 OA
ENDBRANCH  21  22
ENDBRANCH  20  21
ENDBRANCH   6  20
TORSDOF 3
ENDMDL
MODEL 3
REMARK VINA RESULT:      -8.8      1.670      4.337
REMARK  3 active torsions:
REMARK  status: ('A' for Active; 'I' for Inactive)
REMARK    1  A    between atoms: N_12  and  C_6 
REMARK    2  A    between atoms: C_18  and  N_12 
REMARK    3  A    between atoms: C_19  and  C_18 
ROOT
ATOM      1  N   UNL d   1     -48.007  13.563  22.929  0.00  0.00    -0.175 N 
ATOM      2  C   UNL d   1     -48.025  12.778  23.054  0.00  0.00     0.167 A 
ATOM      3  N   UNL d   1     -48.701  14.003  23.004  0.00  0.00    -0.142 NA
ATOM      4  C   UNL d   1     -47.330  13.929  22.732  0.00  0.00     0.283 A 
ATOM      5  N   UNL d   1     -47.366  12.340  22.986  0.00  0.00    -0.227 NA
ATOM      6  C   UNL d   1     -49.413  13.639  23.208  0.00  0.00     0.182 A 
ATOM      7  C   UNL d   1     -46.636  13.489  22.657  0.00  0.00     0.076 A 
ATOM      8  C   UNL d   1     -48.737  12.415  23.258  0.00  0.00     0.039 A 
ATOM      9  C   UNL d   1     -46.653  12.704  22.782  0.00  0.00     0.088 A 
ATOM     10  C   UNL d   1     -49.430  12.854  23.333  0.00  0.00     0.041 A 
ATOM     11  O   UNL d   1     -47.312  14.750  22.601  0.00  0.00    -0.265 OA
ATOM     12  C   UNL d   1     -45.924  13.853  22.453  0.00  0.00     0.006 A 
ATOM     13  C   UNL d   1     -48.755  11.594  23.389  0.00  0.00     0.003 A 
ATOM     14  C   UNL d   1     -50.143  12.491  23.537  0.00  0.00     0.003 A 
ATOM     15  C   UNL d   1     -45.959  12.264  22.707  0.00  0.00     0.019 A 
ATOM     16  C   UNL d   1     -45.231  13.389  22.382  0.00  0.00     0.000 A 
ATOM     17  C   UNL d   1     -49.467  11.231  23.593  0.00  0.00     0.000 A 
ATOM     18  C   UNL d   1     -50.161  11.670  23.668  0.00  0.00     0.000 A 
ATOM     19  C   UNL d   1     -45.247  12.652  22.500  0.00  0.00     0.002 A 
ENDROOT
BRANCH   6  20
ATOM     20  N   UNL d   1     -50.143  14.051  23.295  0.00  0.00    -0.220 NA
BRANCH  20  21
ATOM     21  C   UNL d   1     -50.158  14.879  23.293  0.00  0.00     0.146 C 
BRANCH  21  22
ATOM     22  C   UNL d   1     -50.845  15.289  23.425  0.00  0.00     0.255 C 
ATOM     23  O   UNL d   1     -51.062  15.898  22.892  0.00  0.00    -0.281 OA
ENDBRANCH  21  22
ENDBRANCH  20  21
ENDBRANCH   6  20
TORSDOF 3
ENDMDL
MODEL 4
REMARK VINA RESULT:      -7.9      1.289      3.720
REMARK  3 active torsions:
REMARK  status: ('A' for Active; 'I' for Inactive)
REMARK    1  A    between atoms: N_12  and  C_6 
REMARK    2  A    between atoms: C_18  and  N_12 
REMARK    3  A    between atoms: C_19  and  C_18 
ROOT
ATOM      1  N   UNL d   1     -47.954  13.249  22.919  0.00  0.00    -0.175 N 
ATOM      2  C   UNL d   1     -47.903  14.034  22.807  0.00  0.00     0.167 A 
ATOM      3  N   UNL d   1     -48.679  12.913  23.126  0.00  0.00    -0.142 NA
ATOM      4  C   UNL d   1     -47.316  12.784  22.834  0.00  0.00     0.283 A 
ATOM      5  N   UNL d   1     -47.213  14.373  22.608  0.00  0.00    -0.227 NA
ATOM      6  C   UNL d   1     -49.351  13.382  23.218  0.00  0.00     0.182 A 
ATOM      7  C   UNL d   1     -46.591  13.119  22.627  0.00  0.00     0.076 A 
ATOM      8  C   UNL d   1     -48.576  14.503  22.899  0.00  0.00     0.039 A 
ATOM      9  C   UNL d   1     -46.540  13.905  22.515  0.00  0.00     0.088 A 
ATOM     10  C   UNL d   1     -49.300  14.167  23.106  0.00  0.00     0.041 A 
ATOM     11  O   UNL d   1     -47.369  11.962  22.951  0.00  0.00    -0.265 OA
ATOM     12  C   UNL d   1     -45.918  12.650  22.535  0.00  0.00     0.006 A 
ATOM     13  C   UNL d   1     -48.523  15.324  22.782  0.00  0.00     0.003 A 
ATOM     14  C   UNL d   1     -49.973  14.636  23.199  0.00  0.00     0.003 A 
ATOM     15  C   UNL d   1     -45.815  14.240  22.308  0.00  0.00     0.019 A 
ATOM     16  C   UNL d   1     -45.192  13.010  22.325  0.00  0.00     0.000 A 
ATOM     17  C   UNL d   1     -49.195  15.793  22.875  0.00  0.00     0.000 A 
ATOM     18  C   UNL d   1     -49.920  15.457  23.082  0.00  0.00     0.000 A 
ATOM     19  C   UNL d   1     -45.144  13.748  22.220  0.00  0.00     0.002 A 
ENDROOT
BRANCH   6  20
ATOM     20  N   UNL d   1     -50.109  13.079  23.428  0.00  0.00    -0.220 NA
BRANCH  20  21
ATOM     21  C   UNL d   1     -50.251  12.264  23.420  0.00  0.00     0.146 C 
BRANCH  21  22
ATOM     22  C   UNL d   1     -50.946  11.953  23.696  0.00  0.00     0.255 C 
ATOM     23  O   UNL d   1     -51.045  11.121  23.698  0.00  0.00    -0.281 OA
ENDBRANCH  21  22
ENDBRANCH  20  21
ENDBRANCH   6  20
TORSDOF 3
ENDMDL
MODEL 5
REMARK VINA RESULT:      -7.8      0.800      3.639
REMARK  3 active torsions:
REMARK  status: ('A' for Active; 'I' for Inactive)
REMARK    1  A    between atoms: N_12  and  C_6 
REMARK    2  A    between atoms: C_18  and  N_12 
REMARK    3  A    between atoms: C_19  and  C_18 
ROOT
ATOM      1  N   UNL d   1     -47.179  12.015  23.325  0.00  0.00    -0.175 N 
ATOM      2  C   UNL d   1     -46.644  12.574  23.143  0.00  0.00     0.167 A 
ATOM      3  N   UNL d   1     -47.983  12.204  23.323  0.00  0.00    -0.142 NA
ATOM      4  C   UNL d   1     -46.951  11.276  23.508  0.00  0.00     0.283 A 
ATOM      5  N   UNL d   1     -45.867  12.408  23.140  0.00  0.00    -0.227 NA
ATOM      6  C   UNL d   1     -48.237  12.966  23.136  0.00  0.00     0.182 A 
ATOM      7  C   UNL d   1     -46.147  11.087  23.509  0.00  0.00     0.076 A 
ATOM      8  C   UNL d   1     -46.899  13.336  22.955  0.00  0.00     0.039 A 
ATOM      9  C   UNL d   1     -45.612  11.646  23.327  0.00  0.00     0.088 A 
ATOM     10  C   UNL d   1     -47.702  13.525  22.954  0.00  0.00     0.041 A 
ATOM     11  O   UNL d   1     -47.511  10.691  23.698  0.00  0.00    -0.265 OA
ATOM     12  C   UNL d   1     -45.892  10.325  23.697  0.00  0.00     0.006 A 
ATOM     13  C   UNL d   1     -46.340  13.920  22.765  0.00  0.00     0.003 A 
ATOM     14  C   UNL d   1     -47.957  14.287  22.766  0.00  0.00     0.003 A 
ATOM     15  C   UNL d   1     -44.809  11.456  23.329  0.00  0.00     0.019 A 
ATOM     16  C   UNL d   1     -45.073  10.153  23.693  0.00  0.00     0.000 A 
ATOM     17  C   UNL d   1     -46.595  14.682  22.578  0.00  0.00     0.000 A 
ATOM     18  C   UNL d   1     -47.398  14.871  22.576  0.00  0.00     0.000 A 
ATOM     19  C   UNL d   1     -44.570  10.678  23.522  0.00  0.00     0.002 A 
ENDROOT
BRANCH   6  20
ATOM     20  N   UNL d   1     -49.047  13.200  23.123  0.00  0.00    -0.220 NA
BRANCH  20  21
ATOM     21  C   UNL d   1     -49.644  12.634  23.038  0.00  0.00     0.146 C 
BRANCH  21  22
ATOM     22  C   UNL d   1     -50.428  12.842  23.051  0.00  0.00     0.255 C 
ATOM     23  O   UNL d   1     -51.007  12.239  22.996  0.00  0.00    -0.281 OA
ENDBRANCH  21  22
ENDBRANCH  20  21
ENDBRANCH   6  20
TORSDOF 3
ENDMDL
MODEL 6
REMARK VINA RESULT:      -7.4      8.854      9.939
REMARK  3 active torsions:
REMARK  status: ('A' for Active; 'I' for Inactive)
REMARK    1  A    between atoms: N_12  and  C_6 
REMARK    2  A    between atoms: C_18  and  N_12 
REMARK    3  A    between atoms: C_19  and  C_18 
ROOT
ATOM      1  N   UNL d   1     -40.156  14.998  19.111  0.00  0.00    -0.175 N 
ATOM      2  C   UNL d   1     -39.595  14.435  19.084  0.00  0.00     0.167 A 
ATOM      3  N   UNL d   1     -40.527  15.236  18.413  0.00  0.00    -0.142 NA
ATOM      4  C   UNL d   1     -40.363  15.333  19.800  0.00  0.00     0.283 A 
ATOM      5  N   UNL d   1     -39.228  14.194  19.746  0.00  0.00    -0.227 NA
ATOM      6  C   UNL d   1     -40.324  14.898  17.689  0.00  0.00     0.182 A 
ATOM      7  C   UNL d   1     -39.992  15.095  20.498  0.00  0.00     0.076 A 
ATOM      8  C   UNL d   1     -39.392  14.097  18.359  0.00  0.00     0.039 A 
ATOM      9  C   UNL d   1     -39.431  14.532  20.471  0.00  0.00     0.088 A 
ATOM     10  C   UNL d   1     -39.763  14.335  17.662  0.00  0.00     0.041 A 
ATOM     11  O   UNL d   1     -40.950  15.922  19.828  0.00  0.00    -0.265 OA
ATOM     12  C   UNL d   1     -40.195  15.433  21.223  0.00  0.00     0.006 A 
ATOM     13  C   UNL d   1     -38.805  13.509  18.331  0.00  0.00     0.003 A 
ATOM     14  C   UNL d   1     -39.559  13.997  16.937  0.00  0.00     0.003 A 
ATOM     15  C   UNL d   1     -39.060  14.294  21.168  0.00  0.00     0.019 A 
ATOM     16  C   UNL d   1     -39.807  15.178  21.918  0.00  0.00     0.000 A 
ATOM     17  C   UNL d   1     -38.602  13.171  17.607  0.00  0.00     0.000 A 
ATOM     18  C   UNL d   1     -38.973  13.409  16.909  0.00  0.00     0.000 A 
ATOM     19  C   UNL d   1     -39.280  14.649  21.893  0.00  0.00     0.002 A 
ENDROOT
BRANCH   6  20
ATOM     20  N   UNL d   1     -40.678  15.112  16.955  0.00  0.00    -0.220 NA
BRANCH  20  21
ATOM     21  C   UNL d   1     -41.349  15.597  16.940  0.00  0.00     0.146 C 
BRANCH  21  22
ATOM     22  C   UNL d   1     -41.620  15.921  16.249  0.00  0.00     0.255 C 
ATOM     23  O   UNL d   1     -42.445  15.921  16.098  0.00  0.00    -0.281 OA
ENDBRANCH  21  22
ENDBRANCH  20  21
ENDBRANCH   6  20
TORSDOF 3
ENDMDL
