MODEL 1
REMARK VINA RESULT:      46.7      0.000      0.000
REMARK  1 active torsions:
REMARK  status: ('A' for Active; 'I' for Inactive)
REMARK    1  A    between atoms: N_11  and  C_4 
ROOT
ATOM      1  N   UNL d   1      59.532  49.701  51.408  0.00  0.00    -0.195 N 
ATOM      2  C   UNL d   1      59.254  49.701  50.626  0.00  0.00     0.168 A 
ATOM      3  C   UNL d   1      58.451  49.702  50.469  0.00  0.00     0.073 A 
ATOM      4  C   UNL d   1      60.337  49.700  51.545  0.00  0.00     0.153 A 
ATOM      5  N   UNL d   1      58.206  49.704  51.880  0.00  0.00    -0.143 NA
ATOM      6  C   UNL d   1      57.928  49.704  51.098  0.00  0.00     0.185 A 
ATOM      7  N   UNL d   1      59.788  49.700  50.002  0.00  0.00    -0.227 NA
ATOM      8  C   UNL d   1      58.175  49.702  49.696  0.00  0.00     0.007 A 
ATOM      9  N   UNL d   1      57.112  49.705  50.955  0.00  0.00    -0.225 NA
ATOM     10  C   UNL d   1      60.871  49.699  50.931  0.00  0.00     0.057 A 
ATOM     11  C   UNL d   1      57.373  49.703  49.539  0.00  0.00     0.019 A 
ATOM     12  C   UNL d   1      60.592  49.699  50.149  0.00  0.00     0.086 A 
ATOM     13  C   UNL d   1      56.834  49.705  50.173  0.00  0.00     0.083 A 
ATOM     14  C   UNL d   1      58.714  49.701  49.070  0.00  0.00     0.000 C 
ATOM     15  C   UNL d   1      61.151  49.697  49.504  0.00  0.00     0.021 C 
ATOM     16  C   UNL d   1      56.033  49.706  50.024  0.00  0.00     0.021 C 
ENDROOT
BRANCH   4  17
ATOM     17  N   UNL d   1      60.616  49.700  52.354  0.00  0.00    -0.285 N 
ATOM     18  C   UNL d   1      61.462  49.706  52.515  0.00  0.00     0.108 A 
ATOM     19  C   UNL d   1      61.734  49.706  53.317  0.00  0.00     0.142 A 
ATOM     20  O   UNL d   1      61.173  49.700  53.959  0.00  0.00    -0.300 OA
ATOM     21  C   UNL d   1      60.340  49.694  53.794  0.00  0.00     0.142 A 
ATOM     22  C   UNL d   1      60.068  49.694  52.992  0.00  0.00     0.108 A 
ENDBRANCH   4  17
TORSDOF 1
ENDMDL
