MODEL 1
REMARK VINA RESULT:     139.0      0.000      0.000
REMARK  6 active torsions:
REMARK  status: ('A' for Active; 'I' for Inactive)
REMARK    1  A    between atoms: N_4  and  C_3 
REMARK       I    between atoms: C_6  and  N_10 
REMARK    2  A    between atoms: C_21  and  C_6 
REMARK    3  A    between atoms: C_11  and  C_7 
REMARK    4  A    between atoms: C_9  and  O_12 
REMARK    5  A    between atoms: N_10  and  C_22 
REMARK    6  A    between atoms: O_12  and  C_21 
ROOT
ATOM      1  C   UNL d   1     -59.257 -99.100 -42.784  0.00  0.00     0.019 A 
ATOM      2  C   UNL d   1     -59.950 -98.975 -42.367  0.00  0.00     0.003 A 
ATOM      3  C   UNL d   1     -58.563 -99.283 -42.376  0.00  0.00     0.003 A 
ATOM      4  C   UNL d   1     -59.271 -99.212 -41.138  0.00  0.00     0.085 A 
ATOM      5  C   UNL d   1     -58.570 -99.339 -41.553  0.00  0.00     0.019 A 
ATOM      6  C   UNL d   1     -59.957 -99.031 -41.544  0.00  0.00     0.019 A 
ENDROOT
BRANCH   4   7
ATOM      7  N   UNL d   1     -59.279 -99.268 -40.314  0.00  0.00    -0.206 NA
ATOM      8  C   UNL d   1     -59.346-100.002 -39.951  0.00  0.00     0.304 C 
ATOM      9  O   UNL d   1     -59.353-100.058 -39.124  0.00  0.00    -0.263 OA
BRANCH   8  10
ATOM     10  C   UNL d   1     -59.406-100.685 -40.412  0.00  0.00     0.185 C 
BRANCH  10  11
ATOM     11  O   UNL d   1     -59.445-101.425 -40.050  0.00  0.00    -0.299 OA
BRANCH  11  12
ATOM     12  C   UNL d   1     -58.754-101.788 -39.779  0.00  0.00     0.111 A 
ATOM     13  C   UNL d   1     -58.781-102.288 -39.123  0.00  0.00     0.081 A 
ATOM     14  C   UNL d   1     -58.101-102.649 -38.851  0.00  0.00     0.025 A 
ATOM     15 CL   UNL d   1     -59.509-102.426 -38.734  0.00  0.00    -0.080 Cl
ATOM     16  C   UNL d   1     -57.384-102.512 -39.237  0.00  0.00     0.059 A 
ATOM     17  C   UNL d   1     -57.357-102.012 -39.893  0.00  0.00     0.013 A 
ATOM     18 CL   UNL d   1     -56.689-102.878 -38.963  0.00  0.00    -0.082 Cl
ATOM     19  C   UNL d   1     -58.047-101.649 -40.163  0.00  0.00     0.026 A 
ENDBRANCH  11  12
ENDBRANCH  10  11
ENDBRANCH   8  10
ENDBRANCH   4   7
BRANCH   1  20
ATOM     20  C   UNL d   1     -59.250 -99.045 -43.607  0.00  0.00     0.103 A 
ATOM     21  N   UNL d   1     -58.537 -98.971 -44.009  0.00  0.00    -0.147 NA
ATOM     22  N   UNL d   1     -58.530 -98.915 -44.832  0.00  0.00    -0.130 NA
ATOM     23  C   UNL d   1     -59.236 -98.933 -45.253  0.00  0.00     0.170 A 
ATOM     24  C   UNL d   1     -59.953 -99.007 -44.850  0.00  0.00     0.041 A 
ATOM     25  C   UNL d   1     -59.960 -99.063 -44.027  0.00  0.00     0.024 A 
BRANCH  23  26
ATOM     26  N   UNL d   1     -59.228 -98.877 -46.076  0.00  0.00    -0.284 N 
ATOM     27  C   UNL d   1     -59.931 -98.856 -46.494  0.00  0.00     0.108 A 
ATOM     28  C   UNL d   1     -59.923 -98.800 -47.317  0.00  0.00     0.142 A 
ATOM     29  O   UNL d   1     -59.214 -98.766 -47.722  0.00  0.00    -0.300 OA
ATOM     30  C   UNL d   1     -58.503 -98.787 -47.303  0.00  0.00     0.142 A 
ATOM     31  C   UNL d   1     -58.510 -98.843 -46.480  0.00  0.00     0.108 A 
ENDBRANCH  23  26
ENDBRANCH   1  20
TORSDOF 6
ENDMDL
