MODEL 1
REMARK VINA RESULT:      -5.9      0.000      0.000
REMARK  4 active torsions:
REMARK  status: ('A' for Active; 'I' for Inactive)
REMARK    1  A    between atoms: C_6  and  C_1 
REMARK    2  A    between atoms: C_4  and  C_11 
REMARK    3  A    between atoms: N_8  and  C_6 
REMARK    4  A    between atoms: C_13  and  C_6 
ROOT
ATOM      1  C   UNL d   1     -40.420  14.524  20.353  0.00  0.00     0.067 C 
ENDROOT
BRANCH   1   2
ATOM      2  C   UNL d   1     -40.288  14.568  19.528  0.00  0.00     0.057 A 
ATOM      3  C   UNL d   1     -40.578  15.193  19.101  0.00  0.00     0.214 A 
ATOM      4  C   UNL d   1     -40.456  15.251  18.280  0.00  0.00     0.121 A 
ATOM      5  O   UNL d   1     -41.013  15.792  19.511  0.00  0.00    -0.285 OA
ATOM      6  N   UNL d   1     -40.746  15.876  17.854  0.00  0.00    -0.241 NA
ATOM      7  C   UNL d   1     -40.030  14.657  17.898  0.00  0.00     0.032 A 
ATOM      8  C   UNL d   1     -40.621  15.922  17.055  0.00  0.00     0.099 A 
ATOM      9  C   UNL d   1     -40.194  15.328  16.672  0.00  0.00     0.021 A 
ATOM     10  C   UNL d   1     -39.896  14.691  17.090  0.00  0.00     0.004 A 
ATOM     11  C   UNL d   1     -39.728  14.008  18.338  0.00  0.00     0.059 A 
ATOM     12  C   UNL d   1     -39.862  13.974  19.145  0.00  0.00     0.016 A 
ATOM     13 CL   UNL d   1     -39.299  13.404  17.974  0.00  0.00    -0.082 Cl
ENDBRANCH   1   2
BRANCH   1  14
ATOM     14  N   UNL d   1     -39.884  14.856  20.892  0.00  0.00    -0.301 N 
ATOM     15  C   UNL d   1     -39.991  15.607  21.208  0.00  0.00     0.100 A 
ATOM     16  C   UNL d   1     -39.452  15.922  21.740  0.00  0.00     0.100 A 
ATOM     17  N   UNL d   1     -38.803  15.488  21.960  0.00  0.00    -0.299 N 
ATOM     18  C   UNL d   1     -38.685  14.725  21.646  0.00  0.00     0.100 A 
ATOM     19  C   UNL d   1     -38.273  15.822  22.497  0.00  0.00     0.100 C 
ATOM     20  C   UNL d   1     -39.213  14.417  21.124  0.00  0.00     0.100 A 
ENDBRANCH   1  14
BRANCH   1  21
ATOM     21  C   UNL d   1     -41.100  14.140  20.644  0.00  0.00     0.016 A 
ATOM     22  C   UNL d   1     -41.777  14.577  20.825  0.00  0.00     0.001 A 
ATOM     23  C   UNL d   1     -42.449  14.208  21.111  0.00  0.00     0.004 A 
ATOM     24  C   UNL d   1     -42.459  13.386  21.223  0.00  0.00     0.071 A 
ATOM     25  C   UNL d   1     -41.786  12.952  21.042  0.00  0.00     0.004 A 
ATOM     26  C   UNL d   1     -41.110  13.320  20.755  0.00  0.00     0.001 A 
BRANCH  24  27
ATOM     27  C   UNL d   1     -43.118  13.008  21.505  0.00  0.00     0.419 C 
ATOM     28  F   UNL d   1     -43.815  12.683  21.770  0.00  0.00    -0.166 F 
ATOM     29  F   UNL d   1     -43.088  12.216  21.860  0.00  0.00    -0.166 F 
ATOM     30  F   UNL d   1     -43.792  13.386  21.447  0.00  0.00    -0.166 F 
ENDBRANCH  24  27
ENDBRANCH   1  21
TORSDOF 4
ENDMDL
MODEL 2
REMARK VINA RESULT:      -5.1      0.976      3.247
REMARK  4 active torsions:
REMARK  status: ('A' for Active; 'I' for Inactive)
REMARK    1  A    between atoms: C_6  and  C_1 
REMARK    2  A    between atoms: C_4  and  C_11 
REMARK    3  A    between atoms: N_8  and  C_6 
REMARK    4  A    between atoms: C_13  and  C_6 
ROOT
ATOM      1  C   UNL d   1     -40.551  14.480  20.499  0.00  0.00     0.067 C 
ENDROOT
BRANCH   1   2
ATOM      2  C   UNL d   1     -39.906  14.532  21.029  0.00  0.00     0.057 A 
ATOM      3  C   UNL d   1     -39.836  15.167  21.527  0.00  0.00     0.214 A 
ATOM      4  C   UNL d   1     -39.201  15.233  22.059  0.00  0.00     0.121 A 
ATOM      5  O   UNL d   1     -40.430  15.769  21.494  0.00  0.00    -0.285 OA
ATOM      6  N   UNL d   1     -39.132  15.869  22.557  0.00  0.00    -0.241 NA
ATOM      7  C   UNL d   1     -38.632  14.636  22.076  0.00  0.00     0.032 A 
ATOM      8  C   UNL d   1     -38.508  15.922  23.072  0.00  0.00     0.099 A 
ATOM      9  C   UNL d   1     -37.940  15.325  23.089  0.00  0.00     0.021 A 
ATOM     10  C   UNL d   1     -37.997  14.677  22.592  0.00  0.00     0.004 A 
ATOM     11  C   UNL d   1     -38.701  13.976  21.561  0.00  0.00     0.059 A 
ATOM     12  C   UNL d   1     -39.337  13.934  21.046  0.00  0.00     0.016 A 
ATOM     13 CL   UNL d   1     -38.143  13.368  21.564  0.00  0.00    -0.082 Cl
ENDBRANCH   1   2
BRANCH   1  14
ATOM     14  N   UNL d   1     -40.500  14.784  19.729  0.00  0.00    -0.301 N 
ATOM     15  C   UNL d   1     -40.690  15.564  19.553  0.00  0.00     0.100 A 
ATOM     16  C   UNL d   1     -40.635  15.850  18.786  0.00  0.00     0.100 A 
ATOM     17  N   UNL d   1     -40.390  15.358  18.190  0.00  0.00    -0.299 N 
ATOM     18  C   UNL d   1     -40.195  14.565  18.357  0.00  0.00     0.100 A 
ATOM     19  C   UNL d   1     -40.341  15.664  17.425  0.00  0.00     0.100 C 
ATOM     20  C   UNL d   1     -40.249  14.285  19.109  0.00  0.00     0.100 A 
ENDBRANCH   1  14
BRANCH   1  21
ATOM     21  C   UNL d   1     -41.261  14.118  20.744  0.00  0.00     0.016 A 
ATOM     22  C   UNL d   1     -41.300  13.298  20.829  0.00  0.00     0.001 A 
ATOM     23  C   UNL d   1     -41.992  12.934  21.069  0.00  0.00     0.004 A 
ATOM     24  C   UNL d   1     -42.667  13.387  21.232  0.00  0.00     0.071 A 
ATOM     25  C   UNL d   1     -42.628  14.203  21.147  0.00  0.00     0.004 A 
ATOM     26  C   UNL d   1     -41.934  14.571  20.906  0.00  0.00     0.001 A 
BRANCH  24  27
ATOM     27  C   UNL d   1     -43.359  13.040  21.471  0.00  0.00     0.419 C 
ATOM     28  F   UNL d   1     -44.018  12.635  21.722  0.00  0.00    -0.166 F 
ATOM     29  F   UNL d   1     -44.118  13.463  21.477  0.00  0.00    -0.166 F 
ATOM     30  F   UNL d   1     -43.321  12.300  21.699  0.00  0.00    -0.166 F 
ENDBRANCH  24  27
ENDBRANCH   1  21
TORSDOF 4
ENDMDL
MODEL 3
REMARK VINA RESULT:      -4.8      2.786      4.560
REMARK  4 active torsions:
REMARK  status: ('A' for Active; 'I' for Inactive)
REMARK    1  A    between atoms: C_6  and  C_1 
REMARK    2  A    between atoms: C_4  and  C_11 
REMARK    3  A    between atoms: N_8  and  C_6 
REMARK    4  A    between atoms: C_13  and  C_6 
ROOT
ATOM      1  C   UNL d   1     -38.834  14.103  18.061  0.00  0.00     0.067 C 
ENDROOT
BRANCH   1   2
ATOM      2  C   UNL d   1     -39.116  14.443  18.771  0.00  0.00     0.057 A 
ATOM      3  C   UNL d   1     -39.908  14.425  18.946  0.00  0.00     0.214 A 
ATOM      4  C   UNL d   1     -40.204  14.758  19.648  0.00  0.00     0.121 A 
ATOM      5  O   UNL d   1     -40.432  14.056  18.393  0.00  0.00    -0.285 OA
ATOM      6  N   UNL d   1     -40.995  14.740  19.823  0.00  0.00    -0.241 NA
ATOM      7  C   UNL d   1     -39.676  15.113  20.174  0.00  0.00     0.032 A 
ATOM      8  C   UNL d   1     -41.272  15.068  20.509  0.00  0.00     0.099 A 
ATOM      9  C   UNL d   1     -40.745  15.423  21.035  0.00  0.00     0.021 A 
ATOM     10  C   UNL d   1     -39.943  15.448  20.872  0.00  0.00     0.004 A 
ATOM     11  C   UNL d   1     -38.856  15.133  19.995  0.00  0.00     0.059 A 
ATOM     12  C   UNL d   1     -38.589  14.798  19.297  0.00  0.00     0.016 A 
ATOM     13 CL   UNL d   1     -38.313  15.484  20.509  0.00  0.00    -0.082 Cl
ENDBRANCH   1   2
BRANCH   1  14
ATOM     14  N   UNL d   1     -38.730  14.561  17.377  0.00  0.00    -0.301 N 
ATOM     15  C   UNL d   1     -38.046  14.995  17.242  0.00  0.00     0.100 A 
ATOM     16  C   UNL d   1     -37.957  15.443  16.560  0.00  0.00     0.100 A 
ATOM     17  N   UNL d   1     -38.553  15.460  16.010  0.00  0.00    -0.299 N 
ATOM     18  C   UNL d   1     -39.251  15.023  16.137  0.00  0.00     0.100 A 
ATOM     19  C   UNL d   1     -38.445  15.916  15.331  0.00  0.00     0.100 C 
ATOM     20  C   UNL d   1     -39.337  14.584  16.805  0.00  0.00     0.100 A 
ENDBRANCH   1  14
BRANCH   1  21
ATOM     21  C   UNL d   1     -38.653  13.290  18.034  0.00  0.00     0.016 A 
ATOM     22  C   UNL d   1     -39.015  12.803  17.474  0.00  0.00     0.001 A 
ATOM     23  C   UNL d   1     -38.843  12.003  17.441  0.00  0.00     0.004 A 
ATOM     24  C   UNL d   1     -38.300  11.671  17.973  0.00  0.00     0.071 A 
ATOM     25  C   UNL d   1     -37.940  12.156  18.529  0.00  0.00     0.004 A 
ATOM     26  C   UNL d   1     -38.111  12.958  18.565  0.00  0.00     0.001 A 
BRANCH  24  27
ATOM     27  C   UNL d   1     -38.120  10.881  17.951  0.00  0.00     0.419 C 
ATOM     28  F   UNL d   1     -37.940  10.093  17.862  0.00  0.00    -0.166 F 
ATOM     29  F   UNL d   1     -38.021  10.403  18.669  0.00  0.00    -0.166 F 
ATOM     30  F   UNL d   1     -38.038  10.558  17.250  0.00  0.00    -0.166 F 
ENDBRANCH  24  27
ENDBRANCH   1  21
TORSDOF 4
ENDMDL
MODEL 4
REMARK VINA RESULT:      -4.4      2.267      4.208
REMARK  4 active torsions:
REMARK  status: ('A' for Active; 'I' for Inactive)
REMARK    1  A    between atoms: C_6  and  C_1 
REMARK    2  A    between atoms: C_4  and  C_11 
REMARK    3  A    between atoms: N_8  and  C_6 
REMARK    4  A    between atoms: C_13  and  C_6 
ROOT
ATOM      1  C   UNL d   1     -40.597  14.429  20.453  0.00  0.00     0.067 C 
ENDROOT
BRANCH   1   2
ATOM      2  C   UNL d   1     -39.940  14.497  20.966  0.00  0.00     0.057 A 
ATOM      3  C   UNL d   1     -39.876  15.133  21.465  0.00  0.00     0.214 A 
ATOM      4  C   UNL d   1     -39.229  15.216  21.980  0.00  0.00     0.121 A 
ATOM      5  O   UNL d   1     -40.489  15.717  21.451  0.00  0.00    -0.285 OA
ATOM      6  N   UNL d   1     -39.165  15.852  22.479  0.00  0.00    -0.241 NA
ATOM      7  C   UNL d   1     -38.642  14.636  21.979  0.00  0.00     0.032 A 
ATOM      8  C   UNL d   1     -38.530  15.922  22.977  0.00  0.00     0.099 A 
ATOM      9  C   UNL d   1     -37.943  15.342  22.976  0.00  0.00     0.021 A 
ATOM     10  C   UNL d   1     -37.994  14.695  22.478  0.00  0.00     0.004 A 
ATOM     11  C   UNL d   1     -38.705  13.977  21.463  0.00  0.00     0.059 A 
ATOM     12  C   UNL d   1     -39.352  13.918  20.965  0.00  0.00     0.016 A 
ATOM     13 CL   UNL d   1     -38.128  13.386  21.448  0.00  0.00    -0.082 Cl
ENDBRANCH   1   2
BRANCH   1  14
ATOM     14  N   UNL d   1     -41.311  14.095  20.712  0.00  0.00    -0.301 N 
ATOM     15  C   UNL d   1     -41.976  14.551  20.865  0.00  0.00     0.100 A 
ATOM     16  C   UNL d   1     -42.676  14.205  21.121  0.00  0.00     0.100 A 
ATOM     17  N   UNL d   1     -42.713  13.402  21.225  0.00  0.00    -0.299 N 
ATOM     18  C   UNL d   1     -42.044  12.930  21.072  0.00  0.00     0.100 A 
ATOM     19  C   UNL d   1     -43.425  13.074  21.482  0.00  0.00     0.100 C 
ATOM     20  C   UNL d   1     -41.359  13.268  20.822  0.00  0.00     0.100 A 
ENDBRANCH   1  14
BRANCH   1  21
ATOM     21  C   UNL d   1     -40.539  14.699  19.667  0.00  0.00     0.016 A 
ATOM     22  C   UNL d   1     -40.334  14.176  19.062  0.00  0.00     0.001 A 
ATOM     23  C   UNL d   1     -40.275  14.433  18.288  0.00  0.00     0.004 A 
ATOM     24  C   UNL d   1     -40.421  15.227  18.099  0.00  0.00     0.071 A 
ATOM     25  C   UNL d   1     -40.625  15.747  18.701  0.00  0.00     0.004 A 
ATOM     26  C   UNL d   1     -40.685  15.492  19.479  0.00  0.00     0.001 A 
BRANCH  24  27
ATOM     27  C   UNL d   1     -40.366  15.495  17.337  0.00  0.00     0.419 C 
ATOM     28  F   UNL d   1     -40.378  15.751  16.565  0.00  0.00    -0.166 F 
ATOM     29  F   UNL d   1     -39.624  15.788  16.994  0.00  0.00    -0.166 F 
ATOM     30  F   UNL d   1     -41.016  15.481  16.912  0.00  0.00    -0.166 F 
ENDBRANCH  24  27
ENDBRANCH   1  21
TORSDOF 4
ENDMDL
MODEL 5
REMARK VINA RESULT:      -3.8      2.087      3.185
REMARK  4 active torsions:
REMARK  status: ('A' for Active; 'I' for Inactive)
REMARK    1  A    between atoms: C_6  and  C_1 
REMARK    2  A    between atoms: C_4  and  C_11 
REMARK    3  A    between atoms: N_8  and  C_6 
REMARK    4  A    between atoms: C_13  and  C_6 
ROOT
ATOM      1  C   UNL d   1     -40.623  14.375  20.494  0.00  0.00     0.067 C 
ENDROOT
BRANCH   1   2
ATOM      2  C   UNL d   1     -40.404  14.441  19.690  0.00  0.00     0.057 A 
ATOM      3  C   UNL d   1     -40.614  15.096  19.262  0.00  0.00     0.214 A 
ATOM      4  C   UNL d   1     -40.403  15.177  18.461  0.00  0.00     0.121 A 
ATOM      5  O   UNL d   1     -41.058  15.704  19.650  0.00  0.00    -0.285 OA
ATOM      6  N   UNL d   1     -40.614  15.832  18.033  0.00  0.00    -0.241 NA
ATOM      7  C   UNL d   1     -39.971  14.574  18.100  0.00  0.00     0.032 A 
ATOM      8  C   UNL d   1     -40.403  15.899  17.254  0.00  0.00     0.099 A 
ATOM      9  C   UNL d   1     -39.970  15.297  16.893  0.00  0.00     0.021 A 
ATOM     10  C   UNL d   1     -39.751  14.629  17.313  0.00  0.00     0.004 A 
ATOM     11  C   UNL d   1     -39.751  13.894  18.542  0.00  0.00     0.059 A 
ATOM     12  C   UNL d   1     -39.971  13.838  19.329  0.00  0.00     0.016 A 
ATOM     13 CL   UNL d   1     -39.318  13.280  18.199  0.00  0.00    -0.082 Cl
ENDBRANCH   1   2
BRANCH   1  14
ATOM     14  N   UNL d   1     -41.344  14.030  20.716  0.00  0.00    -0.301 N 
ATOM     15  C   UNL d   1     -42.062  14.416  20.617  0.00  0.00     0.100 A 
ATOM     16  C   UNL d   1     -42.767  14.060  20.842  0.00  0.00     0.100 A 
ATOM     17  N   UNL d   1     -42.758  13.318  21.167  0.00  0.00    -0.299 N 
ATOM     18  C   UNL d   1     -42.035  12.917  21.272  0.00  0.00     0.100 A 
ATOM     19  C   UNL d   1     -43.477  12.978  21.387  0.00  0.00     0.100 C 
ATOM     20  C   UNL d   1     -41.344  13.265  21.052  0.00  0.00     0.100 A 
ENDBRANCH   1  14
BRANCH   1  21
ATOM     21  C   UNL d   1     -40.112  14.660  21.088  0.00  0.00     0.016 A 
ATOM     22  C   UNL d   1     -39.525  14.172  21.399  0.00  0.00     0.001 A 
ATOM     23  C   UNL d   1     -39.019  14.443  21.982  0.00  0.00     0.004 A 
ATOM     24  C   UNL d   1     -39.091  15.218  22.269  0.00  0.00     0.071 A 
ATOM     25  C   UNL d   1     -39.675  15.704  21.959  0.00  0.00     0.004 A 
ATOM     26  C   UNL d   1     -40.184  15.434  21.374  0.00  0.00     0.001 A 
BRANCH  24  27
ATOM     27  C   UNL d   1     -38.596  15.501  22.846  0.00  0.00     0.419 C 
ATOM     28  F   UNL d   1     -38.063  15.812  23.375  0.00  0.00    -0.166 F 
ATOM     29  F   UNL d   1     -38.730  15.353  23.691  0.00  0.00    -0.166 F 
ATOM     30  F   UNL d   1     -37.985  15.917  22.612  0.00  0.00    -0.166 F 
ENDBRANCH  24  27
ENDBRANCH   1  21
TORSDOF 4
ENDMDL
