MODEL 1
REMARK VINA RESULT:      -5.2      0.000      0.000
REMARK  4 active torsions:
REMARK  status: ('A' for Active; 'I' for Inactive)
REMARK    1  A    between atoms: C_3  and  C_2 
REMARK    2  A    between atoms: C_14  and  C_12 
REMARK    3  A    between atoms: C_15  and  C_14 
REMARK    4  A    between atoms: C_16  and  C_15 
ROOT
ATOM      1  N   UNL d   1     -41.509-123.451 -52.186  0.00  0.00    -0.244 NA
ATOM      2  C   UNL d   1     -41.481-122.684 -52.480  0.00  0.00     0.081 A 
ATOM      3  C   UNL d   1     -41.322-122.022 -51.927  0.00  0.00     0.019 A 
ATOM      4  C   UNL d   1     -41.391-123.612 -51.382  0.00  0.00     0.099 A 
ATOM      5  C   UNL d   1     -41.203-122.183 -51.123  0.00  0.00     0.003 A 
ATOM      6  C   UNL d   1     -41.239-123.014 -50.834  0.00  0.00     0.019 A 
ENDROOT
BRANCH   2   7
ATOM      7  C   UNL d   1     -41.599-122.523 -53.284  0.00  0.00     0.018 A 
ATOM      8  C   UNL d   1     -42.130-121.945 -53.540  0.00  0.00     0.002 A 
ATOM      9  C   UNL d   1     -42.243-121.790 -54.313  0.00  0.00     0.007 A 
ATOM     10  C   UNL d   1     -41.841-122.194 -54.923  0.00  0.00     0.035 A 
ATOM     11  C   UNL d   1     -41.265-122.821 -54.663  0.00  0.00     0.007 A 
ATOM     12 BR   UNL d   1     -41.954-122.039 -55.695  0.00  0.00    -0.049 Br
ATOM     13  C   UNL d   1     -41.151-122.976 -53.891  0.00  0.00     0.002 A 
ENDBRANCH   2   7
BRANCH   6  14
ATOM     14  C   UNL d   1     -41.123-123.172 -50.043  0.00  0.00     0.002 C 
BRANCH  14  15
ATOM     15  C   UNL d   1     -41.750-123.271 -49.540  0.00  0.00     0.000 C 
BRANCH  15  16
ATOM     16  C   UNL d   1     -41.638-123.522 -48.773  0.00  0.00     0.000 C 
ATOM     17  C   UNL d   1     -42.243-123.492 -48.252  0.00  0.00     0.000 C 
ENDBRANCH  15  16
ENDBRANCH  14  15
ENDBRANCH   6  14
TORSDOF 4
ENDMDL
MODEL 2
REMARK VINA RESULT:      -4.2      1.989      4.486
REMARK  4 active torsions:
REMARK  status: ('A' for Active; 'I' for Inactive)
REMARK    1  A    between atoms: C_3  and  C_2 
REMARK    2  A    between atoms: C_14  and  C_12 
REMARK    3  A    between atoms: C_15  and  C_14 
REMARK    4  A    between atoms: C_16  and  C_15 
ROOT
ATOM      1  N   UNL d   1     -41.657-123.571 -51.737  0.00  0.00    -0.244 NA
ATOM      2  C   UNL d   1     -41.550-122.956 -51.202  0.00  0.00     0.081 A 
ATOM      3  C   UNL d   1     -41.280-122.177 -51.499  0.00  0.00     0.019 A 
ATOM      4  C   UNL d   1     -41.516-123.471 -52.546  0.00  0.00     0.099 A 
ATOM      5  C   UNL d   1     -41.139-122.077 -52.309  0.00  0.00     0.003 A 
ATOM      6  C   UNL d   1     -41.261-122.752 -52.860  0.00  0.00     0.019 A 
ENDROOT
BRANCH   2   7
ATOM      7  C   UNL d   1     -41.691-123.056 -50.392  0.00  0.00     0.018 A 
ATOM      8  C   UNL d   1     -41.123-123.375 -49.885  0.00  0.00     0.002 A 
ATOM      9  C   UNL d   1     -41.258-123.471 -49.107  0.00  0.00     0.007 A 
ATOM     10  C   UNL d   1     -41.979-123.260 -48.740  0.00  0.00     0.035 A 
ATOM     11  C   UNL d   1     -42.602-122.914 -49.272  0.00  0.00     0.007 A 
ATOM     12 BR   UNL d   1     -42.114-123.356 -47.961  0.00  0.00    -0.049 Br
ATOM     13  C   UNL d   1     -42.467-122.819 -50.051  0.00  0.00     0.002 A 
ENDBRANCH   2   7
BRANCH   6  14
ATOM     14  C   UNL d   1     -41.122-122.654 -53.657  0.00  0.00     0.002 C 
BRANCH  14  15
ATOM     15  C   UNL d   1     -41.717-122.432 -54.161  0.00  0.00     0.000 C 
BRANCH  15  16
ATOM     16  C   UNL d   1     -41.571-122.299 -54.952  0.00  0.00     0.000 C 
ATOM     17  C   UNL d   1     -42.162-122.053 -55.430  0.00  0.00     0.000 C 
ENDBRANCH  15  16
ENDBRANCH  14  15
ENDBRANCH   6  14
TORSDOF 4
ENDMDL
MODEL 3
REMARK VINA RESULT:      -3.9      0.999      1.759
REMARK  4 active torsions:
REMARK  status: ('A' for Active; 'I' for Inactive)
REMARK    1  A    between atoms: C_3  and  C_2 
REMARK    2  A    between atoms: C_14  and  C_12 
REMARK    3  A    between atoms: C_15  and  C_14 
REMARK    4  A    between atoms: C_16  and  C_15 
ROOT
ATOM      1  N   UNL d   1     -42.222-122.759 -50.766  0.00  0.00    -0.244 NA
ATOM      2  C   UNL d   1     -41.630-123.171 -51.160  0.00  0.00     0.081 A 
ATOM      3  C   UNL d   1     -41.123-123.724 -50.705  0.00  0.00     0.019 A 
ATOM      4  C   UNL d   1     -42.349-122.853 -49.953  0.00  0.00     0.099 A 
ATOM      5  C   UNL d   1     -41.250-123.817 -49.893  0.00  0.00     0.003 A 
ATOM      6  C   UNL d   1     -41.890-123.363 -49.495  0.00  0.00     0.019 A 
ENDROOT
BRANCH   2   7
ATOM      7  C   UNL d   1     -41.504-123.078 -51.973  0.00  0.00     0.018 A 
ATOM      8  C   UNL d   1     -41.607-123.699 -52.506  0.00  0.00     0.002 A 
ATOM      9  C   UNL d   1     -41.485-123.609 -53.287  0.00  0.00     0.007 A 
ATOM     10  C   UNL d   1     -41.245-122.887 -53.631  0.00  0.00     0.035 A 
ATOM     11  C   UNL d   1     -41.128-122.206 -53.070  0.00  0.00     0.007 A 
ATOM     12 BR   UNL d   1     -41.123-122.797 -54.412  0.00  0.00    -0.049 Br
ATOM     13  C   UNL d   1     -41.250-122.296 -52.289  0.00  0.00     0.002 A 
ENDBRANCH   2   7
BRANCH   6  14
ATOM     14  C   UNL d   1     -42.015-123.456 -48.695  0.00  0.00     0.002 C 
BRANCH  14  15
ATOM     15  C   UNL d   1     -41.474-123.190 -48.154  0.00  0.00     0.000 C 
BRANCH  15  16
ATOM     16  C   UNL d   1     -41.703-122.972 -47.403  0.00  0.00     0.000 C 
ATOM     17  C   UNL d   1     -41.191-123.049 -46.793  0.00  0.00     0.000 C 
ENDBRANCH  15  16
ENDBRANCH  14  15
ENDBRANCH   6  14
TORSDOF 4
ENDMDL
MODEL 4
REMARK VINA RESULT:      -3.3      1.827      4.392
REMARK  4 active torsions:
REMARK  status: ('A' for Active; 'I' for Inactive)
REMARK    1  A    between atoms: C_3  and  C_2 
REMARK    2  A    between atoms: C_14  and  C_12 
REMARK    3  A    between atoms: C_15  and  C_14 
REMARK    4  A    between atoms: C_16  and  C_15 
ROOT
ATOM      1  N   UNL d   1     -41.835-123.108 -52.725  0.00  0.00    -0.244 NA
ATOM      2  C   UNL d   1     -41.531-122.632 -52.128  0.00  0.00     0.081 A 
ATOM      3  C   UNL d   1     -41.161-121.866 -52.342  0.00  0.00     0.019 A 
ATOM      4  C   UNL d   1     -41.799-122.882 -53.521  0.00  0.00     0.099 A 
ATOM      5  C   UNL d   1     -41.125-121.640 -53.138  0.00  0.00     0.003 A 
ATOM      6  C   UNL d   1     -41.458-122.169 -53.758  0.00  0.00     0.019 A 
ENDROOT
BRANCH   2   7
ATOM      7  C   UNL d   1     -41.567-122.858 -51.332  0.00  0.00     0.018 A 
ATOM      8  C   UNL d   1     -41.966-122.407 -50.767  0.00  0.00     0.002 A 
ATOM      9  C   UNL d   1     -42.001-122.625 -50.002  0.00  0.00     0.007 A 
ATOM     10  C   UNL d   1     -41.640-123.319 -49.709  0.00  0.00     0.035 A 
ATOM     11  C   UNL d   1     -41.205-123.816 -50.305  0.00  0.00     0.007 A 
ATOM     12 BR   UNL d   1     -41.674-123.536 -48.944  0.00  0.00    -0.049 Br
ATOM     13  C   UNL d   1     -41.171-123.598 -51.070  0.00  0.00     0.002 A 
ENDBRANCH   2   7
BRANCH   6  14
ATOM     14  C   UNL d   1     -41.423-121.946 -54.541  0.00  0.00     0.002 C 
BRANCH  14  15
ATOM     15  C   UNL d   1     -41.897-122.296 -55.097  0.00  0.00     0.000 C 
BRANCH  15  16
ATOM     16  C   UNL d   1     -41.935-122.009 -55.858  0.00  0.00     0.000 C 
ATOM     17  C   UNL d   1     -42.645-121.867 -56.195  0.00  0.00     0.000 C 
ENDBRANCH  15  16
ENDBRANCH  14  15
ENDBRANCH   6  14
TORSDOF 4
ENDMDL
