MODEL 1
REMARK VINA RESULT:     110.7      0.000      0.000
REMARK  6 active torsions:
REMARK  status: ('A' for Active; 'I' for Inactive)
REMARK    1  A    between atoms: C_11  and  C_3 
REMARK    2  A    between atoms: C_12  and  C_4 
REMARK    3  A    between atoms: C_13  and  C_7 
REMARK    4  A    between atoms: N_15  and  C_11 
REMARK    5  A    between atoms: N_14  and  C_12 
REMARK    6  A    between atoms: O_24  and  C_21 
ROOT
ATOM      1  C   UNL d   1     -49.401  28.176  34.685  0.00  0.00     0.101 A 
ATOM      2  C   UNL d   1     -49.382  27.757  35.397  0.00  0.00     0.111 A 
ATOM      3  C   UNL d   1     -49.799  27.048  35.471  0.00  0.00     0.080 A 
ATOM      4  C   UNL d   1     -50.248  27.185  34.124  0.00  0.00     0.096 A 
ATOM      5  C   UNL d   1     -48.980  28.889  34.618  0.00  0.00     0.203 A 
ATOM      6  C   UNL d   1     -49.837  27.885  34.050  0.00  0.00     0.205 A 
ATOM      7  C   UNL d   1     -48.544  29.178  35.257  0.00  0.00     0.064 A 
ATOM      8  C   UNL d   1     -50.229  26.766  34.836  0.00  0.00     0.203 A 
ATOM      9  O   UNL d   1     -48.946  28.040  36.046  0.00  0.00    -0.305 OA
ATOM     10  C   UNL d   1     -48.525  28.754  35.976  0.00  0.00     0.126 A 
ATOM     11  O   UNL d   1     -48.998  29.304  33.913  0.00  0.00    -0.286 OA
ATOM     12  O   UNL d   1     -49.856  28.304  33.338  0.00  0.00    -0.286 OA
ATOM     13  O   UNL d   1     -50.651  26.051  34.907  0.00  0.00    -0.286 OA
ENDROOT
BRANCH   7  14
ATOM     14  C   UNL d   1     -48.128  29.886  35.182  0.00  0.00     0.005 A 
ATOM     15  C   UNL d   1     -48.450  30.500  34.729  0.00  0.00     0.002 A 
ATOM     16  C   UNL d   1     -48.035  31.209  34.654  0.00  0.00     0.024 A 
ATOM     17  C   UNL d   1     -47.303  31.306  35.028  0.00  0.00     0.094 A 
ATOM     18  C   UNL d   1     -46.989  30.691  35.478  0.00  0.00     0.024 A 
ATOM     19  C   UNL d   1     -47.398  29.979  35.558  0.00  0.00     0.002 A 
BRANCH  17  20
ATOM     20  O   UNL d   1     -46.888  32.015  34.953  0.00  0.00    -0.328 OA
ATOM     21  C   UNL d   1     -47.132  32.575  34.396  0.00  0.00     0.181 C 
ENDBRANCH  17  20
ENDBRANCH   7  14
BRANCH   3  22
ATOM     22  C   UNL d   1     -49.774  26.635  36.186  0.00  0.00     0.085 C 
BRANCH  22  23
ATOM     23  N   UNL d   1     -50.357  26.787  36.762  0.00  0.00    -0.302 N 
ATOM     24  C   UNL d   1     -50.191  27.301  37.388  0.00  0.00     0.080 A 
ATOM     25  C   UNL d   1     -50.767  27.448  37.955  0.00  0.00     0.019 A 
ATOM     26  C   UNL d   1     -51.511  27.082  37.899  0.00  0.00     0.003 A 
ATOM     27  C   UNL d   1     -51.672  26.572  37.276  0.00  0.00     0.019 A 
ATOM     28  C   UNL d   1     -51.098  26.419  36.703  0.00  0.00     0.080 A 
ENDBRANCH  22  23
ENDBRANCH   3  22
BRANCH   4  29
ATOM     29  C   UNL d   1     -50.683  26.896  33.485  0.00  0.00     0.087 C 
BRANCH  29  30
ATOM     30  N   UNL d   1     -50.848  26.089  33.427  0.00  0.00    -0.302 N 
ATOM     31  C   UNL d   1     -50.231  25.544  33.364  0.00  0.00     0.080 A 
ATOM     32  C   UNL d   1     -50.395  24.737  33.306  0.00  0.00     0.019 A 
ATOM     33  C   UNL d   1     -51.181  24.473  33.310  0.00  0.00     0.003 A 
ATOM     34  C   UNL d   1     -51.798  25.018  33.373  0.00  0.00     0.019 A 
ATOM     35  C   UNL d   1     -51.633  25.825  33.431  0.00  0.00     0.080 A 
ENDBRANCH  29  30
ENDBRANCH   4  29
TORSDOF 6
ENDMDL
MODEL 2
REMARK VINA RESULT:     111.4      2.054      5.328
REMARK  6 active torsions:
REMARK  status: ('A' for Active; 'I' for Inactive)
REMARK    1  A    between atoms: C_11  and  C_3 
REMARK    2  A    between atoms: C_12  and  C_4 
REMARK    3  A    between atoms: C_13  and  C_7 
REMARK    4  A    between atoms: N_15  and  C_11 
REMARK    5  A    between atoms: N_14  and  C_12 
REMARK    6  A    between atoms: O_24  and  C_21 
ROOT
ATOM      1  C   UNL d   1     -49.161  29.242  33.985  0.00  0.00     0.101 A 
ATOM      2  C   UNL d   1     -48.474  29.083  34.415  0.00  0.00     0.111 A 
ATOM      3  C   UNL d   1     -47.948  29.693  34.596  0.00  0.00     0.080 A 
ATOM      4  C   UNL d   1     -48.800  30.613  33.915  0.00  0.00     0.096 A 
ATOM      5  C   UNL d   1     -49.686  28.623  33.806  0.00  0.00     0.203 A 
ATOM      6  C   UNL d   1     -49.320  30.011  33.736  0.00  0.00     0.205 A 
ATOM      7  C   UNL d   1     -49.523  27.853  34.057  0.00  0.00     0.064 A 
ATOM      8  C   UNL d   1     -48.113  30.453  34.346  0.00  0.00     0.203 A 
ATOM      9  O   UNL d   1     -48.301  28.311  34.672  0.00  0.00    -0.305 OA
ATOM     10  C   UNL d   1     -48.829  27.692  34.492  0.00  0.00     0.126 A 
ATOM     11  O   UNL d   1     -50.366  28.780  33.380  0.00  0.00    -0.286 OA
ATOM     12  O   UNL d   1     -50.007  30.170  33.306  0.00  0.00    -0.286 OA
ATOM     13  O   UNL d   1     -47.585  31.072  34.526  0.00  0.00    -0.286 OA
ENDROOT
BRANCH   7  14
ATOM     14  C   UNL d   1     -50.049  27.243  33.876  0.00  0.00     0.005 A 
ATOM     15  C   UNL d   1     -50.850  27.420  33.762  0.00  0.00     0.002 A 
ATOM     16  C   UNL d   1     -51.376  26.811  33.581  0.00  0.00     0.024 A 
ATOM     17  C   UNL d   1     -51.107  26.032  33.514  0.00  0.00     0.094 A 
ATOM     18  C   UNL d   1     -50.308  25.864  33.629  0.00  0.00     0.024 A 
ATOM     19  C   UNL d   1     -49.776  26.466  33.810  0.00  0.00     0.002 A 
BRANCH  17  20
ATOM     20  O   UNL d   1     -51.633  25.423  33.333  0.00  0.00    -0.328 OA
ATOM     21  C   UNL d   1     -51.481  24.656  33.605  0.00  0.00     0.181 C 
ENDBRANCH  17  20
ENDBRANCH   7  14
BRANCH   3  22
ATOM     22  C   UNL d   1     -47.264  29.525  35.027  0.00  0.00     0.085 C 
BRANCH  22  23
ATOM     23  N   UNL d   1     -47.232  29.729  35.834  0.00  0.00    -0.302 N 
ATOM     24  C   UNL d   1     -46.776  30.374  36.078  0.00  0.00     0.080 A 
ATOM     25  C   UNL d   1     -46.747  30.572  36.874  0.00  0.00     0.019 A 
ATOM     26  C   UNL d   1     -47.172  30.127  37.431  0.00  0.00     0.003 A 
ATOM     27  C   UNL d   1     -47.624  29.486  37.186  0.00  0.00     0.019 A 
ATOM     28  C   UNL d   1     -47.658  29.281  36.387  0.00  0.00     0.080 A 
ENDBRANCH  22  23
ENDBRANCH   3  22
BRANCH   4  29
ATOM     29  C   UNL d   1     -48.963  31.382  33.665  0.00  0.00     0.087 C 
BRANCH  29  30
ATOM     30  N   UNL d   1     -48.437  31.995  33.840  0.00  0.00    -0.302 N 
ATOM     31  C   UNL d   1     -47.840  32.193  33.306  0.00  0.00     0.080 A 
ATOM     32  C   UNL d   1     -47.315  32.806  33.481  0.00  0.00     0.019 A 
ATOM     33  C   UNL d   1     -47.386  33.222  34.194  0.00  0.00     0.003 A 
ATOM     34  C   UNL d   1     -47.983  33.023  34.728  0.00  0.00     0.019 A 
ATOM     35  C   UNL d   1     -48.509  32.410  34.553  0.00  0.00     0.080 A 
ENDBRANCH  29  30
ENDBRANCH   4  29
TORSDOF 6
ENDMDL
MODEL 3
REMARK VINA RESULT:     112.7      1.201      3.369
REMARK  6 active torsions:
REMARK  status: ('A' for Active; 'I' for Inactive)
REMARK    1  A    between atoms: C_11  and  C_3 
REMARK    2  A    between atoms: C_12  and  C_4 
REMARK    3  A    between atoms: C_13  and  C_7 
REMARK    4  A    between atoms: N_15  and  C_11 
REMARK    5  A    between atoms: N_14  and  C_12 
REMARK    6  A    between atoms: O_24  and  C_21 
ROOT
ATOM      1  C   UNL d   1     -50.461  26.988  34.982  0.00  0.00     0.101 A 
ATOM      2  C   UNL d   1     -50.456  26.592  34.257  0.00  0.00     0.111 A 
ATOM      3  C   UNL d   1     -51.060  26.060  34.072  0.00  0.00     0.080 A 
ATOM      4  C   UNL d   1     -51.664  26.324  35.337  0.00  0.00     0.096 A 
ATOM      5  C   UNL d   1     -49.850  27.522  35.162  0.00  0.00     0.203 A 
ATOM      6  C   UNL d   1     -51.069  26.850  35.521  0.00  0.00     0.205 A 
ATOM      7  C   UNL d   1     -49.243  27.658  34.620  0.00  0.00     0.064 A 
ATOM      8  C   UNL d   1     -51.660  25.929  34.612  0.00  0.00     0.203 A 
ATOM      9  O   UNL d   1     -49.849  26.722  33.705  0.00  0.00    -0.305 OA
ATOM     10  C   UNL d   1     -49.238  27.258  33.887  0.00  0.00     0.126 A 
ATOM     11  O   UNL d   1     -49.855  27.914  35.880  0.00  0.00    -0.286 OA
ATOM     12  O   UNL d   1     -51.073  27.246  36.246  0.00  0.00    -0.286 OA
ATOM     13  O   UNL d   1     -52.270  25.393  34.429  0.00  0.00    -0.286 OA
ENDROOT
BRANCH   7  14
ATOM     14  C   UNL d   1     -48.639  28.190  34.805  0.00  0.00     0.005 A 
ATOM     15  C   UNL d   1     -48.768  29.002  34.699  0.00  0.00     0.002 A 
ATOM     16  C   UNL d   1     -48.166  29.534  34.883  0.00  0.00     0.024 A 
ATOM     17  C   UNL d   1     -47.441  29.262  35.172  0.00  0.00     0.094 A 
ATOM     18  C   UNL d   1     -47.320  28.452  35.276  0.00  0.00     0.024 A 
ATOM     19  C   UNL d   1     -47.917  27.913  35.094  0.00  0.00     0.002 A 
BRANCH  17  20
ATOM     20  O   UNL d   1     -46.838  29.794  35.357  0.00  0.00    -0.328 OA
ATOM     21  C   UNL d   1     -46.963  30.366  35.942  0.00  0.00     0.181 C 
ENDBRANCH  17  20
ENDBRANCH   7  14
BRANCH   3  22
ATOM     22  C   UNL d   1     -51.047  25.669  33.345  0.00  0.00     0.085 C 
BRANCH  22  23
ATOM     23  N   UNL d   1     -51.017  24.837  33.332  0.00  0.00    -0.302 N 
ATOM     24  C   UNL d   1     -51.719  24.400  33.323  0.00  0.00     0.080 A 
ATOM     25  C   UNL d   1     -51.686  23.580  33.310  0.00  0.00     0.019 A 
ATOM     26  C   UNL d   1     -50.952  23.191  33.306  0.00  0.00     0.003 A 
ATOM     27  C   UNL d   1     -50.256  23.628  33.315  0.00  0.00     0.019 A 
ATOM     28  C   UNL d   1     -50.282  24.453  33.328  0.00  0.00     0.080 A 
ENDBRANCH  22  23
ENDBRANCH   3  22
BRANCH   4  29
ATOM     29  C   UNL d   1     -52.272  26.189  35.878  0.00  0.00     0.087 C 
BRANCH  29  30
ATOM     30  N   UNL d   1     -52.096  26.057  36.675  0.00  0.00    -0.302 N 
ATOM     31  C   UNL d   1     -52.461  25.440  37.083  0.00  0.00     0.080 A 
ATOM     32  C   UNL d   1     -52.285  25.309  37.879  0.00  0.00     0.019 A 
ATOM     33  C   UNL d   1     -51.740  25.797  38.269  0.00  0.00     0.003 A 
ATOM     34  C   UNL d   1     -51.374  26.414  37.860  0.00  0.00     0.019 A 
ATOM     35  C   UNL d   1     -51.551  26.545  37.064  0.00  0.00     0.080 A 
ENDBRANCH  29  30
ENDBRANCH   4  29
TORSDOF 6
ENDMDL
