MODEL 1
REMARK VINA RESULT:      31.7      0.000      0.000
REMARK  4 active torsions:
REMARK  status: ('A' for Active; 'I' for Inactive)
REMARK    1  A    between atoms: C_2  and  S_1 
REMARK    2  A    between atoms: N_3  and  S_1 
REMARK    3  A    between atoms: C_4  and  C_6 
REMARK       I    between atoms: N_7  and  C_4 
REMARK    4  A    between atoms: C_14  and  N_7 
ROOT
ATOM      1  C   UNL d   1      45.710 -14.068  43.901  0.00  0.00     0.104 A 
ATOM      2  C   UNL d   1      45.651 -14.881  43.770  0.00  0.00     0.018 A 
ATOM      3  C   UNL d   1      46.094 -15.407  44.234  0.00  0.00     0.059 A 
ATOM      4  C   UNL d   1      46.204 -13.784  44.487  0.00  0.00     0.012 A 
ATOM      5  C   UNL d   1      46.594 -15.117  44.826  0.00  0.00     0.005 A 
ATOM      6  C   UNL d   1      46.647 -14.309  44.950  0.00  0.00     0.001 A 
ATOM      7  C   UNL d   1      46.263 -12.971  44.618  0.00  0.00     0.001 C 
ENDROOT
BRANCH   3   8
ATOM      8  C   UNL d   1      46.039 -16.225  44.106  0.00  0.00     0.279 C 
ATOM      9  N   UNL d   1      46.192 -16.538  43.361  0.00  0.00    -0.208 NA
ATOM     10  O   UNL d   1      45.831 -16.726  44.728  0.00  0.00    -0.265 OA
BRANCH   9  11
ATOM     11  C   UNL d   1      46.138 -17.350  43.234  0.00  0.00     0.087 A 
ATOM     12  C   UNL d   1      46.171 -17.861  43.870  0.00  0.00     0.045 A 
ATOM     13  C   UNL d   1      46.118 -18.669  43.751  0.00  0.00     0.121 A 
ATOM     14  O   UNL d   1      46.133 -19.317  44.271  0.00  0.00    -0.299 OA
ATOM     15  C   UNL d   1      46.030 -18.970  42.983  0.00  0.00     0.119 A 
ATOM     16  C   UNL d   1      46.055 -20.013  43.833  0.00  0.00     0.304 A 
ATOM     17  O   UNL d   1      45.991 -19.798  43.026  0.00  0.00    -0.300 OA
ATOM     18  C   UNL d   1      45.997 -18.448  42.339  0.00  0.00     0.028 A 
ATOM     19  C   UNL d   1      46.050 -17.640  42.464  0.00  0.00     0.021 A 
ENDBRANCH   9  11
ENDBRANCH   3   8
BRANCH   1  20
ATOM     20  S   UNL d   1      45.272 -13.548  43.443  0.00  0.00     0.271 S 
ATOM     21  O   UNL d   1      45.924 -13.024  43.414  0.00  0.00    -0.200 OA
ATOM     22  O   UNL d   1      44.535 -14.141  43.475  0.00  0.00    -0.200 OA
BRANCH  20  23
ATOM     23  N   UNL d   1      44.787 -13.057  42.981  0.00  0.00    -0.229 N 
ATOM     24  C   UNL d   1      44.997 -12.886  42.201  0.00  0.00     0.092 A 
ATOM     25  C   UNL d   1      44.523 -12.403  41.742  0.00  0.00     0.020 A 
ATOM     26  C   UNL d   1      43.833 -12.082  42.053  0.00  0.00     0.003 A 
ATOM     27  C   UNL d   1      43.623 -12.252  42.833  0.00  0.00     0.020 A 
ATOM     28  C   UNL d   1      44.098 -12.738  43.298  0.00  0.00     0.092 A 
ENDBRANCH  20  23
ENDBRANCH   1  20
TORSDOF 4
ENDMDL
