MODEL 1
REMARK VINA RESULT:      73.6      0.000      0.000
REMARK  7 active torsions:
REMARK  status: ('A' for Active; 'I' for Inactive)
REMARK       I    between atoms: C_5  and  N_1 
REMARK    1  A    between atoms: C_11  and  C_3 
REMARK    2  A    between atoms: C_12  and  C_5 
REMARK    3  A    between atoms: N_7  and  C_12 
REMARK    4  A    between atoms: C_13  and  C_8 
REMARK    5  A    between atoms: C_29  and  N_10 
REMARK    6  A    between atoms: O_28  and  C_16 
REMARK    7  A    between atoms: O_30  and  C_23 
ROOT
ATOM      1  N   UNL d   1      14.188  15.091  -3.725  0.00  0.00    -0.193 N 
ATOM      2  N   UNL d   1      13.877  14.457  -4.135  0.00  0.00    -0.162 NA
ATOM      3  C   UNL d   1      13.752  13.835  -3.611  0.00  0.00     0.109 A 
ATOM      4  C   UNL d   1      14.395  15.826  -4.038  0.00  0.00     0.298 C 
ATOM      5  C   UNL d   1      14.262  14.874  -2.933  0.00  0.00     0.088 A 
ATOM      6  C   UNL d   1      13.990  14.094  -2.866  0.00  0.00     0.041 A 
ATOM      7  O   UNL d   1      14.701  16.403  -3.544  0.00  0.00    -0.264 OA
ENDROOT
BRANCH   4   8
ATOM      8  C   UNL d   1      14.294  15.970  -4.831  0.00  0.00     0.146 C 
BRANCH   8   9
ATOM      9  N   UNL d   1      14.317  16.742  -5.111  0.00  0.00    -0.262 N 
ATOM     10  C   UNL d   1      13.724  17.019  -5.604  0.00  0.00     0.322 A 
ATOM     11  C   UNL d   1      13.747  17.794  -5.885  0.00  0.00     0.322 A 
ATOM     12  O   UNL d   1      13.101  16.520  -5.818  0.00  0.00    -0.261 OA
ATOM     13  O   UNL d   1      13.147  18.071  -6.382  0.00  0.00    -0.261 OA
ATOM     14  N   UNL d   1      14.363  18.292  -5.675  0.00  0.00    -0.267 N 
ATOM     15  C   UNL d   1      14.960  18.015  -5.179  0.00  0.00     0.102 A 
ATOM     16  C   UNL d   1      14.937  17.240  -4.898  0.00  0.00     0.102 A 
BRANCH  14  17
ATOM     17  C   UNL d   1      14.385  19.067  -5.956  0.00  0.00     0.083 C 
ATOM     18  C   UNL d   1      14.699  19.668  -5.483  0.00  0.00     0.021 C 
ENDBRANCH  14  17
ENDBRANCH   8   9
ENDBRANCH   4   8
BRANCH   5  19
ATOM     19  C   UNL d   1      14.547  15.333  -2.323  0.00  0.00     0.020 A 
ATOM     20  C   UNL d   1      14.668  15.002  -1.583  0.00  0.00     0.028 A 
ATOM     21  C   UNL d   1      14.959  15.476  -0.967  0.00  0.00     0.116 A 
ATOM     22  C   UNL d   1      15.123  16.266  -1.099  0.00  0.00     0.116 A 
ATOM     23  C   UNL d   1      14.999  16.594  -1.846  0.00  0.00     0.026 A 
ATOM     24  C   UNL d   1      14.709  16.121  -2.459  0.00  0.00     0.004 A 
BRANCH  21  25
ATOM     25  O   UNL d   1      15.079  15.144  -0.230  0.00  0.00    -0.326 OA
ATOM     26  C   UNL d   1      15.337  14.373  -0.156  0.00  0.00     0.181 C 
ENDBRANCH  21  25
BRANCH  22  27
ATOM     27  O   UNL d   1      15.407  16.728  -0.495  0.00  0.00    -0.326 OA
ATOM     28  C   UNL d   1      16.151  17.062  -0.549  0.00  0.00     0.181 C 
ENDBRANCH  22  27
ENDBRANCH   5  19
BRANCH   3  29
ATOM     29  C   UNL d   1      13.446  13.094  -3.798  0.00  0.00     0.049 A 
ATOM     30  S   UNL d   1      13.004  12.904  -4.453  0.00  0.00    -0.085 SA
ATOM     31  C   UNL d   1      12.810  12.105  -4.426  0.00  0.00     0.035 A 
ATOM     32  C   UNL d   1      13.145  11.798  -3.732  0.00  0.00     0.007 A 
ATOM     33  C   UNL d   1      13.542  12.411  -3.338  0.00  0.00     0.009 A 
ENDBRANCH   3  29
TORSDOF 7
ENDMDL
