MODEL 1
REMARK VINA RESULT:      44.7      0.000      0.000
REMARK  6 active torsions:
REMARK  status: ('A' for Active; 'I' for Inactive)
REMARK    1  A    between atoms: C_3  and  N_1 
REMARK       I    between atoms: C_4  and  N_1 
REMARK    2  A    between atoms: C_6  and  N_1 
REMARK    3  A    between atoms: N_2  and  C_3 
REMARK    4  A    between atoms: C_7  and  C_4 
REMARK    5  A    between atoms: O_14  and  C_16 
REMARK    6  A    between atoms: C_24  and  O_14 
ROOT
ATOM      1  N   UNL d   1      14.506  14.188  -2.163  0.00  0.00    -0.258 N 
ATOM      2  C   UNL d   1      14.029  14.356  -2.819  0.00  0.00     0.266 C 
ATOM      3  O   UNL d   1      13.808  15.078  -2.990  0.00  0.00    -0.267 OA
ENDROOT
BRANCH   1   4
ATOM      4  C   UNL d   1      14.733  13.410  -1.995  0.00  0.00     0.171 C 
BRANCH   4   5
ATOM      5  N   UNL d   1      14.578  12.938  -1.336  0.00  0.00    -0.257 N 
ATOM      6  C   UNL d   1      14.989  12.265  -1.098  0.00  0.00     0.266 A 
ATOM      7  O   UNL d   1      15.646  11.934  -1.488  0.00  0.00    -0.267 OA
ATOM      8  C   UNL d   1      14.637  11.970  -0.402  0.00  0.00     0.063 A 
ATOM      9  C   UNL d   1      14.004  12.466  -0.210  0.00  0.00     0.024 A 
ATOM     10  C   UNL d   1      13.960  13.065  -0.778  0.00  0.00     0.085 A 
ENDBRANCH   4   5
ENDBRANCH   1   4
BRANCH   1  11
ATOM     11  C   UNL d   1      14.761  14.803  -1.667  0.00  0.00     0.068 A 
ATOM     12  C   UNL d   1      14.642  15.594  -1.892  0.00  0.00     0.018 A 
ATOM     13  C   UNL d   1      14.900  16.189  -1.391  0.00  0.00     0.002 A 
ATOM     14  C   UNL d   1      15.265  16.017  -0.685  0.00  0.00     0.000 A 
ATOM     15  C   UNL d   1      15.382  15.238  -0.463  0.00  0.00     0.002 A 
ATOM     16  C   UNL d   1      15.521  16.624  -0.187  0.00  0.00     0.000 C 
ATOM     17  C   UNL d   1      15.134  14.627  -0.948  0.00  0.00     0.018 A 
ENDBRANCH   1  11
BRANCH   2  18
ATOM     18  C   UNL d   1      13.783  13.737  -3.302  0.00  0.00     0.057 A 
ATOM     19  C   UNL d   1      13.898  12.957  -3.066  0.00  0.00     0.007 A 
ATOM     20  C   UNL d   1      13.657  12.337  -3.541  0.00  0.00     0.025 A 
ATOM     21  C   UNL d   1      13.293  12.491  -4.267  0.00  0.00     0.100 A 
ATOM     22  C   UNL d   1      13.176  13.287  -4.508  0.00  0.00     0.025 A 
ATOM     23  C   UNL d   1      13.421  13.897  -4.026  0.00  0.00     0.007 A 
BRANCH  21  24
ATOM     24  O   UNL d   1      13.054  11.881  -4.737  0.00  0.00    -0.307 OA
BRANCH  24  25
ATOM     25  C   UNL d   1      13.319  11.824  -5.518  0.00  0.00     0.100 C 
ATOM     26  C   UNL d   1      12.771  11.811  -6.132  0.00  0.00     0.027 C 
ATOM     27  C   UNL d   1      14.126  11.779  -5.684  0.00  0.00     0.027 C 
ENDBRANCH  24  25
ENDBRANCH  21  24
ENDBRANCH   2  18
TORSDOF 6
ENDMDL
