MODEL 1
REMARK VINA RESULT:      -8.4      0.000      0.000
REMARK  2 active torsions:
REMARK  status: ('A' for Active; 'I' for Inactive)
REMARK    1  A    between atoms: N_10  and  C_3 
REMARK    2  A    between atoms: C_11  and  C_5 
ROOT
ATOM      1  N   UNL d   1      52.974  33.780  53.878  0.00  0.00    -0.196 N 
ATOM      2  C   UNL d   1      52.324  33.676  53.372  0.00  0.00     0.167 A 
ATOM      3  C   UNL d   1      53.474  33.144  54.022  0.00  0.00     0.152 A 
ATOM      4  N   UNL d   1      52.601  35.125  54.070  0.00  0.00    -0.163 NA
ATOM      5  C   UNL d   1      51.820  34.289  53.217  0.00  0.00     0.055 A 
ATOM      6  N   UNL d   1      52.190  32.938  53.021  0.00  0.00    -0.227 NA
ATOM      7  C   UNL d   1      53.343  32.416  53.678  0.00  0.00     0.052 A 
ATOM      8  C   UNL d   1      51.956  35.022  53.566  0.00  0.00     0.104 A 
ATOM      9  C   UNL d   1      52.697  32.312  53.174  0.00  0.00     0.086 A 
ATOM     10  C   UNL d   1      53.859  31.788  53.836  0.00  0.00     0.004 A 
ATOM     11  C   UNL d   1      51.461  35.641  53.420  0.00  0.00     0.023 C 
ATOM     12  C   UNL d   1      52.561  31.579  52.825  0.00  0.00     0.019 A 
ATOM     13  C   UNL d   1      53.718  31.045  53.479  0.00  0.00     0.000 A 
ATOM     14  C   UNL d   1      53.072  30.942  52.976  0.00  0.00     0.002 A 
ENDROOT
BRANCH   3  15
ATOM     15  N   UNL d   1      54.134  33.247  54.536  0.00  0.00    -0.285 N 
ATOM     16  C   UNL d   1      54.057  33.098  55.368  0.00  0.00     0.108 A 
ATOM     17  C   UNL d   1      54.716  33.200  55.875  0.00  0.00     0.142 A 
ATOM     18  O   UNL d   1      55.469  33.455  55.563  0.00  0.00    -0.300 OA
ATOM     19  C   UNL d   1      55.534  33.600  54.732  0.00  0.00     0.142 A 
ATOM     20  C   UNL d   1      54.875  33.497  54.225  0.00  0.00     0.108 A 
ENDBRANCH   3  15
BRANCH   5  21
ATOM     21  C   UNL d   1      51.175  34.185  52.713  0.00  0.00     0.004 A 
ATOM     22  C   UNL d   1      50.447  34.000  53.029  0.00  0.00     0.000 A 
ATOM     23  C   UNL d   1      49.802  33.896  52.526  0.00  0.00     0.000 A 
ATOM     24  C   UNL d   1      49.894  33.979  51.715  0.00  0.00     0.000 A 
ATOM     25  C   UNL d   1      50.630  34.165  51.407  0.00  0.00     0.000 A 
ATOM     26  C   UNL d   1      51.276  34.269  51.910  0.00  0.00     0.000 A 
ENDBRANCH   5  21
TORSDOF 2
ENDMDL
MODEL 2
REMARK VINA RESULT:      -8.3      1.577      4.122
REMARK  2 active torsions:
REMARK  status: ('A' for Active; 'I' for Inactive)
REMARK    1  A    between atoms: N_10  and  C_3 
REMARK    2  A    between atoms: C_11  and  C_5 
ROOT
ATOM      1  N   UNL d   1      52.823  32.140  53.373  0.00  0.00    -0.196 N 
ATOM      2  C   UNL d   1      53.159  31.485  53.756  0.00  0.00     0.167 A 
ATOM      3  C   UNL d   1      52.994  32.895  53.649  0.00  0.00     0.152 A 
ATOM      4  N   UNL d   1      52.172  31.274  52.472  0.00  0.00    -0.163 NA
ATOM      5  C   UNL d   1      53.003  30.734  53.500  0.00  0.00     0.055 A 
ATOM      6  N   UNL d   1      53.658  31.599  54.407  0.00  0.00    -0.227 NA
ATOM      7  C   UNL d   1      53.486  33.010  54.290  0.00  0.00     0.052 A 
ATOM      8  C   UNL d   1      52.506  30.623  52.853  0.00  0.00     0.104 A 
ATOM      9  C   UNL d   1      53.820  32.358  54.671  0.00  0.00     0.086 A 
ATOM     10  C   UNL d   1      53.645  33.779  54.553  0.00  0.00     0.004 A 
ATOM     11  C   UNL d   1      52.342  29.879  52.588  0.00  0.00     0.023 C 
ATOM     12  C   UNL d   1      54.317  32.469  55.318  0.00  0.00     0.019 A 
ATOM     13  C   UNL d   1      54.151  33.888  55.210  0.00  0.00     0.000 A 
ATOM     14  C   UNL d   1      54.484  33.236  55.591  0.00  0.00     0.002 A 
ENDROOT
BRANCH   3  15
ATOM     15  N   UNL d   1      52.655  33.563  53.263  0.00  0.00    -0.285 N 
ATOM     16  C   UNL d   1      51.884  33.841  53.485  0.00  0.00     0.108 A 
ATOM     17  C   UNL d   1      51.550  34.505  53.099  0.00  0.00     0.142 A 
ATOM     18  O   UNL d   1      51.979  34.908  52.480  0.00  0.00    -0.300 OA
ATOM     19  C   UNL d   1      52.746  34.622  52.267  0.00  0.00     0.142 A 
ATOM     20  C   UNL d   1      53.080  33.958  52.654  0.00  0.00     0.108 A 
ENDBRANCH   3  15
BRANCH   5  21
ATOM     21  C   UNL d   1      53.336  30.082  53.881  0.00  0.00     0.004 A 
ATOM     22  C   UNL d   1      52.940  29.735  54.501  0.00  0.00     0.000 A 
ATOM     23  C   UNL d   1      53.274  29.084  54.882  0.00  0.00     0.000 A 
ATOM     24  C   UNL d   1      53.999  28.790  54.637  0.00  0.00     0.000 A 
ATOM     25  C   UNL d   1      54.390  29.147  54.011  0.00  0.00     0.000 A 
ATOM     26  C   UNL d   1      54.057  29.798  53.630  0.00  0.00     0.000 A 
ENDBRANCH   5  21
TORSDOF 2
ENDMDL
MODEL 3
REMARK VINA RESULT:      -7.9      1.590      3.817
REMARK  2 active torsions:
REMARK  status: ('A' for Active; 'I' for Inactive)
REMARK    1  A    between atoms: N_10  and  C_3 
REMARK    2  A    between atoms: C_11  and  C_5 
ROOT
ATOM      1  N   UNL d   1      52.362  34.124  53.578  0.00  0.00    -0.196 N 
ATOM      2  C   UNL d   1      53.051  33.879  53.970  0.00  0.00     0.167 A 
ATOM      3  C   UNL d   1      51.936  33.576  53.139  0.00  0.00     0.152 A 
ATOM      4  N   UNL d   1      52.552  35.430  54.071  0.00  0.00    -0.163 NA
ATOM      5  C   UNL d   1      53.485  34.403  54.408  0.00  0.00     0.055 A 
ATOM      6  N   UNL d   1      53.298  33.091  53.915  0.00  0.00    -0.227 NA
ATOM      7  C   UNL d   1      52.178  32.798  53.083  0.00  0.00     0.052 A 
ATOM      8  C   UNL d   1      53.237  35.186  54.461  0.00  0.00     0.104 A 
ATOM      9  C   UNL d   1      52.863  32.554  53.473  0.00  0.00     0.086 A 
ATOM     10  C   UNL d   1      51.734  32.261  52.635  0.00  0.00     0.004 A 
ATOM     11  C   UNL d   1      53.660  35.719  54.894  0.00  0.00     0.023 C 
ATOM     12  C   UNL d   1      53.111  31.771  53.419  0.00  0.00     0.019 A 
ATOM     13  C   UNL d   1      51.989  31.467  52.583  0.00  0.00     0.000 A 
ATOM     14  C   UNL d   1      52.674  31.223  52.973  0.00  0.00     0.002 A 
ENDROOT
BRANCH   3  15
ATOM     15  N   UNL d   1      51.236  33.821  52.738  0.00  0.00    -0.285 N 
ATOM     16  C   UNL d   1      51.269  34.059  51.924  0.00  0.00     0.108 A 
ATOM     17  C   UNL d   1      50.571  34.302  51.530  0.00  0.00     0.142 A 
ATOM     18  O   UNL d   1      49.822  34.314  51.940  0.00  0.00    -0.300 OA
ATOM     19  C   UNL d   1      49.802  34.075  52.751  0.00  0.00     0.142 A 
ATOM     20  C   UNL d   1      50.500  33.831  53.145  0.00  0.00     0.108 A 
ENDBRANCH   3  15
BRANCH   5  21
ATOM     21  C   UNL d   1      54.169  34.159  54.798  0.00  0.00     0.004 A 
ATOM     22  C   UNL d   1      54.114  33.859  55.553  0.00  0.00     0.000 A 
ATOM     23  C   UNL d   1      54.799  33.615  55.943  0.00  0.00     0.000 A 
ATOM     24  C   UNL d   1      55.528  33.675  55.572  0.00  0.00     0.000 A 
ATOM     25  C   UNL d   1      55.573  33.979  54.812  0.00  0.00     0.000 A 
ATOM     26  C   UNL d   1      54.888  34.223  54.422  0.00  0.00     0.000 A 
ENDBRANCH   5  21
TORSDOF 2
ENDMDL
MODEL 4
REMARK VINA RESULT:      -7.8      1.280      3.358
REMARK  2 active torsions:
REMARK  status: ('A' for Active; 'I' for Inactive)
REMARK    1  A    between atoms: N_10  and  C_3 
REMARK    2  A    between atoms: C_11  and  C_5 
ROOT
ATOM      1  N   UNL d   1      53.108  33.307  53.804  0.00  0.00    -0.196 N 
ATOM      2  C   UNL d   1      52.862  32.558  53.544  0.00  0.00     0.167 A 
ATOM      3  C   UNL d   1      52.598  33.945  53.720  0.00  0.00     0.152 A 
ATOM      4  N   UNL d   1      54.339  32.756  54.212  0.00  0.00    -0.163 NA
ATOM      5  C   UNL d   1      53.349  31.916  53.618  0.00  0.00     0.055 A 
ATOM      6  N   UNL d   1      52.112  32.464  53.207  0.00  0.00    -0.227 NA
ATOM      7  C   UNL d   1      51.859  33.856  53.387  0.00  0.00     0.052 A 
ATOM      8  C   UNL d   1      54.094  32.011  53.954  0.00  0.00     0.104 A 
ATOM      9  C   UNL d   1      51.614  33.111  53.129  0.00  0.00     0.086 A 
ATOM     10  C   UNL d   1      51.360  34.513  53.312  0.00  0.00     0.004 A 
ATOM     11  C   UNL d   1      54.589  31.379  54.033  0.00  0.00     0.023 C 
ATOM     12  C   UNL d   1      50.868  33.016  52.793  0.00  0.00     0.019 A 
ATOM     13  C   UNL d   1      50.604  34.413  52.970  0.00  0.00     0.000 A 
ATOM     14  C   UNL d   1      50.359  33.668  52.712  0.00  0.00     0.002 A 
ENDROOT
BRANCH   3  15
ATOM     15  N   UNL d   1      52.845  34.708  53.982  0.00  0.00    -0.285 N 
ATOM     16  C   UNL d   1      52.674  34.965  54.773  0.00  0.00     0.108 A 
ATOM     17  C   UNL d   1      52.920  35.723  55.030  0.00  0.00     0.142 A 
ATOM     18  O   UNL d   1      53.344  36.244  54.503  0.00  0.00    -0.300 OA
ATOM     19  C   UNL d   1      53.509  35.977  53.717  0.00  0.00     0.142 A 
ATOM     20  C   UNL d   1      53.263  35.218  53.460  0.00  0.00     0.108 A 
ENDBRANCH   3  15
BRANCH   5  21
ATOM     21  C   UNL d   1      53.104  31.171  53.360  0.00  0.00     0.004 A 
ATOM     22  C   UNL d   1      52.750  30.662  53.887  0.00  0.00     0.000 A 
ATOM     23  C   UNL d   1      52.505  29.917  53.629  0.00  0.00     0.000 A 
ATOM     24  C   UNL d   1      52.619  29.694  52.849  0.00  0.00     0.000 A 
ATOM     25  C   UNL d   1      52.977  30.214  52.326  0.00  0.00     0.000 A 
ATOM     26  C   UNL d   1      53.221  30.959  52.583  0.00  0.00     0.000 A 
ENDBRANCH   5  21
TORSDOF 2
ENDMDL
MODEL 5
REMARK VINA RESULT:      -5.8      1.614      3.309
REMARK  2 active torsions:
REMARK  status: ('A' for Active; 'I' for Inactive)
REMARK    1  A    between atoms: N_10  and  C_3 
REMARK    2  A    between atoms: C_11  and  C_5 
ROOT
ATOM      1  N   UNL d   1      53.394  32.465  53.950  0.00  0.00    -0.196 N 
ATOM      2  C   UNL d   1      53.220  33.266  54.076  0.00  0.00     0.167 A 
ATOM      3  C   UNL d   1      52.824  31.981  53.609  0.00  0.00     0.152 A 
ATOM      4  N   UNL d   1      54.676  32.662  54.500  0.00  0.00    -0.163 NA
ATOM      5  C   UNL d   1      53.767  33.759  54.411  0.00  0.00     0.055 A 
ATOM      6  N   UNL d   1      52.479  33.566  53.859  0.00  0.00    -0.227 NA
ATOM      7  C   UNL d   1      52.093  32.275  53.394  0.00  0.00     0.052 A 
ATOM      8  C   UNL d   1      54.503  33.458  54.626  0.00  0.00     0.104 A 
ATOM      9  C   UNL d   1      51.920  33.072  53.520  0.00  0.00     0.086 A 
ATOM     10  C   UNL d   1      51.533  31.770  53.052  0.00  0.00     0.004 A 
ATOM     11  C   UNL d   1      55.057  33.939  54.960  0.00  0.00     0.023 C 
ATOM     12  C   UNL d   1      51.184  33.372  53.305  0.00  0.00     0.019 A 
ATOM     13  C   UNL d   1      50.786  32.079  52.834  0.00  0.00     0.000 A 
ATOM     14  C   UNL d   1      50.613  32.876  52.960  0.00  0.00     0.002 A 
ENDROOT
BRANCH   3  15
ATOM     15  N   UNL d   1      52.997  31.167  53.479  0.00  0.00    -0.285 N 
ATOM     16  C   UNL d   1      53.235  30.897  52.710  0.00  0.00     0.108 A 
ATOM     17  C   UNL d   1      53.406  30.086  52.584  0.00  0.00     0.142 A 
ATOM     18  O   UNL d   1      53.344  29.525  53.225  0.00  0.00    -0.300 OA
ATOM     19  C   UNL d   1      53.107  29.806  53.986  0.00  0.00     0.142 A 
ATOM     20  C   UNL d   1      52.935  30.616  54.112  0.00  0.00     0.108 A 
ENDBRANCH   3  15
BRANCH   5  21
ATOM     21  C   UNL d   1      53.594  34.556  54.537  0.00  0.00     0.004 A 
ATOM     22  C   UNL d   1      53.301  34.792  55.259  0.00  0.00     0.000 A 
ATOM     23  C   UNL d   1      53.128  35.589  55.384  0.00  0.00     0.000 A 
ATOM     24  C   UNL d   1      53.250  36.137  54.786  0.00  0.00     0.000 A 
ATOM     25  C   UNL d   1      53.545  35.888  54.062  0.00  0.00     0.000 A 
ATOM     26  C   UNL d   1      53.718  35.092  53.937  0.00  0.00     0.000 A 
ENDBRANCH   5  21
TORSDOF 2
ENDMDL
