MODEL 1
REMARK VINA RESULT:      54.9      0.000      0.000
REMARK  4 active torsions:
REMARK  status: ('A' for Active; 'I' for Inactive)
REMARK    1  A    between atoms: C_3  and  C_1 
REMARK    2  A    between atoms: C_8  and  C_3 
REMARK    3  A    between atoms: O_6  and  C_8 
REMARK    4  A    between atoms: C_7  and  O_6 
ROOT
ATOM      1  C   UNL d   1      61.007  49.126  50.747  0.00  0.00     0.223 C 
ATOM      2  O   UNL d   1      61.521  49.634  51.149  0.00  0.00    -0.284 OA
ENDROOT
BRANCH   1   3
ATOM      3  C   UNL d   1      60.195  49.271  50.751  0.00  0.00     0.080 A 
ATOM      4  C   UNL d   1      59.823  49.523  51.445  0.00  0.00     0.202 A 
ATOM      5  C   UNL d   1      59.011  49.669  51.449  0.00  0.00     0.084 A 
ATOM      6  O   UNL d   1      60.263  49.630  52.135  0.00  0.00    -0.286 OA
ATOM      7  C   UNL d   1      58.574  49.560  50.753  0.00  0.00     0.199 A 
ATOM      8  C   UNL d   1      58.943  49.310  50.066  0.00  0.00     0.042 A 
ATOM      9  O   UNL d   1      57.747  49.708  50.758  0.00  0.00    -0.286 OA
ATOM     10  C   UNL d   1      59.755  49.164  50.062  0.00  0.00     0.010 A 
ENDBRANCH   1   3
BRANCH   1  11
ATOM     11  C   UNL d   1      61.312  48.468  50.339  0.00  0.00     0.165 C 
BRANCH  11  12
ATOM     12  O   UNL d   1      61.319  47.725  50.705  0.00  0.00    -0.301 OA
BRANCH  12  13
ATOM     13  C   UNL d   1      61.526  47.059  50.257  0.00  0.00     0.106 A 
ATOM     14  C   UNL d   1      61.267  46.311  50.481  0.00  0.00     0.057 A 
ATOM     15 BR   UNL d   1      60.799  46.233  51.157  0.00  0.00    -0.047 Br
ATOM     16  C   UNL d   1      61.473  45.649  50.036  0.00  0.00     0.009 A 
ATOM     17  C   UNL d   1      61.942  45.735  49.360  0.00  0.00     0.001 A 
ATOM     18  C   UNL d   1      62.206  46.493  49.131  0.00  0.00     0.002 A 
ATOM     19  C   UNL d   1      61.995  47.149  49.582  0.00  0.00     0.025 A 
ENDBRANCH  12  13
ENDBRANCH  11  12
ENDBRANCH   1  11
TORSDOF 4
ENDMDL
MODEL 2
REMARK VINA RESULT:      56.0      1.425      1.940
REMARK  4 active torsions:
REMARK  status: ('A' for Active; 'I' for Inactive)
REMARK    1  A    between atoms: C_3  and  C_1 
REMARK    2  A    between atoms: C_8  and  C_3 
REMARK    3  A    between atoms: O_6  and  C_8 
REMARK    4  A    between atoms: C_7  and  O_6 
ROOT
ATOM      1  C   UNL d   1      61.410  48.148  50.205  0.00  0.00     0.223 C 
ATOM      2  O   UNL d   1      61.797  48.588  49.621  0.00  0.00    -0.284 OA
ENDROOT
BRANCH   1   3
ATOM      3  C   UNL d   1      61.058  48.531  50.845  0.00  0.00     0.080 A 
ATOM      4  C   UNL d   1      60.778  49.305  50.761  0.00  0.00     0.202 A 
ATOM      5  C   UNL d   1      60.426  49.688  51.401  0.00  0.00     0.084 A 
ATOM      6  O   UNL d   1      60.849  49.694  50.038  0.00  0.00    -0.286 OA
ATOM      7  C   UNL d   1      60.357  49.291  52.126  0.00  0.00     0.199 A 
ATOM      8  C   UNL d   1      60.635  48.525  52.208  0.00  0.00     0.042 A 
ATOM      9  O   UNL d   1      59.998  49.681  52.777  0.00  0.00    -0.286 OA
ATOM     10  C   UNL d   1      60.987  48.142  51.568  0.00  0.00     0.010 A 
ENDBRANCH   1   3
BRANCH   1  11
ATOM     11  C   UNL d   1      61.377  47.319  50.144  0.00  0.00     0.165 C 
BRANCH  11  12
ATOM     12  O   UNL d   1      61.951  46.917  49.700  0.00  0.00    -0.301 OA
BRANCH  12  13
ATOM     13  C   UNL d   1      61.837  46.113  49.533  0.00  0.00     0.106 A 
ATOM     14  C   UNL d   1      62.404  45.694  49.109  0.00  0.00     0.057 A 
ATOM     15 BR   UNL d   1      63.085  46.084  48.852  0.00  0.00    -0.047 Br
ATOM     16  C   UNL d   1      62.292  44.895  48.943  0.00  0.00     0.009 A 
ATOM     17  C   UNL d   1      61.607  44.511  49.203  0.00  0.00     0.001 A 
ATOM     18  C   UNL d   1      61.031  44.934  49.634  0.00  0.00     0.002 A 
ATOM     19  C   UNL d   1      61.151  45.733  49.796  0.00  0.00     0.025 A 
ENDBRANCH  12  13
ENDBRANCH  11  12
ENDBRANCH   1  11
TORSDOF 4
ENDMDL
MODEL 3
REMARK VINA RESULT:      56.5      1.699      4.238
REMARK  4 active torsions:
REMARK  status: ('A' for Active; 'I' for Inactive)
REMARK    1  A    between atoms: C_3  and  C_1 
REMARK    2  A    between atoms: C_8  and  C_3 
REMARK    3  A    between atoms: O_6  and  C_8 
REMARK    4  A    between atoms: C_7  and  O_6 
ROOT
ATOM      1  C   UNL d   1      61.830  46.803  49.814  0.00  0.00     0.223 C 
ATOM      2  O   UNL d   1      62.604  47.091  49.772  0.00  0.00    -0.284 OA
ENDROOT
BRANCH   1   3
ATOM      3  C   UNL d   1      61.662  46.034  49.568  0.00  0.00     0.080 A 
ATOM      4  C   UNL d   1      62.191  45.631  49.076  0.00  0.00     0.202 A 
ATOM      5  C   UNL d   1      62.023  44.862  48.830  0.00  0.00     0.084 A 
ATOM      6  O   UNL d   1      62.888  45.998  48.830  0.00  0.00    -0.286 OA
ATOM      7  C   UNL d   1      61.321  44.499  49.080  0.00  0.00     0.199 A 
ATOM      8  C   UNL d   1      60.797  44.897  49.567  0.00  0.00     0.042 A 
ATOM      9  O   UNL d   1      61.150  43.715  48.829  0.00  0.00    -0.286 OA
ATOM     10  C   UNL d   1      60.965  45.666  49.813  0.00  0.00     0.010 A 
ENDBRANCH   1   3
BRANCH   1  11
ATOM     11  C   UNL d   1      61.223  47.291  50.104  0.00  0.00     0.165 C 
BRANCH  11  12
ATOM     12  O   UNL d   1      61.320  48.114  50.098  0.00  0.00    -0.301 OA
BRANCH  12  13
ATOM     13  C   UNL d   1      61.019  48.558  50.731  0.00  0.00     0.106 A 
ATOM     14  C   UNL d   1      60.614  49.259  50.590  0.00  0.00     0.057 A 
ATOM     15 BR   UNL d   1      60.511  49.515  49.811  0.00  0.00    -0.047 Br
ATOM     16  C   UNL d   1      60.314  49.701  51.218  0.00  0.00     0.009 A 
ATOM     17  C   UNL d   1      60.421  49.438  51.995  0.00  0.00     0.001 A 
ATOM     18  C   UNL d   1      60.832  48.727  52.140  0.00  0.00     0.002 A 
ATOM     19  C   UNL d   1      61.128  48.292  51.506  0.00  0.00     0.025 A 
ENDBRANCH  12  13
ENDBRANCH  11  12
ENDBRANCH   1  11
TORSDOF 4
ENDMDL
