MODEL 1
REMARK VINA RESULT:      -3.5      0.000      0.000
REMARK  2 active torsions:
REMARK  status: ('A' for Active; 'I' for Inactive)
REMARK    1  A    between atoms: C_13  and  C_5 
REMARK    2  A    between atoms: C_16  and  C_13 
ROOT
ATOM      1  C   UNL d   1      59.420   0.680  31.234  0.00  0.00     0.111 A 
ATOM      2  C   UNL d   1      58.017   0.679  31.490  0.00  0.00     0.062 A 
ATOM      3  C   UNL d   1      59.566   0.680  32.036  0.00  0.00     0.213 A 
ATOM      4  C   UNL d   1      58.163   0.679  32.292  0.00  0.00     0.101 A 
ATOM      5  C   UNL d   1      58.651   0.679  30.962  0.00  0.00     0.018 A 
ATOM      6  O   UNL d   1      58.943   0.680  32.561  0.00  0.00    -0.288 OA
ATOM      7  C   UNL d   1      57.249   0.678  31.217  0.00  0.00     0.194 A 
ATOM      8  C   UNL d   1      60.098   0.681  30.714  0.00  0.00     0.105 C 
ATOM      9  N   UNL d   1      60.755   0.681  30.181  0.00  0.00    -0.191 NA
ATOM     10  C   UNL d   1      57.540   0.678  32.817  0.00  0.00     0.002 A 
ATOM     11  C   UNL d   1      56.757   0.678  32.548  0.00  0.00     0.042 A 
ATOM     12  C   UNL d   1      56.611   0.678  31.746  0.00  0.00     0.019 A 
ATOM     13  O   UNL d   1      57.099   0.678  30.397  0.00  0.00    -0.287 OA
ATOM     14  N   UNL d   1      60.385   0.681  32.283  0.00  0.00    -0.120 N 
ATOM     15  C   UNL d   1      55.947   0.677  32.472  0.00  0.00     0.009 C 
ATOM     16  C   UNL d   1      56.276   0.677  33.201  0.00  0.00     0.009 C 
ENDROOT
BRANCH   5  17
ATOM     17  C   UNL d   1      58.502   0.679  30.141  0.00  0.00     0.001 C 
BRANCH  17  18
ATOM     18  C   UNL d   1      58.521  -0.021  29.718  0.00  0.00     0.000 A 
ATOM     19  C   UNL d   1      58.568  -0.006  28.884  0.00  0.00     0.000 A 
ATOM     20  C   UNL d   1      58.588  -0.727  28.455  0.00  0.00     0.000 A 
ATOM     21  C   UNL d   1      58.562  -1.427  28.835  0.00  0.00     0.000 A 
ATOM     22  C   UNL d   1      58.514  -1.458  29.672  0.00  0.00     0.000 A 
ATOM     23  C   UNL d   1      58.494  -0.755  30.116  0.00  0.00     0.000 A 
ENDBRANCH  17  18
ENDBRANCH   5  17
TORSDOF 2
ENDMDL
MODEL 2
REMARK VINA RESULT:      -2.9      1.897      2.960
REMARK  2 active torsions:
REMARK  status: ('A' for Active; 'I' for Inactive)
REMARK    1  A    between atoms: C_13  and  C_5 
REMARK    2  A    between atoms: C_16  and  C_13 
ROOT
ATOM      1  C   UNL d   1      57.455   0.681  33.673  0.00  0.00     0.111 A 
ATOM      2  C   UNL d   1      56.029   0.681  33.684  0.00  0.00     0.062 A 
ATOM      3  C   UNL d   1      57.462   0.681  34.488  0.00  0.00     0.213 A 
ATOM      4  C   UNL d   1      56.036   0.681  34.499  0.00  0.00     0.101 A 
ATOM      5  C   UNL d   1      56.745   0.681  33.273  0.00  0.00     0.018 A 
ATOM      6  O   UNL d   1      56.758   0.681  34.899  0.00  0.00    -0.288 OA
ATOM      7  C   UNL d   1      55.319   0.681  33.284  0.00  0.00     0.194 A 
ATOM      8  C   UNL d   1      58.213   0.681  33.277  0.00  0.00     0.105 C 
ATOM      9  N   UNL d   1      58.951   0.681  32.865  0.00  0.00    -0.191 NA
ATOM     10  C   UNL d   1      55.332   0.681  34.910  0.00  0.00     0.002 A 
ATOM     11  C   UNL d   1      54.607   0.681  34.510  0.00  0.00     0.042 A 
ATOM     12  C   UNL d   1      54.600   0.681  33.695  0.00  0.00     0.019 A 
ATOM     13  O   UNL d   1      55.313   0.681  32.450  0.00  0.00    -0.287 OA
ATOM     14  N   UNL d   1      58.226   0.681  34.872  0.00  0.00    -0.120 N 
ATOM     15  C   UNL d   1      53.821   0.681  34.296  0.00  0.00     0.009 C 
ATOM     16  C   UNL d   1      54.020   0.681  35.071  0.00  0.00     0.009 C 
ENDROOT
BRANCH   5  17
ATOM     17  C   UNL d   1      56.739   0.681  32.439  0.00  0.00     0.001 C 
BRANCH  17  18
ATOM     18  C   UNL d   1      56.894  -0.008  32.024  0.00  0.00     0.000 A 
ATOM     19  C   UNL d   1      57.392   0.011  31.354  0.00  0.00     0.000 A 
ATOM     20  C   UNL d   1      57.548  -0.699  30.933  0.00  0.00     0.000 A 
ATOM     21  C   UNL d   1      57.228  -1.389  31.166  0.00  0.00     0.000 A 
ATOM     22  C   UNL d   1      56.726  -1.422  31.838  0.00  0.00     0.000 A 
ATOM     23  C   UNL d   1      56.558  -0.732  32.269  0.00  0.00     0.000 A 
ENDBRANCH  17  18
ENDBRANCH   5  17
TORSDOF 2
ENDMDL
