MODEL 1
REMARK VINA RESULT:     133.2      0.000      0.000
REMARK  7 active torsions:
REMARK  status: ('A' for Active; 'I' for Inactive)
REMARK    1  A    between atoms: N_8  and  C_1 
REMARK    2  A    between atoms: C_14  and  C_2 
REMARK    3  A    between atoms: S_3  and  C_16 
REMARK    4  A    between atoms: N_7  and  S_3 
REMARK       I    between atoms: C_12  and  N_8 
REMARK       I    between atoms: C_13  and  N_11 
REMARK    5  A    between atoms: C_22  and  C_12 
REMARK    6  A    between atoms: O_33  and  C_13 
REMARK    7  A    between atoms: C_38  and  O_33 
ROOT
ATOM      1  C   UNL d   1     -54.987-101.896 -40.377  0.00  0.00     0.104 A 
ATOM      2  C   UNL d   1     -54.998-101.781 -42.015  0.00  0.00     0.056 A 
ATOM      3  C   UNL d   1     -54.891-101.158 -40.738  0.00  0.00     0.013 A 
ATOM      4  C   UNL d   1     -55.089-102.576 -40.831  0.00  0.00     0.013 A 
ATOM      5  C   UNL d   1     -54.896-101.100 -41.560  0.00  0.00     0.005 A 
ATOM      6  C   UNL d   1     -55.094-102.515 -41.657  0.00  0.00     0.005 A 
ENDROOT
BRANCH   2   7
ATOM      7  C   UNL d   1     -55.004-101.727 -42.839  0.00  0.00     0.258 C 
ATOM      8  N   UNL d   1     -55.006-100.981 -43.209  0.00  0.00    -0.316 N 
ATOM      9  H   UNL d   1     -55.001-100.795 -42.587  0.00  0.00     0.169 HD
ATOM     10  O   UNL d   1     -55.009-102.408 -43.309  0.00  0.00    -0.267 OA
BRANCH   8  11
ATOM     11  C   UNL d   1     -55.012-100.926 -44.033  0.00  0.00     0.094 A 
ATOM     12  C   UNL d   1     -55.152-100.245 -44.468  0.00  0.00     0.081 A 
ATOM     13  C   UNL d   1     -55.108-100.430 -45.274  0.00  0.00     0.008 A 
ATOM     14  C   UNL d   1     -55.199 -99.972 -45.950  0.00  0.00    -0.004 A 
ATOM     15  C   UNL d   1     -54.940-101.231 -45.338  0.00  0.00     0.028 A 
ATOM     16  C   UNL d   1     -55.122-100.319 -46.692  0.00  0.00     0.099 A 
ATOM     17  C   UNL d   1     -55.269 -99.603 -47.087  0.00  0.00     0.029 C 
ATOM     18  C   UNL d   1     -55.080-100.493 -47.500  0.00  0.00     0.029 C 
ATOM     19  N   UNL d   1     -54.954-101.119 -46.768  0.00  0.00    -0.294 NA
ATOM     20  C   UNL d   1     -54.862-101.579 -46.082  0.00  0.00     0.104 A 
ATOM     21  C   UNL d   1     -54.715-102.296 -45.690  0.00  0.00     0.029 C 
ATOM     22  C   UNL d   1     -54.777-101.963 -46.822  0.00  0.00     0.029 C 
ATOM     23  S   UNL d   1     -54.879-101.547 -44.571  0.00  0.00    -0.072 SA
BRANCH  12  24
ATOM     24  C   UNL d   1     -55.310 -99.498 -44.164  0.00  0.00     0.299 C 
ATOM     25  O   UNL d   1     -56.066 -99.200 -44.198  0.00  0.00    -0.264 OA
ATOM     26  N   UNL d   1     -54.711 -99.064 -43.832  0.00  0.00    -0.102 N 
ENDBRANCH  12  24
ENDBRANCH   8  11
ENDBRANCH   2   7
BRANCH   1  27
ATOM     27  S   UNL d   1     -54.981-101.952 -39.543  0.00  0.00     0.271 S 
ATOM     28  O   UNL d   1     -54.733-101.160 -39.525  0.00  0.00    -0.200 OA
ATOM     29  O   UNL d   1     -55.229-102.738 -39.572  0.00  0.00    -0.200 OA
BRANCH  27  30
ATOM     30  N   UNL d   1     -54.976-102.008 -38.727  0.00  0.00    -0.226 N 
ATOM     31  C   UNL d   1     -54.939-102.742 -38.357  0.00  0.00     0.111 A 
ATOM     32  C   UNL d   1     -54.934-102.782 -37.534  0.00  0.00     0.105 A 
ATOM     33  N   UNL d   1     -54.966-102.094 -37.079  0.00  0.00    -0.248 N 
ATOM     34  C   UNL d   1     -55.003-101.362 -37.455  0.00  0.00     0.105 A 
ATOM     35  C   UNL d   1     -54.961-102.139 -36.264  0.00  0.00     0.378 C 
ATOM     36  C   UNL d   1     -55.008-101.323 -38.273  0.00  0.00     0.111 A 
ATOM     37  O   UNL d   1     -54.923-102.873 -35.894  0.00  0.00    -0.237 OA
BRANCH  35  38
ATOM     38  O   UNL d   1     -54.993-101.457 -35.817  0.00  0.00    -0.257 OA
BRANCH  38  39
ATOM     39  C   UNL d   1     -55.692-101.246 -35.451  0.00  0.00     0.128 C 
ATOM     40  C   UNL d   1     -56.379-101.686 -35.594  0.00  0.00     0.029 C 
ENDBRANCH  38  39
ENDBRANCH  35  38
ENDBRANCH  27  30
ENDBRANCH   1  27
TORSDOF 7
ENDMDL
