MODEL 1
REMARK VINA RESULT:      -0.9      0.000      0.000
REMARK  4 active torsions:
REMARK  status: ('A' for Active; 'I' for Inactive)
REMARK    1  A    between atoms: N_10  and  C_3 
REMARK    2  A    between atoms: C_14  and  C_5 
REMARK    3  A    between atoms: C_15  and  C_9 
REMARK       I    between atoms: C_11  and  N_12 
REMARK    4  A    between atoms: C_13  and  C_11 
ROOT
ATOM      1  N   UNL d   1     -41.528  14.070  20.021  0.00  0.00    -0.196 N 
ATOM      2  C   UNL d   1     -40.823  14.424  19.693  0.00  0.00     0.167 A 
ATOM      3  C   UNL d   1     -41.615  14.058  20.834  0.00  0.00     0.152 A 
ATOM      4  N   UNL d   1     -41.984  13.780  18.694  0.00  0.00    -0.163 NA
ATOM      5  C   UNL d   1     -40.710  14.450  18.878  0.00  0.00     0.055 A 
ATOM      6  N   UNL d   1     -40.245  14.746  20.196  0.00  0.00    -0.231 NA
ATOM      7  C   UNL d   1     -41.050  14.372  21.338  0.00  0.00     0.052 A 
ATOM      8  C   UNL d   1     -41.293  14.126  18.372  0.00  0.00     0.104 A 
ATOM      9  C   UNL d   1     -40.356  14.721  21.015  0.00  0.00     0.063 A 
ATOM     10  C   UNL d   1     -41.183  14.151  17.563  0.00  0.00     0.023 C 
ENDROOT
BRANCH   3  11
ATOM     11  N   UNL d   1     -42.330  13.699  21.171  0.00  0.00    -0.286 N 
ATOM     12  C   UNL d   1     -43.105  13.950  21.260  0.00  0.00     0.101 A 
ATOM     13  C   UNL d   1     -43.667  13.464  21.613  0.00  0.00     0.102 A 
ATOM     14  N   UNL d   1     -43.445  12.718  21.879  0.00  0.00    -0.267 N 
ATOM     15  C   UNL d   1     -43.993  12.224  22.233  0.00  0.00     0.288 C 
ATOM     16  C   UNL d   1     -42.674  12.465  21.793  0.00  0.00     0.102 A 
ATOM     17  O   UNL d   1     -43.774  11.478  22.500  0.00  0.00    -0.264 OA
ATOM     18  C   UNL d   1     -42.116  12.958  21.437  0.00  0.00     0.101 A 
BRANCH  15  19
ATOM     19  C   UNL d   1     -44.767  12.475  22.321  0.00  0.00     0.156 A 
ATOM     20  O   UNL d   1     -45.110  12.481  23.070  0.00  0.00    -0.300 OA
ATOM     21  C   UNL d   1     -45.885  12.733  23.157  0.00  0.00     0.123 A 
ATOM     22  C   UNL d   1     -46.315  12.975  22.514  0.00  0.00     0.029 A 
ATOM     23  C   UNL d   1     -45.197  12.717  21.678  0.00  0.00     0.032 A 
ENDBRANCH  15  19
ENDBRANCH   3  11
BRANCH   9  24
ATOM     24  C   UNL d   1     -39.751  15.057  21.548  0.00  0.00     0.036 C 
ATOM     25  C   UNL d   1     -39.150  15.387  22.077  0.00  0.00     0.006 C 
ATOM     26  C   UNL d   1     -39.603  15.914  21.557  0.00  0.00     0.006 C 
ATOM     27  C   UNL d   1     -39.297  14.533  22.069  0.00  0.00     0.006 C 
ENDBRANCH   9  24
BRANCH   5  28
ATOM     28  C   UNL d   1     -40.027  14.793  18.560  0.00  0.00     0.004 A 
ATOM     29  C   UNL d   1     -39.333  14.358  18.510  0.00  0.00     0.001 A 
ATOM     30  C   UNL d   1     -38.641  14.706  18.188  0.00  0.00     0.011 A 
ATOM     31  C   UNL d   1     -38.656  15.482  17.921  0.00  0.00     0.058 A 
ATOM     32  C   UNL d   1     -39.368  15.922  17.975  0.00  0.00     0.011 A 
ATOM     33 CL   UNL d   1     -37.940  15.841  17.588  0.00  0.00    -0.082 Cl
ATOM     34  C   UNL d   1     -40.048  15.581  18.291  0.00  0.00     0.001 A 
ENDBRANCH   5  28
TORSDOF 4
ENDMDL
MODEL 2
REMARK VINA RESULT:       1.4      3.403      7.548
REMARK  4 active torsions:
REMARK  status: ('A' for Active; 'I' for Inactive)
REMARK    1  A    between atoms: N_10  and  C_3 
REMARK    2  A    between atoms: C_14  and  C_5 
REMARK    3  A    between atoms: C_15  and  C_9 
REMARK       I    between atoms: C_11  and  N_12 
REMARK    4  A    between atoms: C_13  and  C_11 
ROOT
ATOM      1  N   UNL d   1     -46.491  12.530  22.312  0.00  0.00    -0.196 N 
ATOM      2  C   UNL d   1     -47.329  12.588  22.470  0.00  0.00     0.167 A 
ATOM      3  C   UNL d   1     -46.074  13.217  22.162  0.00  0.00     0.152 A 
ATOM      4  N   UNL d   1     -46.573  11.108  22.471  0.00  0.00    -0.163 NA
ATOM      5  C   UNL d   1     -47.772  11.911  22.625  0.00  0.00     0.055 A 
ATOM      6  N   UNL d   1     -47.703  13.330  22.469  0.00  0.00    -0.231 NA
ATOM      7  C   UNL d   1     -46.435  13.953  22.159  0.00  0.00     0.052 A 
ATOM      8  C   UNL d   1     -47.394  11.165  22.625  0.00  0.00     0.104 A 
ATOM      9  C   UNL d   1     -47.260  14.010  22.315  0.00  0.00     0.063 A 
ATOM     10  C   UNL d   1     -47.832  10.492  22.778  0.00  0.00     0.023 C 
ENDROOT
BRANCH   3  11
ATOM     11  N   UNL d   1     -45.223  13.162  22.001  0.00  0.00    -0.286 N 
ATOM     12  C   UNL d   1     -44.687  13.641  21.609  0.00  0.00     0.101 A 
ATOM     13  C   UNL d   1     -43.894  13.426  21.552  0.00  0.00     0.102 A 
ATOM     14  N   UNL d   1     -43.642  12.722  21.894  0.00  0.00    -0.267 N 
ATOM     15  C   UNL d   1     -42.857  12.496  21.845  0.00  0.00     0.288 C 
ATOM     16  C   UNL d   1     -44.174  12.243  22.285  0.00  0.00     0.102 A 
ATOM     17  O   UNL d   1     -42.601  11.792  22.185  0.00  0.00    -0.264 OA
ATOM     18  C   UNL d   1     -44.967  12.466  22.338  0.00  0.00     0.101 A 
BRANCH  15  19
ATOM     19  C   UNL d   1     -42.322  12.974  21.453  0.00  0.00     0.156 A 
ATOM     20  O   UNL d   1     -41.590  13.133  21.796  0.00  0.00    -0.300 OA
ATOM     21  C   UNL d   1     -41.054  13.613  21.404  0.00  0.00     0.123 A 
ATOM     22  C   UNL d   1     -41.238  13.930  20.681  0.00  0.00     0.029 A 
ATOM     23  C   UNL d   1     -42.505  13.292  20.730  0.00  0.00     0.032 A 
ENDBRANCH  15  19
ENDBRANCH   3  11
BRANCH   9  24
ATOM     24  C   UNL d   1     -47.649  14.793  22.313  0.00  0.00     0.036 C 
ATOM     25  C   UNL d   1     -48.033  15.569  22.314  0.00  0.00     0.006 C 
ATOM     26  C   UNL d   1     -48.149  15.032  21.643  0.00  0.00     0.006 C 
ATOM     27  C   UNL d   1     -47.534  15.333  22.982  0.00  0.00     0.006 C 
ENDBRANCH   9  24
BRANCH   5  28
ATOM     28  C   UNL d   1     -48.584  11.967  22.778  0.00  0.00     0.004 A 
ATOM     29  C   UNL d   1     -48.849  12.149  23.533  0.00  0.00     0.001 A 
ATOM     30  C   UNL d   1     -49.670  12.206  23.688  0.00  0.00     0.011 A 
ATOM     31  C   UNL d   1     -50.213  12.080  23.085  0.00  0.00     0.058 A 
ATOM     32  C   UNL d   1     -49.937  11.894  22.315  0.00  0.00     0.011 A 
ATOM     33 CL   UNL d   1     -51.064  12.139  23.246  0.00  0.00    -0.082 Cl
ATOM     34  C   UNL d   1     -49.129  11.839  22.163  0.00  0.00     0.001 A 
ENDBRANCH   5  28
TORSDOF 4
ENDMDL
