MODEL 1
REMARK VINA RESULT:      -6.6      0.000      0.000
REMARK  3 active torsions:
REMARK  status: ('A' for Active; 'I' for Inactive)
REMARK    1  A    between atoms: N_2  and  S_1 
REMARK    2  A    between atoms: C_3  and  C_7 
REMARK       I    between atoms: N_4  and  C_3 
REMARK    3  A    between atoms: C_13  and  N_4 
ROOT
ATOM      1  N   UNL d   1     -45.972  11.579  23.390  0.00  0.00    -0.233 N 
ATOM      2  C   UNL d   1     -47.200  12.636  23.159  0.00  0.00     0.061 A 
ATOM      3  C   UNL d   1     -46.721  11.418  23.693  0.00  0.00     0.091 A 
ATOM      4  C   UNL d   1     -45.844  12.264  22.976  0.00  0.00     0.091 A 
ATOM      5  C   UNL d   1     -46.451  12.798  22.855  0.00  0.00     0.025 A 
ATOM      6  C   UNL d   1     -47.340  11.941  23.582  0.00  0.00     0.025 A 
ENDROOT
BRANCH   2   7
ATOM      7  C   UNL d   1     -47.824  13.173  23.041  0.00  0.00     0.279 C 
ATOM      8  N   UNL d   1     -48.565  12.885  22.796  0.00  0.00    -0.208 NA
ATOM      9  O   UNL d   1     -47.713  13.971  23.164  0.00  0.00    -0.265 OA
BRANCH   8  10
ATOM     10  C   UNL d   1     -49.190  13.416  22.677  0.00  0.00     0.085 A 
ATOM     11  C   UNL d   1     -49.612  13.719  23.331  0.00  0.00     0.019 A 
ATOM     12  C   UNL d   1     -50.236  14.248  23.204  0.00  0.00     0.002 A 
ATOM     13  C   UNL d   1     -50.441  14.476  22.440  0.00  0.00     0.000 A 
ATOM     14  C   UNL d   1     -50.021  14.175  21.789  0.00  0.00     0.002 A 
ATOM     15  C   UNL d   1     -51.064  15.005  22.316  0.00  0.00     0.000 C 
ATOM     16  C   UNL d   1     -49.400  13.647  21.914  0.00  0.00     0.019 A 
ENDBRANCH   8  10
ENDBRANCH   2   7
BRANCH   1  17
ATOM     17  S   UNL d   1     -45.354  11.041  23.510  0.00  0.00     0.252 S 
ATOM     18  O   UNL d   1     -44.807  11.631  23.329  0.00  0.00    -0.204 OA
ATOM     19  O   UNL d   1     -45.984  10.437  23.698  0.00  0.00    -0.204 OA
ATOM     20  C   UNL d   1     -44.747  10.507  23.630  0.00  0.00     0.164 C 
ENDBRANCH   1  17
TORSDOF 3
ENDMDL
MODEL 2
REMARK VINA RESULT:      -6.6      2.047      4.792
REMARK  3 active torsions:
REMARK  status: ('A' for Active; 'I' for Inactive)
REMARK    1  A    between atoms: N_2  and  S_1 
REMARK    2  A    between atoms: C_3  and  C_7 
REMARK       I    between atoms: N_4  and  C_3 
REMARK    3  A    between atoms: C_13  and  N_4 
ROOT
ATOM      1  N   UNL d   1     -49.863  14.674  23.011  0.00  0.00    -0.233 N 
ATOM      2  C   UNL d   1     -48.674  13.553  22.918  0.00  0.00     0.061 A 
ATOM      3  C   UNL d   1     -49.966  13.931  23.353  0.00  0.00     0.091 A 
ATOM      4  C   UNL d   1     -49.171  14.849  22.628  0.00  0.00     0.091 A 
ATOM      5  C   UNL d   1     -48.572  14.296  22.577  0.00  0.00     0.025 A 
ATOM      6  C   UNL d   1     -49.376  13.366  23.311  0.00  0.00     0.025 A 
ENDROOT
BRANCH   2   7
ATOM      7  C   UNL d   1     -48.070  12.983  22.871  0.00  0.00     0.279 C 
ATOM      8  N   UNL d   1     -47.522  12.923  23.493  0.00  0.00    -0.208 NA
ATOM      9  O   UNL d   1     -48.015  12.491  22.224  0.00  0.00    -0.265 OA
BRANCH   8  10
ATOM     10  C   UNL d   1     -46.918  12.357  23.452  0.00  0.00     0.085 A 
ATOM     11  C   UNL d   1     -46.163  12.571  23.166  0.00  0.00     0.019 A 
ATOM     12  C   UNL d   1     -45.565  11.999  23.127  0.00  0.00     0.002 A 
ATOM     13  C   UNL d   1     -45.711  11.225  23.369  0.00  0.00     0.000 A 
ATOM     14  C   UNL d   1     -46.462  11.012  23.654  0.00  0.00     0.002 A 
ATOM     15  C   UNL d   1     -45.111  10.657  23.329  0.00  0.00     0.000 C 
ATOM     16  C   UNL d   1     -47.059  11.580  23.693  0.00  0.00     0.019 A 
ENDBRANCH   8  10
ENDBRANCH   2   7
BRANCH   1  17
ATOM     17  S   UNL d   1     -50.469  15.237  23.062  0.00  0.00     0.252 S 
ATOM     18  O   UNL d   1     -50.923  14.791  22.536  0.00  0.00    -0.204 OA
ATOM     19  O   UNL d   1     -49.940  15.682  23.625  0.00  0.00    -0.204 OA
ATOM     20  C   UNL d   1     -51.064  15.794  23.113  0.00  0.00     0.164 C 
ENDBRANCH   1  17
TORSDOF 3
ENDMDL
MODEL 3
REMARK VINA RESULT:      -6.5      2.218      4.831
REMARK  3 active torsions:
REMARK  status: ('A' for Active; 'I' for Inactive)
REMARK    1  A    between atoms: N_2  and  S_1 
REMARK    2  A    between atoms: C_3  and  C_7 
REMARK       I    between atoms: N_4  and  C_3 
REMARK    3  A    between atoms: C_13  and  N_4 
ROOT
ATOM      1  N   UNL d   1     -49.683  14.801  23.097  0.00  0.00    -0.233 N 
ATOM      2  C   UNL d   1     -48.312  13.996  22.709  0.00  0.00     0.061 A 
ATOM      3  C   UNL d   1     -49.560  14.034  23.372  0.00  0.00     0.091 A 
ATOM      4  C   UNL d   1     -49.122  15.157  22.633  0.00  0.00     0.091 A 
ATOM      5  C   UNL d   1     -48.435  14.763  22.434  0.00  0.00     0.025 A 
ATOM      6  C   UNL d   1     -48.877  13.625  23.183  0.00  0.00     0.025 A 
ENDROOT
BRANCH   2   7
ATOM      7  C   UNL d   1     -47.614  13.587  22.512  0.00  0.00     0.279 C 
ATOM      8  N   UNL d   1     -46.915  13.756  22.928  0.00  0.00    -0.208 NA
ATOM      9  O   UNL d   1     -47.617  13.027  21.919  0.00  0.00    -0.265 OA
BRANCH   8  10
ATOM     10  C   UNL d   1     -46.218  13.352  22.736  0.00  0.00     0.085 A 
ATOM     11  C   UNL d   1     -45.666  13.695  22.211  0.00  0.00     0.019 A 
ATOM     12  C   UNL d   1     -44.971  13.284  22.024  0.00  0.00     0.002 A 
ATOM     13  C   UNL d   1     -44.824  12.543  22.352  0.00  0.00     0.000 A 
ATOM     14  C   UNL d   1     -45.373  12.201  22.874  0.00  0.00     0.002 A 
ATOM     15  C   UNL d   1     -44.129  12.135  22.163  0.00  0.00     0.000 C 
ATOM     16  C   UNL d   1     -46.065  12.609  23.061  0.00  0.00     0.019 A 
ENDBRANCH   8  10
ENDBRANCH   2   7
BRANCH   1  17
ATOM     17  S   UNL d   1     -50.379  15.203  23.297  0.00  0.00     0.252 S 
ATOM     18  O   UNL d   1     -50.821  14.621  22.915  0.00  0.00    -0.204 OA
ATOM     19  O   UNL d   1     -49.857  15.806  23.697  0.00  0.00    -0.204 OA
ATOM     20  C   UNL d   1     -51.064  15.601  23.496  0.00  0.00     0.164 C 
ENDBRANCH   1  17
TORSDOF 3
ENDMDL
MODEL 4
REMARK VINA RESULT:      -6.0      8.692      9.646
REMARK  3 active torsions:
REMARK  status: ('A' for Active; 'I' for Inactive)
REMARK    1  A    between atoms: N_2  and  S_1 
REMARK    2  A    between atoms: C_3  and  C_7 
REMARK       I    between atoms: N_4  and  C_3 
REMARK    3  A    between atoms: C_13  and  N_4 
ROOT
ATOM      1  N   UNL d   1     -40.736  15.390  17.755  0.00  0.00    -0.233 N 
ATOM      2  C   UNL d   1     -40.374  14.894  19.273  0.00  0.00     0.061 A 
ATOM      3  C   UNL d   1     -40.547  14.601  17.900  0.00  0.00     0.091 A 
ATOM      4  C   UNL d   1     -40.743  15.922  18.367  0.00  0.00     0.091 A 
ATOM      5  C   UNL d   1     -40.563  15.683  19.128  0.00  0.00     0.025 A 
ATOM      6  C   UNL d   1     -40.365  14.346  18.656  0.00  0.00     0.025 A 
ENDROOT
BRANCH   2   7
ATOM      7  C   UNL d   1     -40.190  14.642  20.044  0.00  0.00     0.279 C 
ATOM      8  N   UNL d   1     -39.407  14.711  20.316  0.00  0.00    -0.208 NA
ATOM      9  O   UNL d   1     -40.768  14.332  20.527  0.00  0.00    -0.265 OA
BRANCH   8  10
ATOM     10  C   UNL d   1     -39.218  14.462  21.083  0.00  0.00     0.085 A 
ATOM     11  C   UNL d   1     -38.970  13.676  21.219  0.00  0.00     0.019 A 
ATOM     12  C   UNL d   1     -38.783  13.435  21.989  0.00  0.00     0.002 A 
ATOM     13  C   UNL d   1     -38.840  13.964  22.618  0.00  0.00     0.000 A 
ATOM     14  C   UNL d   1     -39.088  14.746  22.483  0.00  0.00     0.002 A 
ATOM     15  C   UNL d   1     -38.653  13.719  23.385  0.00  0.00     0.000 C 
ATOM     16  C   UNL d   1     -39.275  14.987  21.717  0.00  0.00     0.019 A 
ENDBRANCH   8  10
ENDBRANCH   2   7
BRANCH   1  17
ATOM     17  S   UNL d   1     -40.918  15.634  16.985  0.00  0.00     0.252 S 
ATOM     18  O   UNL d   1     -41.690  15.359  17.084  0.00  0.00    -0.204 OA
ATOM     19  O   UNL d   1     -40.073  15.916  16.928  0.00  0.00    -0.204 OA
ATOM     20  C   UNL d   1     -41.095  15.876  16.225  0.00  0.00     0.164 C 
ENDBRANCH   1  17
TORSDOF 3
ENDMDL
MODEL 5
REMARK VINA RESULT:      -5.4      8.742      9.123
REMARK  3 active torsions:
REMARK  status: ('A' for Active; 'I' for Inactive)
REMARK    1  A    between atoms: N_2  and  S_1 
REMARK    2  A    between atoms: C_3  and  C_7 
REMARK       I    between atoms: N_4  and  C_3 
REMARK    3  A    between atoms: C_13  and  N_4 
ROOT
ATOM      1  N   UNL d   1     -38.696  13.794  21.974  0.00  0.00    -0.233 N 
ATOM      2  C   UNL d   1     -39.154  14.434  20.539  0.00  0.00     0.061 A 
ATOM      3  C   UNL d   1     -39.462  14.080  21.873  0.00  0.00     0.091 A 
ATOM      4  C   UNL d   1     -38.168  13.830  21.360  0.00  0.00     0.091 A 
ATOM      5  C   UNL d   1     -38.388  14.148  20.640  0.00  0.00     0.025 A 
ATOM      6  C   UNL d   1     -39.699  14.401  21.158  0.00  0.00     0.025 A 
ENDROOT
BRANCH   2   7
ATOM      7  C   UNL d   1     -39.387  14.759  19.809  0.00  0.00     0.279 C 
ATOM      8  N   UNL d   1     -40.108  14.520  19.472  0.00  0.00    -0.208 NA
ATOM      9  O   UNL d   1     -38.915  15.304  19.430  0.00  0.00    -0.265 OA
BRANCH   8  10
ATOM     10  C   UNL d   1     -40.345  14.840  18.745  0.00  0.00     0.085 A 
ATOM     11  C   UNL d   1     -40.670  15.609  18.713  0.00  0.00     0.019 A 
ATOM     12  C   UNL d   1     -40.905  15.922  17.982  0.00  0.00     0.002 A 
ATOM     13  C   UNL d   1     -40.819  15.481  17.292  0.00  0.00     0.000 A 
ATOM     14  C   UNL d   1     -40.495  14.716  17.324  0.00  0.00     0.002 A 
ATOM     15  C   UNL d   1     -41.054  15.796  16.565  0.00  0.00     0.000 C 
ATOM     16  C   UNL d   1     -40.261  14.403  18.051  0.00  0.00     0.019 A 
ENDBRANCH   8  10
ENDBRANCH   2   7
BRANCH   1  17
ATOM     17  S   UNL d   1     -38.471  13.471  22.703  0.00  0.00     0.252 S 
ATOM     18  O   UNL d   1     -38.331  12.746  22.335  0.00  0.00    -0.204 OA
ATOM     19  O   UNL d   1     -38.636  14.275  23.053  0.00  0.00    -0.204 OA
ATOM     20  C   UNL d   1     -38.249  13.156  23.423  0.00  0.00     0.164 C 
ENDBRANCH   1  17
TORSDOF 3
ENDMDL
