MODEL 1
REMARK VINA RESULT:      -6.4      0.000      0.000
REMARK  4 active torsions:
REMARK  status: ('A' for Active; 'I' for Inactive)
REMARK    1  A    between atoms: C_3  and  N_1 
REMARK       I    between atoms: C_4  and  N_1 
REMARK    2  A    between atoms: C_9  and  C_4 
REMARK    3  A    between atoms: C_5  and  C_10 
REMARK    4  A    between atoms: C_10  and  C_9 
ROOT
ATOM      1  N   UNL d   1     -48.517  14.913  22.470  0.00  0.00    -0.189 NA
ATOM      2  C   UNL d   1     -47.684  14.880  22.570  0.00  0.00     0.281 C 
ATOM      3  O   UNL d   1     -47.239  15.556  22.495  0.00  0.00    -0.265 OA
ENDROOT
BRANCH   1   4
ATOM      4  C   UNL d   1     -48.959  14.204  22.552  0.00  0.00     0.166 A 
ATOM      5  N   UNL d   1     -49.271  13.986  23.286  0.00  0.00    -0.225 NA
ATOM      6  C   UNL d   1     -49.702  13.304  23.385  0.00  0.00     0.107 A 
ATOM      7  C   UNL d   1     -49.835  12.819  22.760  0.00  0.00     0.054 A 
ATOM      8  C   UNL d   1     -49.541  12.994  21.997  0.00  0.00     0.011 A 
ATOM      9 BR   UNL d   1     -50.295  12.109  22.909  0.00  0.00    -0.048 Br
ATOM     10  C   UNL d   1     -49.111  13.673  21.893  0.00  0.00     0.039 A 
ENDBRANCH   1   4
BRANCH   2  11
ATOM     11  C   UNL d   1     -47.295  14.148  22.750  0.00  0.00     0.069 C 
BRANCH  11  12
ATOM     12  C   UNL d   1     -46.503  14.161  22.923  0.00  0.00     0.075 C 
BRANCH  12  13
ATOM     13  C   UNL d   1     -46.086  13.451  22.980  0.00  0.00     0.211 C 
ATOM     14  O   UNL d   1     -46.104  13.018  23.698  0.00  0.00    -0.644 OA
ATOM     15  O   UNL d   1     -45.669  13.180  22.354  0.00  0.00    -0.644 OA
ENDBRANCH  12  13
ENDBRANCH  11  12
ENDBRANCH   2  11
TORSDOF 4
ENDMDL
MODEL 2
REMARK VINA RESULT:      -6.2      1.514      1.965
REMARK  4 active torsions:
REMARK  status: ('A' for Active; 'I' for Inactive)
REMARK    1  A    between atoms: C_3  and  N_1 
REMARK       I    between atoms: C_4  and  N_1 
REMARK    2  A    between atoms: C_9  and  C_4 
REMARK    3  A    between atoms: C_5  and  C_10 
REMARK    4  A    between atoms: C_10  and  C_9 
ROOT
ATOM      1  N   UNL d   1     -48.903  13.361  21.702  0.00  0.00    -0.189 NA
ATOM      2  C   UNL d   1     -48.121  13.073  21.798  0.00  0.00     0.281 C 
ATOM      3  O   UNL d   1     -47.836  12.493  21.306  0.00  0.00    -0.265 OA
ENDROOT
BRANCH   1   4
ATOM      4  C   UNL d   1     -49.178  13.961  22.221  0.00  0.00     0.166 A 
ATOM      5  N   UNL d   1     -49.082  14.759  22.028  0.00  0.00    -0.225 NA
ATOM      6  C   UNL d   1     -49.341  15.354  22.517  0.00  0.00     0.107 A 
ATOM      7  C   UNL d   1     -49.702  15.174  23.211  0.00  0.00     0.054 A 
ATOM      8  C   UNL d   1     -49.824  14.383  23.451  0.00  0.00     0.011 A 
ATOM      9 BR   UNL d   1     -49.961  15.833  23.698  0.00  0.00    -0.048 Br
ATOM     10  C   UNL d   1     -49.567  13.786  22.967  0.00  0.00     0.039 A 
ENDBRANCH   1   4
BRANCH   2  11
ATOM     11  C   UNL d   1     -47.615  13.381  22.407  0.00  0.00     0.069 C 
BRANCH  11  12
ATOM     12  C   UNL d   1     -46.846  13.128  22.438  0.00  0.00     0.075 C 
BRANCH  12  13
ATOM     13  C   UNL d   1     -46.369  13.350  23.074  0.00  0.00     0.211 C 
ATOM     14  O   UNL d   1     -45.989  14.097  23.065  0.00  0.00    -0.644 OA
ATOM     15  O   UNL d   1     -46.271  12.853  23.693  0.00  0.00    -0.644 OA
ENDBRANCH  12  13
ENDBRANCH  11  12
ENDBRANCH   2  11
TORSDOF 4
ENDMDL
MODEL 3
REMARK VINA RESULT:      -6.0      2.478      3.418
REMARK  4 active torsions:
REMARK  status: ('A' for Active; 'I' for Inactive)
REMARK    1  A    between atoms: C_3  and  N_1 
REMARK       I    between atoms: C_4  and  N_1 
REMARK    2  A    between atoms: C_9  and  C_4 
REMARK    3  A    between atoms: C_5  and  C_10 
REMARK    4  A    between atoms: C_10  and  C_9 
ROOT
ATOM      1  N   UNL d   1     -49.034  13.530  21.300  0.00  0.00    -0.189 NA
ATOM      2  C   UNL d   1     -49.690  13.067  21.543  0.00  0.00     0.281 C 
ATOM      3  O   UNL d   1     -50.352  13.020  21.073  0.00  0.00    -0.265 OA
ENDROOT
BRANCH   1   4
ATOM      4  C   UNL d   1     -48.360  13.565  21.800  0.00  0.00     0.166 A 
ATOM      5  N   UNL d   1     -47.751  13.011  21.723  0.00  0.00    -0.225 NA
ATOM      6  C   UNL d   1     -47.091  13.029  22.197  0.00  0.00     0.107 A 
ATOM      7  C   UNL d   1     -47.016  13.596  22.760  0.00  0.00     0.054 A 
ATOM      8  C   UNL d   1     -47.604  14.178  22.878  0.00  0.00     0.011 A 
ATOM      9 BR   UNL d   1     -46.304  13.578  23.239  0.00  0.00    -0.048 Br
ATOM     10  C   UNL d   1     -48.264  14.165  22.408  0.00  0.00     0.039 A 
ENDBRANCH   1   4
BRANCH   2  11
ATOM     11  C   UNL d   1     -49.676  12.641  22.278  0.00  0.00     0.069 C 
BRANCH  11  12
ATOM     12  C   UNL d   1     -50.288  12.138  22.447  0.00  0.00     0.075 C 
BRANCH  12  13
ATOM     13  C   UNL d   1     -50.380  11.852  23.216  0.00  0.00     0.211 C 
ATOM     14  O   UNL d   1     -49.888  11.229  23.487  0.00  0.00    -0.644 OA
ATOM     15  O   UNL d   1     -50.935  12.168  23.697  0.00  0.00    -0.644 OA
ENDBRANCH  12  13
ENDBRANCH  11  12
ENDBRANCH   2  11
TORSDOF 4
ENDMDL
MODEL 4
REMARK VINA RESULT:      -5.9      2.362      3.145
REMARK  4 active torsions:
REMARK  status: ('A' for Active; 'I' for Inactive)
REMARK    1  A    between atoms: C_3  and  N_1 
REMARK       I    between atoms: C_4  and  N_1 
REMARK    2  A    between atoms: C_9  and  C_4 
REMARK    3  A    between atoms: C_5  and  C_10 
REMARK    4  A    between atoms: C_10  and  C_9 
ROOT
ATOM      1  N   UNL d   1     -50.209  12.564  21.939  0.00  0.00    -0.189 NA
ATOM      2  C   UNL d   1     -50.366  13.388  21.941  0.00  0.00     0.281 C 
ATOM      3  O   UNL d   1     -50.979  13.687  21.499  0.00  0.00    -0.265 OA
ENDROOT
BRANCH   1   4
ATOM      4  C   UNL d   1     -49.572  12.275  22.403  0.00  0.00     0.166 A 
ATOM      5  N   UNL d   1     -48.813  12.211  22.080  0.00  0.00    -0.225 NA
ATOM      6  C   UNL d   1     -48.184  11.934  22.512  0.00  0.00     0.107 A 
ATOM      7  C   UNL d   1     -48.288  11.712  23.277  0.00  0.00     0.054 A 
ATOM      8  C   UNL d   1     -49.035  11.757  23.649  0.00  0.00     0.011 A 
ATOM      9 BR   UNL d   1     -47.596  11.424  23.697  0.00  0.00    -0.048 Br
ATOM     10  C   UNL d   1     -49.666  12.033  23.222  0.00  0.00     0.039 A 
ENDBRANCH   1   4
BRANCH   2  11
ATOM     11  C   UNL d   1     -49.892  13.921  22.401  0.00  0.00     0.069 C 
BRANCH  11  12
ATOM     12  C   UNL d   1     -50.062  14.713  22.376  0.00  0.00     0.075 C 
BRANCH  12  13
ATOM     13  C   UNL d   1     -49.628  15.238  22.842  0.00  0.00     0.211 C 
ATOM     14  O   UNL d   1     -48.891  15.525  22.565  0.00  0.00    -0.644 OA
ATOM     15  O   UNL d   1     -49.912  15.470  23.554  0.00  0.00    -0.644 OA
ENDBRANCH  12  13
ENDBRANCH  11  12
ENDBRANCH   2  11
TORSDOF 4
ENDMDL
MODEL 5
REMARK VINA RESULT:      -5.5      1.708      2.593
REMARK  4 active torsions:
REMARK  status: ('A' for Active; 'I' for Inactive)
REMARK    1  A    between atoms: C_3  and  N_1 
REMARK       I    between atoms: C_4  and  N_1 
REMARK    2  A    between atoms: C_9  and  C_4 
REMARK    3  A    between atoms: C_5  and  C_10 
REMARK    4  A    between atoms: C_10  and  C_9 
ROOT
ATOM      1  N   UNL d   1     -47.249  14.079  22.558  0.00  0.00    -0.189 NA
ATOM      2  C   UNL d   1     -47.701  14.786  22.570  0.00  0.00     0.281 C 
ATOM      3  O   UNL d   1     -47.345  15.499  22.412  0.00  0.00    -0.265 OA
ENDROOT
BRANCH   1   4
ATOM      4  C   UNL d   1     -47.636  13.352  22.724  0.00  0.00     0.166 A 
ATOM      5  N   UNL d   1     -47.639  13.044  23.492  0.00  0.00    -0.225 NA
ATOM      6  C   UNL d   1     -48.007  12.344  23.673  0.00  0.00     0.107 A 
ATOM      7  C   UNL d   1     -48.382  11.927  23.098  0.00  0.00     0.054 A 
ATOM      8  C   UNL d   1     -48.408  12.196  22.307  0.00  0.00     0.011 A 
ATOM      9 BR   UNL d   1     -48.758  11.192  23.333  0.00  0.00    -0.048 Br
ATOM     10  C   UNL d   1     -48.042  12.894  22.121  0.00  0.00     0.039 A 
ENDBRANCH   1   4
BRANCH   2  11
ATOM     11  C   UNL d   1     -48.531  14.770  22.747  0.00  0.00     0.069 C 
BRANCH  11  12
ATOM     12  C   UNL d   1     -48.944  15.467  22.733  0.00  0.00     0.075 C 
BRANCH  12  13
ATOM     13  C   UNL d   1     -49.746  15.470  22.930  0.00  0.00     0.211 C 
ATOM     14  O   UNL d   1     -50.321  15.445  22.321  0.00  0.00    -0.644 OA
ATOM     15  O   UNL d   1     -49.970  15.496  23.698  0.00  0.00    -0.644 OA
ENDBRANCH  12  13
ENDBRANCH  11  12
ENDBRANCH   2  11
TORSDOF 4
ENDMDL
MODEL 6
REMARK VINA RESULT:      -5.5      2.061      2.984
REMARK  4 active torsions:
REMARK  status: ('A' for Active; 'I' for Inactive)
REMARK    1  A    between atoms: C_3  and  N_1 
REMARK       I    between atoms: C_4  and  N_1 
REMARK    2  A    between atoms: C_9  and  C_4 
REMARK    3  A    between atoms: C_5  and  C_10 
REMARK    4  A    between atoms: C_10  and  C_9 
ROOT
ATOM      1  N   UNL d   1     -47.591  14.573  22.909  0.00  0.00    -0.189 NA
ATOM      2  C   UNL d   1     -48.315  14.578  22.484  0.00  0.00     0.281 C 
ATOM      3  O   UNL d   1     -48.722  15.273  22.380  0.00  0.00    -0.265 OA
ENDROOT
BRANCH   1   4
ATOM      4  C   UNL d   1     -47.186  13.844  23.006  0.00  0.00     0.166 A 
ATOM      5  N   UNL d   1     -47.420  13.307  23.589  0.00  0.00    -0.225 NA
ATOM      6  C   UNL d   1     -47.041  12.597  23.698  0.00  0.00     0.107 A 
ATOM      7  C   UNL d   1     -46.419  12.399  23.231  0.00  0.00     0.054 A 
ATOM      8  C   UNL d   1     -46.143  12.907  22.627  0.00  0.00     0.011 A 
ATOM      9 BR   UNL d   1     -46.047  11.639  23.380  0.00  0.00    -0.048 Br
ATOM     10  C   UNL d   1     -46.518  13.617  22.515  0.00  0.00     0.039 A 
ENDBRANCH   1   4
BRANCH   2  11
ATOM     11  C   UNL d   1     -48.633  13.862  22.157  0.00  0.00     0.069 C 
BRANCH  11  12
ATOM     12  C   UNL d   1     -49.322  13.901  21.734  0.00  0.00     0.075 C 
BRANCH  12  13
ATOM     13  C   UNL d   1     -49.703  13.204  21.509  0.00  0.00     0.211 C 
ATOM     14  O   UNL d   1     -50.398  12.964  21.912  0.00  0.00    -0.644 OA
ATOM     15  O   UNL d   1     -49.409  12.762  20.911  0.00  0.00    -0.644 OA
ENDBRANCH  12  13
ENDBRANCH  11  12
ENDBRANCH   2  11
TORSDOF 4
ENDMDL
MODEL 7
REMARK VINA RESULT:      -5.5      2.524      3.701
REMARK  4 active torsions:
REMARK  status: ('A' for Active; 'I' for Inactive)
REMARK    1  A    between atoms: C_3  and  N_1 
REMARK       I    between atoms: C_4  and  N_1 
REMARK    2  A    between atoms: C_9  and  C_4 
REMARK    3  A    between atoms: C_5  and  C_10 
REMARK    4  A    between atoms: C_10  and  C_9 
ROOT
ATOM      1  N   UNL d   1     -47.863  11.698  23.698  0.00  0.00    -0.189 NA
ATOM      2  C   UNL d   1     -48.624  11.570  23.368  0.00  0.00     0.281 C 
ATOM      3  O   UNL d   1     -49.085  10.956  23.632  0.00  0.00    -0.265 OA
ENDROOT
BRANCH   1   4
ATOM      4  C   UNL d   1     -47.402  12.338  23.411  0.00  0.00     0.166 A 
ATOM      5  N   UNL d   1     -47.542  13.109  23.677  0.00  0.00    -0.225 NA
ATOM      6  C   UNL d   1     -47.108  13.741  23.411  0.00  0.00     0.107 A 
ATOM      7  C   UNL d   1     -46.521  13.628  22.874  0.00  0.00     0.054 A 
ATOM      8  C   UNL d   1     -46.341  12.869  22.574  0.00  0.00     0.011 A 
ATOM      9 BR   UNL d   1     -46.087  14.324  22.620  0.00  0.00    -0.048 Br
ATOM     10  C   UNL d   1     -46.772  12.235  22.836  0.00  0.00     0.039 A 
ENDBRANCH   1   4
BRANCH   2  11
ATOM     11  C   UNL d   1     -48.924  12.077  22.756  0.00  0.00     0.069 C 
BRANCH  11  12
ATOM     12  C   UNL d   1     -49.653  11.915  22.441  0.00  0.00     0.075 C 
BRANCH  12  13
ATOM     13  C   UNL d   1     -50.005  12.458  21.928  0.00  0.00     0.211 C 
ATOM     14  O   UNL d   1     -49.726  12.523  21.140  0.00  0.00    -0.644 OA
ATOM     15  O   UNL d   1     -50.608  12.917  22.184  0.00  0.00    -0.644 OA
ENDBRANCH  12  13
ENDBRANCH  11  12
ENDBRANCH   2  11
TORSDOF 4
ENDMDL
