MODEL 1
REMARK VINA RESULT:      -4.9      0.000      0.000
REMARK  4 active torsions:
REMARK  status: ('A' for Active; 'I' for Inactive)
REMARK    1  A    between atoms: N_2  and  S_1 
REMARK    2  A    between atoms: C_5  and  S_1 
REMARK    3  A    between atoms: C_4  and  N_2 
REMARK    4  A    between atoms: C_7  and  C_3 
ROOT
ATOM      1  S   UNL d   1      57.616  -0.315  30.496  0.00  0.00     0.285 S 
ATOM      2  O   UNL d   1      57.468   0.487  30.278  0.00  0.00    -0.198 OA
ATOM      3  O   UNL d   1      57.767  -1.125  30.711  0.00  0.00    -0.198 OA
ENDROOT
BRANCH   1   4
ATOM      4  N   UNL d   1      57.790  -0.501  29.691  0.00  0.00    -0.158 NA
BRANCH   4   5
ATOM      5  C   UNL d   1      58.573  -0.697  29.445  0.00  0.00     0.094 A 
ATOM      6  C   UNL d   1      58.796  -1.451  29.430  0.00  0.00     0.018 A 
ATOM      7  C   UNL d   1      59.551  -1.694  29.196  0.00  0.00     0.002 A 
ATOM      8  C   UNL d   1      58.243  -1.976  29.656  0.00  0.00     0.002 C 
ATOM      9  C   UNL d   1      60.109  -1.096  28.962  0.00  0.00     0.000 A 
ATOM     10  C   UNL d   1      59.841  -0.344  28.993  0.00  0.00     0.002 A 
ATOM     11  C   UNL d   1      60.877  -1.231  28.716  0.00  0.00     0.000 C 
ATOM     12  C   UNL d   1      59.084  -0.093  29.227  0.00  0.00     0.018 A 
ATOM     13  C   UNL d   1      58.878   0.682  29.234  0.00  0.00     0.002 C 
ENDBRANCH   4   5
ENDBRANCH   1   4
BRANCH   1  14
ATOM     14  C   UNL d   1      57.440  -0.124  31.310  0.00  0.00     0.106 A 
ATOM     15  C   UNL d   1      56.813  -0.538  31.669  0.00  0.00     0.020 A 
ATOM     16  C   UNL d   1      56.630  -0.366  32.455  0.00  0.00     0.076 A 
ATOM     17  C   UNL d   1      57.055   0.202  32.876  0.00  0.00     0.064 A 
ATOM     18  C   UNL d   1      57.672   0.608  32.519  0.00  0.00     0.012 A 
ATOM     19 CL   UNL d   1      56.858   0.365  33.670  0.00  0.00    -0.082 Cl
ATOM     20  C   UNL d   1      57.885   0.471  31.751  0.00  0.00     0.014 A 
BRANCH  16  21
ATOM     21  C   UNL d   1      55.999  -0.781  32.819  0.00  0.00     0.212 C 
ATOM     22  O   UNL d   1      56.208  -1.510  33.108  0.00  0.00    -0.644 OA
ATOM     23  O   UNL d   1      55.217  -0.433  32.863  0.00  0.00    -0.644 OA
ENDBRANCH  16  21
ENDBRANCH   1  14
TORSDOF 4
ENDMDL
