MODEL 1
REMARK VINA RESULT:      -4.8      0.000      0.000
REMARK  3 active torsions:
REMARK  status: ('A' for Active; 'I' for Inactive)
REMARK    1  A    between atoms: C_7  and  C_1 
REMARK    2  A    between atoms: O_14  and  C_7 
REMARK    3  A    between atoms: C_17  and  O_14 
ROOT
ATOM      1  C   UNL d   1      58.015  -0.236  30.671  0.00  0.00     0.127 A 
ATOM      2  C   UNL d   1      58.487   0.376  30.943  0.00  0.00     0.305 A 
ATOM      3  C   UNL d   1      57.423  -0.542  31.156  0.00  0.00     0.013 A 
ATOM      4  C   UNL d   1      57.301  -0.236  31.912  0.00  0.00     0.023 A 
ATOM      5  O   UNL d   1      58.365   0.682  31.699  0.00  0.00    -0.273 OA
ATOM      6  C   UNL d   1      57.773   0.376  32.184  0.00  0.00     0.103 A 
ATOM      7  C   UNL d   1      56.716  -0.542  32.383  0.00  0.00     0.002 A 
ATOM      8  O   UNL d   1      59.089   0.682  30.442  0.00  0.00    -0.259 OA
ATOM      9  C   UNL d   1      57.659   0.682  32.926  0.00  0.00     0.025 A 
ATOM     10  C   UNL d   1      56.595  -0.236  33.139  0.00  0.00     0.000 A 
ATOM     11  C   UNL d   1      57.066   0.376  33.411  0.00  0.00     0.002 A 
ATOM     12  C   UNL d   1      56.240  -1.160  32.109  0.00  0.00     0.000 A 
ATOM     13  C   UNL d   1      56.002  -0.542  33.625  0.00  0.00     0.000 A 
ATOM     14  C   UNL d   1      55.646  -1.476  32.578  0.00  0.00     0.000 A 
ATOM     15  C   UNL d   1      55.523  -1.163  33.349  0.00  0.00     0.000 A 
ENDROOT
BRANCH   1  16
ATOM     16  C   UNL d   1      58.133  -0.558  29.892  0.00  0.00     0.305 C 
ATOM     17  O   UNL d   1      57.812  -0.187  29.238  0.00  0.00    -0.259 OA
BRANCH  16  18
ATOM     18  O   UNL d   1      58.568  -1.237  29.807  0.00  0.00    -0.271 OA
BRANCH  18  19
ATOM     19  C   UNL d   1      58.511  -1.675  29.110  0.00  0.00     0.126 C 
ATOM     20  C   UNL d   1      58.918  -2.451  29.004  0.00  0.00     0.029 C 
ENDBRANCH  18  19
ENDBRANCH  16  18
ENDBRANCH   1  16
TORSDOF 3
ENDMDL
MODEL 2
REMARK VINA RESULT:      -3.3      0.763      1.185
REMARK  3 active torsions:
REMARK  status: ('A' for Active; 'I' for Inactive)
REMARK    1  A    between atoms: C_7  and  C_1 
REMARK    2  A    between atoms: O_14  and  C_7 
REMARK    3  A    between atoms: C_17  and  O_14 
ROOT
ATOM      1  C   UNL d   1      58.561  -0.877  29.870  0.00  0.00     0.127 A 
ATOM      2  C   UNL d   1      59.123  -0.287  29.950  0.00  0.00     0.305 A 
ATOM      3  C   UNL d   1      57.958  -0.946  30.429  0.00  0.00     0.013 A 
ATOM      4  C   UNL d   1      57.917  -0.425  31.067  0.00  0.00     0.023 A 
ATOM      5  O   UNL d   1      59.082   0.234  30.588  0.00  0.00    -0.273 OA
ATOM      6  C   UNL d   1      58.479   0.165  31.146  0.00  0.00     0.103 A 
ATOM      7  C   UNL d   1      57.321  -0.499  31.611  0.00  0.00     0.002 A 
ATOM      8  O   UNL d   1      59.734  -0.224  29.377  0.00  0.00    -0.259 OA
ATOM      9  C   UNL d   1      58.444   0.681  31.770  0.00  0.00     0.025 A 
ATOM     10  C   UNL d   1      57.279   0.022  32.249  0.00  0.00     0.000 A 
ATOM     11  C   UNL d   1      57.841   0.613  32.329  0.00  0.00     0.002 A 
ATOM     12  C   UNL d   1      56.753  -1.096  31.531  0.00  0.00     0.000 A 
ATOM     13  C   UNL d   1      56.677  -0.046  32.808  0.00  0.00     0.000 A 
ATOM     14  C   UNL d   1      56.147  -1.178  32.077  0.00  0.00     0.000 A 
ATOM     15  C   UNL d   1      56.106  -0.646  32.727  0.00  0.00     0.000 A 
ENDROOT
BRANCH   1  16
ATOM     16  C   UNL d   1      58.596  -1.420  29.216  0.00  0.00     0.305 C 
ATOM     17  O   UNL d   1      58.428  -1.165  28.457  0.00  0.00    -0.259 OA
BRANCH  16  18
ATOM     18  O   UNL d   1      58.797  -2.193  29.353  0.00  0.00    -0.271 OA
BRANCH  18  19
ATOM     19  C   UNL d   1      58.980  -2.688  28.719  0.00  0.00     0.126 C 
ATOM     20  C   UNL d   1      59.049  -3.563  28.805  0.00  0.00     0.029 C 
ENDBRANCH  18  19
ENDBRANCH  16  18
ENDBRANCH   1  16
TORSDOF 3
ENDMDL
MODEL 3
REMARK VINA RESULT:      -3.1      8.419      9.669
REMARK  3 active torsions:
REMARK  status: ('A' for Active; 'I' for Inactive)
REMARK    1  A    between atoms: C_7  and  C_1 
REMARK    2  A    between atoms: O_14  and  C_7 
REMARK    3  A    between atoms: C_17  and  O_14 
ROOT
ATOM      1  C   UNL d   1      59.998  -8.192  35.334  0.00  0.00     0.127 A 
ATOM      2  C   UNL d   1      59.246  -8.409  35.575  0.00  0.00     0.305 A 
ATOM      3  C   UNL d   1      60.276  -8.432  34.595  0.00  0.00     0.013 A 
ATOM      4  C   UNL d   1      59.802  -8.889  34.098  0.00  0.00     0.023 A 
ATOM      5  O   UNL d   1      58.773  -8.866  35.078  0.00  0.00    -0.273 OA
ATOM      6  C   UNL d   1      59.050  -9.106  34.339  0.00  0.00     0.103 A 
ATOM      7  C   UNL d   1      60.082  -9.120  33.373  0.00  0.00     0.002 A 
ATOM      8  O   UNL d   1      58.971  -8.161  36.329  0.00  0.00    -0.259 OA
ATOM      9  C   UNL d   1      58.579  -9.555  33.856  0.00  0.00     0.025 A 
ATOM     10  C   UNL d   1      59.609  -9.577  32.876  0.00  0.00     0.000 A 
ATOM     11  C   UNL d   1      58.857  -9.794  33.117  0.00  0.00     0.002 A 
ATOM     12  C   UNL d   1      60.842  -8.901  33.129  0.00  0.00     0.000 A 
ATOM     13  C   UNL d   1      59.886  -9.817  32.137  0.00  0.00     0.000 A 
ATOM     14  C   UNL d   1      61.133  -9.131  32.398  0.00  0.00     0.000 A 
ATOM     15  C   UNL d   1      60.650  -9.596  31.892  0.00  0.00     0.000 A 
ENDROOT
BRANCH   1  16
ATOM     16  C   UNL d   1      60.494  -7.721  35.840  0.00  0.00     0.305 C 
ATOM     17  O   UNL d   1      61.054  -8.077  36.319  0.00  0.00    -0.259 OA
BRANCH  16  18
ATOM     18  O   UNL d   1      60.405  -6.915  35.842  0.00  0.00    -0.271 OA
BRANCH  18  19
ATOM     19  C   UNL d   1      60.955  -6.443  36.236  0.00  0.00     0.126 C 
ATOM     20  C   UNL d   1      60.929  -5.562  36.207  0.00  0.00     0.029 C 
ENDBRANCH  18  19
ENDBRANCH  16  18
ENDBRANCH   1  16
TORSDOF 3
ENDMDL
MODEL 4
REMARK VINA RESULT:      -3.1      1.327      4.079
REMARK  3 active torsions:
REMARK  status: ('A' for Active; 'I' for Inactive)
REMARK    1  A    between atoms: C_7  and  C_1 
REMARK    2  A    between atoms: O_14  and  C_7 
REMARK    3  A    between atoms: C_17  and  O_14 
ROOT
ATOM      1  C   UNL d   1      57.378  -0.370  31.377  0.00  0.00     0.127 A 
ATOM      2  C   UNL d   1      57.086  -1.133  31.307  0.00  0.00     0.305 A 
ATOM      3  C   UNL d   1      57.977  -0.114  30.871  0.00  0.00     0.013 A 
ATOM      4  C   UNL d   1      58.284  -0.619  30.297  0.00  0.00     0.023 A 
ATOM      5  O   UNL d   1      57.394  -1.637  30.732  0.00  0.00    -0.273 OA
ATOM      6  C   UNL d   1      57.993  -1.381  30.227  0.00  0.00     0.103 A 
ATOM      7  C   UNL d   1      58.873  -0.360  29.803  0.00  0.00     0.002 A 
ATOM      8  O   UNL d   1      56.475  -1.386  31.826  0.00  0.00    -0.259 OA
ATOM      9  C   UNL d   1      58.290  -1.883  29.664  0.00  0.00     0.025 A 
ATOM     10  C   UNL d   1      59.181  -0.865  29.229  0.00  0.00     0.000 A 
ATOM     11  C   UNL d   1      58.889  -1.627  29.159  0.00  0.00     0.002 A 
ATOM     12  C   UNL d   1      59.168   0.410  29.874  0.00  0.00     0.000 A 
ATOM     13  C   UNL d   1      59.780  -0.609  28.723  0.00  0.00     0.000 A 
ATOM     14  C   UNL d   1      59.764   0.681  29.379  0.00  0.00     0.000 A 
ATOM     15  C   UNL d   1      60.077   0.165  28.794  0.00  0.00     0.000 A 
ENDROOT
BRANCH   1  16
ATOM     16  C   UNL d   1      57.066   0.158  31.967  0.00  0.00     0.305 C 
ATOM     17  O   UNL d   1      56.405   0.613  31.808  0.00  0.00    -0.259 OA
BRANCH  16  18
ATOM     18  O   UNL d   1      57.432   0.205  32.688  0.00  0.00    -0.271 OA
BRANCH  18  19
ATOM     19  C   UNL d   1      57.044   0.561  33.323  0.00  0.00     0.126 C 
ATOM     20  C   UNL d   1      57.430   0.682  34.107  0.00  0.00     0.029 C 
ENDBRANCH  18  19
ENDBRANCH  16  18
ENDBRANCH   1  16
TORSDOF 3
ENDMDL
MODEL 5
REMARK VINA RESULT:      -2.6      1.328      3.598
REMARK  3 active torsions:
REMARK  status: ('A' for Active; 'I' for Inactive)
REMARK    1  A    between atoms: C_7  and  C_1 
REMARK    2  A    between atoms: O_14  and  C_7 
REMARK    3  A    between atoms: C_17  and  O_14 
ROOT
ATOM      1  C   UNL d   1      57.522   0.180  31.868  0.00  0.00     0.127 A 
ATOM      2  C   UNL d   1      58.074   0.515  32.372  0.00  0.00     0.305 A 
ATOM      3  C   UNL d   1      57.729   0.012  31.088  0.00  0.00     0.013 A 
ATOM      4  C   UNL d   1      58.487   0.180  30.811  0.00  0.00     0.023 A 
ATOM      5  O   UNL d   1      58.832   0.682  32.095  0.00  0.00    -0.273 OA
ATOM      6  C   UNL d   1      59.039   0.515  31.315  0.00  0.00     0.103 A 
ATOM      7  C   UNL d   1      58.683   0.012  30.042  0.00  0.00     0.002 A 
ATOM      8  O   UNL d   1      57.855   0.682  33.166  0.00  0.00    -0.259 OA
ATOM      9  C   UNL d   1      59.787   0.682  31.049  0.00  0.00     0.025 A 
ATOM     10  C   UNL d   1      59.442   0.180  29.765  0.00  0.00     0.000 A 
ATOM     11  C   UNL d   1      59.994   0.515  30.269  0.00  0.00     0.002 A 
ATOM     12  C   UNL d   1      58.125  -0.326  29.533  0.00  0.00     0.000 A 
ATOM     13  C   UNL d   1      59.649   0.013  28.984  0.00  0.00     0.000 A 
ATOM     14  C   UNL d   1      58.315  -0.499  28.754  0.00  0.00     0.000 A 
ATOM     15  C   UNL d   1      59.088  -0.328  28.473  0.00  0.00     0.000 A 
ENDROOT
BRANCH   1  16
ATOM     16  C   UNL d   1      56.736   0.003  32.145  0.00  0.00     0.305 C 
ATOM     17  O   UNL d   1      56.193   0.604  32.261  0.00  0.00    -0.259 OA
BRANCH  16  18
ATOM     18  O   UNL d   1      56.533  -0.767  32.294  0.00  0.00    -0.271 OA
BRANCH  18  19
ATOM     19  C   UNL d   1      55.893  -0.935  32.786  0.00  0.00     0.126 C 
ATOM     20  C   UNL d   1      55.642  -1.760  32.973  0.00  0.00     0.029 C 
ENDBRANCH  18  19
ENDBRANCH  16  18
ENDBRANCH   1  16
TORSDOF 3
ENDMDL
MODEL 6
REMARK VINA RESULT:      -2.1      3.172      4.629
REMARK  3 active torsions:
REMARK  status: ('A' for Active; 'I' for Inactive)
REMARK    1  A    between atoms: C_7  and  C_1 
REMARK    2  A    between atoms: O_14  and  C_7 
REMARK    3  A    between atoms: C_17  and  O_14 
ROOT
ATOM      1  C   UNL d   1      59.518  -0.559  29.273  0.00  0.00     0.127 A 
ATOM      2  C   UNL d   1      58.702  -0.537  29.205  0.00  0.00     0.305 A 
ATOM      3  C   UNL d   1      59.916  -1.276  29.190  0.00  0.00     0.013 A 
ATOM      4  C   UNL d   1      59.499  -1.971  29.039  0.00  0.00     0.023 A 
ATOM      5  O   UNL d   1      58.285  -1.232  29.054  0.00  0.00    -0.273 OA
ATOM      6  C   UNL d   1      58.683  -1.949  28.971  0.00  0.00     0.103 A 
ATOM      7  C   UNL d   1      59.897  -2.673  28.959  0.00  0.00     0.002 A 
ATOM      8  O   UNL d   1      58.304   0.198  29.291  0.00  0.00    -0.259 OA
ATOM      9  C   UNL d   1      58.266  -2.629  28.822  0.00  0.00     0.025 A 
ATOM     10  C   UNL d   1      59.480  -3.368  28.808  0.00  0.00     0.000 A 
ATOM     11  C   UNL d   1      58.665  -3.346  28.740  0.00  0.00     0.002 A 
ATOM     12  C   UNL d   1      60.722  -2.695  29.028  0.00  0.00     0.000 A 
ATOM     13  C   UNL d   1      59.878  -4.086  28.725  0.00  0.00     0.000 A 
ATOM     14  C   UNL d   1      61.133  -3.400  28.948  0.00  0.00     0.000 A 
ATOM     15  C   UNL d   1      60.707  -4.108  28.794  0.00  0.00     0.000 A 
ENDROOT
BRANCH   1  16
ATOM     16  C   UNL d   1      59.957   0.154  29.429  0.00  0.00     0.305 C 
ATOM     17  O   UNL d   1      60.250   0.603  28.812  0.00  0.00    -0.259 OA
BRANCH  16  18
ATOM     18  O   UNL d   1      60.080   0.382  30.197  0.00  0.00    -0.271 OA
BRANCH  18  19
ATOM     19  C   UNL d   1      60.822   0.659  30.428  0.00  0.00     0.126 C 
ATOM     20  C   UNL d   1      61.097   0.635  31.266  0.00  0.00     0.029 C 
ENDBRANCH  18  19
ENDBRANCH  16  18
ENDBRANCH   1  16
TORSDOF 3
ENDMDL
