MODEL 1
REMARK VINA RESULT:       9.4      0.000      0.000
REMARK  2 active torsions:
REMARK  status: ('A' for Active; 'I' for Inactive)
REMARK    1  A    between atoms: C_7  and  C_1 
REMARK    2  A    between atoms: C_11  and  C_7 
ROOT
ATOM      1  C   UNL d   1      45.252 -13.825  44.447  0.00  0.00     0.116 A 
ATOM      2  N   UNL d   1      46.101 -14.950  44.609  0.00  0.00    -0.152 NA
ATOM      3  N   UNL d   1      44.672 -15.090  44.782  0.00  0.00    -0.152 NA
ATOM      4  C   UNL d   1      45.982 -14.159  44.447  0.00  0.00     0.288 A 
ATOM      5  C   UNL d   1      44.591 -14.291  44.615  0.00  0.00     0.288 A 
ATOM      6  C   UNL d   1      45.423 -15.430  44.782  0.00  0.00     0.374 A 
ATOM      7  O   UNL d   1      43.820 -13.964  44.621  0.00  0.00    -0.265 OA
ATOM      8  O   UNL d   1      46.646 -13.677  44.275  0.00  0.00    -0.265 OA
ATOM      9  O   UNL d   1      45.483 -16.243  44.954  0.00  0.00    -0.242 OA
ENDROOT
BRANCH   1  10
ATOM     10  C   UNL d   1      45.153 -13.009  44.278  0.00  0.00     0.010 C 
BRANCH  10  11
ATOM     11  C   UNL d   1      45.069 -12.778  43.490  0.00  0.00     0.000 A 
ATOM     12  C   UNL d   1      44.323 -12.734  43.158  0.00  0.00     0.002 A 
ATOM     13  C   UNL d   1      44.239 -12.506  42.379  0.00  0.00     0.030 A 
ATOM     14  C   UNL d   1      44.909 -12.319  41.927  0.00  0.00     0.140 A 
ATOM     15  C   UNL d   1      45.655 -12.362  42.259  0.00  0.00     0.030 A 
ATOM     16  F   UNL d   1      44.848 -12.080  41.120  0.00  0.00    -0.204 F 
ATOM     17  C   UNL d   1      45.739 -12.590  43.037  0.00  0.00     0.002 A 
ENDBRANCH  10  11
ENDBRANCH   1  10
TORSDOF 2
ENDMDL
