MODEL 1
REMARK VINA RESULT:      13.5      0.000      0.000
REMARK  4 active torsions:
REMARK  status: ('A' for Active; 'I' for Inactive)
REMARK    1  A    between atoms: C_2  and  N_1 
REMARK    2  A    between atoms: C_9  and  C_10 
REMARK       I    between atoms: N_11  and  C_9 
REMARK    3  A    between atoms: C_21  and  N_11 
REMARK    4  A    between atoms: C_20  and  C_21 
ROOT
ATOM      1  C   UNL d   1      45.011 -15.191  44.584  0.00  0.00     0.279 C 
ATOM      2  N   UNL d   1      45.451 -15.845  44.352  0.00  0.00    -0.206 NA
ATOM      3  O   UNL d   1      44.279 -15.292  44.946  0.00  0.00    -0.265 OA
ENDROOT
BRANCH   1   4
ATOM      4  C   UNL d   1      45.304 -14.426  44.454  0.00  0.00     0.059 A 
ATOM      5  C   UNL d   1      45.002 -13.978  43.823  0.00  0.00     0.028 A 
ATOM      6  C   UNL d   1      45.302 -13.218  43.704  0.00  0.00     0.127 A 
ATOM      7  C   UNL d   1      45.892 -12.908  44.204  0.00  0.00     0.022 A 
ATOM      8  C   UNL d   1      46.181 -13.365  44.825  0.00  0.00     0.002 A 
ATOM      9  C   UNL d   1      46.187 -12.153  44.083  0.00  0.00     0.002 C 
ATOM     10  C   UNL d   1      45.890 -14.125  44.955  0.00  0.00     0.005 A 
BRANCH   6  11
ATOM     11  N   UNL d   1      45.012 -12.758  43.079  0.00  0.00    -0.114 N 
ATOM     12  O   UNL d   1      44.302 -12.346  43.160  0.00  0.00    -0.532 OA
ATOM     13  O   UNL d   1      45.427 -12.706  42.369  0.00  0.00    -0.532 OA
ENDBRANCH   6  11
ENDBRANCH   1   4
BRANCH   2  14
ATOM     14  C   UNL d   1      45.165 -16.601  44.480  0.00  0.00     0.102 C 
BRANCH  14  15
ATOM     15  C   UNL d   1      45.557 -17.250  44.160  0.00  0.00     0.019 A 
ATOM     16  C   UNL d   1      45.427 -17.460  43.372  0.00  0.00     0.003 A 
ATOM     17  C   UNL d   1      45.819 -18.112  43.044  0.00  0.00     0.019 A 
ATOM     18  C   UNL d   1      45.803 -18.447  42.299  0.00  0.00     0.021 A 
ATOM     19  C   UNL d   1      46.338 -18.547  43.512  0.00  0.00     0.081 A 
ATOM     20  C   UNL d   1      46.315 -19.094  42.299  0.00  0.00     0.082 A 
ATOM     21  C   UNL d   1      46.467 -19.591  41.660  0.00  0.00     0.021 C 
ATOM     22  N   UNL d   1      46.647 -19.157  43.050  0.00  0.00    -0.246 NA
ATOM     23  C   UNL d   1      46.469 -18.339  44.296  0.00  0.00     0.019 A 
ATOM     24  C   UNL d   1      46.078 -17.689  44.621  0.00  0.00     0.003 A 
ENDBRANCH  14  15
ENDBRANCH   2  14
TORSDOF 4
ENDMDL
MODEL 2
REMARK VINA RESULT:      13.7      2.078      5.125
REMARK  4 active torsions:
REMARK  status: ('A' for Active; 'I' for Inactive)
REMARK    1  A    between atoms: C_2  and  N_1 
REMARK    2  A    between atoms: C_9  and  C_10 
REMARK       I    between atoms: N_11  and  C_9 
REMARK    3  A    between atoms: C_21  and  N_11 
REMARK    4  A    between atoms: C_20  and  C_21 
ROOT
ATOM      1  C   UNL d   1      46.398 -18.326  44.211  0.00  0.00     0.279 C 
ATOM      2  N   UNL d   1      46.278 -17.516  44.143  0.00  0.00    -0.206 NA
ATOM      3  O   UNL d   1      46.459 -18.673  44.955  0.00  0.00    -0.265 OA
ENDROOT
BRANCH   1   4
ATOM      4  C   UNL d   1      46.460 -18.796  43.531  0.00  0.00     0.059 A 
ATOM      5  C   UNL d   1      46.393 -18.439  42.784  0.00  0.00     0.028 A 
ATOM      6  C   UNL d   1      46.456 -18.918  42.114  0.00  0.00     0.127 A 
ATOM      7  C   UNL d   1      46.583 -19.738  42.185  0.00  0.00     0.022 A 
ATOM      8  C   UNL d   1      46.647 -20.076  42.933  0.00  0.00     0.002 A 
ATOM      9  C   UNL d   1      46.645 -20.210  41.519  0.00  0.00     0.002 C 
ATOM     10  C   UNL d   1      46.586 -19.610  43.610  0.00  0.00     0.005 A 
BRANCH   6  11
ATOM     11  N   UNL d   1      46.392 -18.577  41.362  0.00  0.00    -0.114 N 
ATOM     12  O   UNL d   1      46.624 -17.796  41.237  0.00  0.00    -0.532 OA
ATOM     13  O   UNL d   1      46.095 -19.014  40.728  0.00  0.00    -0.532 OA
ENDBRANCH   6  11
ENDBRANCH   1   4
BRANCH   2  14
ATOM     14  C   UNL d   1      46.217 -17.050  44.812  0.00  0.00     0.102 C 
BRANCH  14  15
ATOM     15  C   UNL d   1      45.845 -16.316  44.771  0.00  0.00     0.019 A 
ATOM     16  C   UNL d   1      46.278 -15.650  44.547  0.00  0.00     0.003 A 
ATOM     17  C   UNL d   1      45.911 -14.908  44.504  0.00  0.00     0.019 A 
ATOM     18  C   UNL d   1      46.188 -14.167  44.303  0.00  0.00     0.021 A 
ATOM     19  C   UNL d   1      45.111 -14.844  44.687  0.00  0.00     0.081 A 
ATOM     20  C   UNL d   1      45.560 -13.635  44.361  0.00  0.00     0.082 A 
ATOM     21  C   UNL d   1      45.594 -12.826  44.208  0.00  0.00     0.021 C 
ATOM     22  N   UNL d   1      44.892 -14.054  44.599  0.00  0.00    -0.246 NA
ATOM     23  C   UNL d   1      44.678 -15.506  44.911  0.00  0.00     0.019 A 
ATOM     24  C   UNL d   1      45.046 -16.244  44.953  0.00  0.00     0.003 A 
ENDBRANCH  14  15
ENDBRANCH   2  14
TORSDOF 4
ENDMDL
MODEL 3
REMARK VINA RESULT:      14.5      1.787      5.248
REMARK  4 active torsions:
REMARK  status: ('A' for Active; 'I' for Inactive)
REMARK    1  A    between atoms: C_2  and  N_1 
REMARK    2  A    between atoms: C_9  and  C_10 
REMARK       I    between atoms: N_11  and  C_9 
REMARK    3  A    between atoms: C_21  and  N_11 
REMARK    4  A    between atoms: C_20  and  C_21 
ROOT
ATOM      1  C   UNL d   1      45.730 -17.128  44.415  0.00  0.00     0.279 C 
ATOM      2  N   UNL d   1      46.112 -16.401  44.419  0.00  0.00    -0.206 NA
ATOM      3  O   UNL d   1      45.118 -17.275  44.945  0.00  0.00    -0.265 OA
ENDROOT
BRANCH   1   4
ATOM      4  C   UNL d   1      45.959 -17.715  43.877  0.00  0.00     0.059 A 
ATOM      5  C   UNL d   1      45.887 -18.514  44.093  0.00  0.00     0.028 A 
ATOM      6  C   UNL d   1      46.119 -19.090  43.548  0.00  0.00     0.127 A 
ATOM      7  C   UNL d   1      46.417 -18.875  42.800  0.00  0.00     0.022 A 
ATOM      8  C   UNL d   1      46.483 -18.079  42.602  0.00  0.00     0.002 A 
ATOM      9  C   UNL d   1      46.646 -19.449  42.263  0.00  0.00     0.002 C 
ATOM     10  C   UNL d   1      46.255 -17.494  43.136  0.00  0.00     0.005 A 
BRANCH   6  11
ATOM     11  N   UNL d   1      46.053 -19.891  43.748  0.00  0.00    -0.114 N 
ATOM     12  O   UNL d   1      45.392 -20.325  43.516  0.00  0.00    -0.532 OA
ATOM     13  O   UNL d   1      46.647 -20.264  44.182  0.00  0.00    -0.532 OA
ENDBRANCH   6  11
ENDBRANCH   1   4
BRANCH   2  14
ATOM     14  C   UNL d   1      45.888 -15.819  44.949  0.00  0.00     0.102 C 
BRANCH  14  15
ATOM     15  C   UNL d   1      45.881 -15.029  44.716  0.00  0.00     0.019 A 
ATOM     16  C   UNL d   1      45.260 -14.744  44.255  0.00  0.00     0.003 A 
ATOM     17  C   UNL d   1      45.246 -13.950  44.017  0.00  0.00     0.019 A 
ATOM     18  C   UNL d   1      44.717 -13.517  43.569  0.00  0.00     0.021 A 
ATOM     19  C   UNL d   1      45.860 -13.451  44.246  0.00  0.00     0.081 A 
ATOM     20  C   UNL d   1      45.000 -12.744  43.518  0.00  0.00     0.082 A 
ATOM     21  C   UNL d   1      44.638 -12.122  43.117  0.00  0.00     0.021 C 
ATOM     22  N   UNL d   1      45.707 -12.702  43.937  0.00  0.00    -0.246 NA
ATOM     23  C   UNL d   1      46.480 -13.734  44.706  0.00  0.00     0.019 A 
ATOM     24  C   UNL d   1      46.491 -14.524  44.941  0.00  0.00     0.003 A 
ENDBRANCH  14  15
ENDBRANCH   2  14
TORSDOF 4
ENDMDL
