MODEL 1
REMARK VINA RESULT:      -6.5      0.000      0.000
REMARK  4 active torsions:
REMARK  status: ('A' for Active; 'I' for Inactive)
REMARK    1  A    between atoms: C_9  and  C_2 
REMARK    2  A    between atoms: S_8  and  C_4 
REMARK       I    between atoms: N_6  and  C_7 
REMARK    3  A    between atoms: C_7  and  C_10 
REMARK    4  A    between atoms: C_10  and  S_8 
ROOT
ATOM      1  N   UNL d   1     -48.158  14.413  23.101  0.00  0.00    -0.212 NA
ATOM      2  C   UNL d   1     -48.700  14.865  22.691  0.00  0.00     0.171 A 
ATOM      3  N   UNL d   1     -48.337  15.147  22.007  0.00  0.00    -0.188 NA
ATOM      4  C   UNL d   1     -47.451  14.406  22.681  0.00  0.00     0.160 A 
ATOM      5  S   UNL d   1     -47.564  14.863  22.000  0.00  0.00     0.041 SA
ENDROOT
BRANCH   4   6
ATOM      6  S   UNL d   1     -46.754  14.019  22.891  0.00  0.00    -0.054 SA
BRANCH   6   7
ATOM      7  C   UNL d   1     -46.777  13.238  23.130  0.00  0.00     0.098 C 
BRANCH   7   8
ATOM      8  C   UNL d   1     -46.089  12.777  23.134  0.00  0.00     0.272 C 
ATOM      9  N   UNL d   1     -46.112  11.974  23.322  0.00  0.00    -0.267 N 
ATOM     10  C   UNL d   1     -45.418  11.537  23.321  0.00  0.00     0.110 A 
ATOM     11  C   UNL d   1     -46.834  11.622  23.508  0.00  0.00     0.110 A 
ATOM     12  C   UNL d   1     -45.447  10.728  23.510  0.00  0.00     0.142 A 
ATOM     13  O   UNL d   1     -46.160  10.367  23.697  0.00  0.00    -0.300 OA
ATOM     14  C   UNL d   1     -46.862  10.813  23.698  0.00  0.00     0.142 A 
ATOM     15  O   UNL d   1     -45.361  13.134  22.946  0.00  0.00    -0.266 OA
ENDBRANCH   7   8
ENDBRANCH   6   7
ENDBRANCH   4   6
BRANCH   2  16
ATOM     16  C   UNL d   1     -49.480  15.019  22.914  0.00  0.00     0.036 A 
ATOM     17  C   UNL d   1     -49.638  15.593  23.467  0.00  0.00     0.003 A 
ATOM     18  C   UNL d   1     -50.405  15.757  23.698  0.00  0.00     0.000 A 
ATOM     19  C   UNL d   1     -51.030  15.330  23.362  0.00  0.00     0.000 A 
ATOM     20  C   UNL d   1     -50.879  14.748  22.804  0.00  0.00     0.000 A 
ATOM     21  C   UNL d   1     -50.112  14.594  22.581  0.00  0.00     0.003 A 
ENDBRANCH   2  16
TORSDOF 4
ENDMDL
MODEL 2
REMARK VINA RESULT:      -6.3      1.535      2.230
REMARK  4 active torsions:
REMARK  status: ('A' for Active; 'I' for Inactive)
REMARK    1  A    between atoms: C_9  and  C_2 
REMARK    2  A    between atoms: S_8  and  C_4 
REMARK       I    between atoms: N_6  and  C_7 
REMARK    3  A    between atoms: C_7  and  C_10 
REMARK    4  A    between atoms: C_10  and  S_8 
ROOT
ATOM      1  N   UNL d   1     -49.009  12.945  23.212  0.00  0.00    -0.212 NA
ATOM      2  C   UNL d   1     -49.818  13.047  23.232  0.00  0.00     0.171 A 
ATOM      3  N   UNL d   1     -50.158  12.358  23.532  0.00  0.00    -0.188 NA
ATOM      4  C   UNL d   1     -48.831  12.194  23.499  0.00  0.00     0.160 A 
ATOM      5  S   UNL d   1     -49.547  11.831  23.698  0.00  0.00     0.041 SA
ENDROOT
BRANCH   4   6
ATOM      6  S   UNL d   1     -48.082  11.859  23.577  0.00  0.00    -0.054 SA
BRANCH   6   7
ATOM      7  C   UNL d   1     -47.422  12.268  23.322  0.00  0.00     0.098 C 
BRANCH   7   8
ATOM      8  C   UNL d   1     -46.676  11.908  23.320  0.00  0.00     0.272 C 
ATOM      9  N   UNL d   1     -46.029  12.266  22.955  0.00  0.00    -0.267 N 
ATOM     10  C   UNL d   1     -45.299  11.892  22.965  0.00  0.00     0.110 A 
ATOM     11  C   UNL d   1     -46.125  12.997  22.585  0.00  0.00     0.110 A 
ATOM     12  C   UNL d   1     -44.650  12.257  22.597  0.00  0.00     0.142 A 
ATOM     13  O   UNL d   1     -44.734  12.984  22.225  0.00  0.00    -0.300 OA
ATOM     14  C   UNL d   1     -45.476  13.362  22.216  0.00  0.00     0.142 A 
ATOM     15  O   UNL d   1     -46.581  11.171  23.695  0.00  0.00    -0.266 OA
ENDBRANCH   7   8
ENDBRANCH   6   7
ENDBRANCH   4   6
BRANCH   2  16
ATOM     16  C   UNL d   1     -50.234  13.719  22.994  0.00  0.00     0.036 A 
ATOM     17  C   UNL d   1     -50.647  13.715  22.294  0.00  0.00     0.003 A 
ATOM     18  C   UNL d   1     -51.063  14.373  22.046  0.00  0.00     0.000 A 
ATOM     19  C   UNL d   1     -51.064  15.054  22.517  0.00  0.00     0.000 A 
ATOM     20  C   UNL d   1     -50.651  15.066  23.225  0.00  0.00     0.000 A 
ATOM     21  C   UNL d   1     -50.239  14.406  23.462  0.00  0.00     0.003 A 
ENDBRANCH   2  16
TORSDOF 4
ENDMDL
MODEL 3
REMARK VINA RESULT:      -6.2      1.847      5.226
REMARK  4 active torsions:
REMARK  status: ('A' for Active; 'I' for Inactive)
REMARK    1  A    between atoms: C_9  and  C_2 
REMARK    2  A    between atoms: S_8  and  C_4 
REMARK       I    between atoms: N_6  and  C_7 
REMARK    3  A    between atoms: C_7  and  C_10 
REMARK    4  A    between atoms: C_10  and  S_8 
ROOT
ATOM      1  N   UNL d   1     -46.015  12.191  23.196  0.00  0.00    -0.212 NA
ATOM      2  C   UNL d   1     -45.846  11.424  23.417  0.00  0.00     0.171 A 
ATOM      3  N   UNL d   1     -46.539  11.076  23.696  0.00  0.00    -0.188 NA
ATOM      4  C   UNL d   1     -46.814  12.334  23.333  0.00  0.00     0.160 A 
ATOM      5  S   UNL d   1     -47.139  11.639  23.644  0.00  0.00     0.041 SA
ENDROOT
BRANCH   4   6
ATOM      6  S   UNL d   1     -47.223  13.035  23.190  0.00  0.00    -0.054 SA
BRANCH   6   7
ATOM      7  C   UNL d   1     -47.941  13.018  22.801  0.00  0.00     0.098 C 
BRANCH   7   8
ATOM      8  C   UNL d   1     -48.398  13.705  22.727  0.00  0.00     0.272 C 
ATOM      9  N   UNL d   1     -49.102  13.707  22.297  0.00  0.00    -0.267 N 
ATOM     10  C   UNL d   1     -49.540  14.398  22.237  0.00  0.00     0.110 A 
ATOM     11  C   UNL d   1     -49.357  13.012  21.933  0.00  0.00     0.110 A 
ATOM     12  C   UNL d   1     -50.248  14.394  21.803  0.00  0.00     0.142 A 
ATOM     13  O   UNL d   1     -50.511  13.709  21.436  0.00  0.00    -0.300 OA
ATOM     14  C   UNL d   1     -50.065  13.008  21.499  0.00  0.00     0.142 A 
ATOM     15  O   UNL d   1     -48.140  14.405  23.095  0.00  0.00    -0.266 OA
ENDBRANCH   7   8
ENDBRANCH   6   7
ENDBRANCH   4   6
BRANCH   2  16
ATOM     16  C   UNL d   1     -45.111  11.051  23.372  0.00  0.00     0.036 A 
ATOM     17  C   UNL d   1     -44.488  11.424  23.006  0.00  0.00     0.003 A 
ATOM     18  C   UNL d   1     -43.754  11.067  22.955  0.00  0.00     0.000 A 
ATOM     19  C   UNL d   1     -43.645  10.314  23.281  0.00  0.00     0.000 A 
ATOM     20  C   UNL d   1     -44.269   9.931  23.652  0.00  0.00     0.000 A 
ATOM     21  C   UNL d   1     -44.995  10.296  23.698  0.00  0.00     0.003 A 
ENDBRANCH   2  16
TORSDOF 4
ENDMDL
MODEL 4
REMARK VINA RESULT:      -5.9      2.119      4.970
REMARK  4 active torsions:
REMARK  status: ('A' for Active; 'I' for Inactive)
REMARK    1  A    between atoms: C_9  and  C_2 
REMARK    2  A    between atoms: S_8  and  C_4 
REMARK       I    between atoms: N_6  and  C_7 
REMARK    3  A    between atoms: C_7  and  C_10 
REMARK    4  A    between atoms: C_10  and  S_8 
ROOT
ATOM      1  N   UNL d   1     -47.180  12.688  22.660  0.00  0.00    -0.212 NA
ATOM      2  C   UNL d   1     -46.455  12.399  22.898  0.00  0.00     0.171 A 
ATOM      3  N   UNL d   1     -46.575  11.898  23.542  0.00  0.00    -0.188 NA
ATOM      4  C   UNL d   1     -47.762  12.373  23.150  0.00  0.00     0.160 A 
ATOM      5  S   UNL d   1     -47.384  11.882  23.698  0.00  0.00     0.041 SA
ENDROOT
BRANCH   4   6
ATOM      6  S   UNL d   1     -48.573  12.516  23.108  0.00  0.00    -0.054 SA
BRANCH   6   7
ATOM      7  C   UNL d   1     -48.859  13.277  23.195  0.00  0.00     0.098 C 
BRANCH   7   8
ATOM      8  C   UNL d   1     -49.672  13.428  23.161  0.00  0.00     0.272 C 
ATOM      9  N   UNL d   1     -49.965  14.200  23.172  0.00  0.00    -0.267 N 
ATOM     10  C   UNL d   1     -50.775  14.327  23.137  0.00  0.00     0.110 A 
ATOM     11  C   UNL d   1     -49.439  14.832  23.219  0.00  0.00     0.110 A 
ATOM     12  C   UNL d   1     -51.064  15.106  23.149  0.00  0.00     0.142 A 
ATOM     13  O   UNL d   1     -50.550  15.743  23.196  0.00  0.00    -0.300 OA
ATOM     14  C   UNL d   1     -49.728  15.611  23.231  0.00  0.00     0.142 A 
ATOM     15  O   UNL d   1     -50.202  12.788  23.113  0.00  0.00    -0.266 OA
ENDBRANCH   7   8
ENDBRANCH   6   7
ENDBRANCH   4   6
BRANCH   2  16
ATOM     16  C   UNL d   1     -45.722  12.571  22.560  0.00  0.00     0.036 A 
ATOM     17  C   UNL d   1     -45.119  12.027  22.596  0.00  0.00     0.003 A 
ATOM     18  C   UNL d   1     -44.389  12.184  22.266  0.00  0.00     0.000 A 
ATOM     19  C   UNL d   1     -44.261  12.910  21.888  0.00  0.00     0.000 A 
ATOM     20  C   UNL d   1     -44.864  13.464  21.847  0.00  0.00     0.000 A 
ATOM     21  C   UNL d   1     -45.588  13.298  22.179  0.00  0.00     0.003 A 
ENDBRANCH   2  16
TORSDOF 4
ENDMDL
MODEL 5
REMARK VINA RESULT:      -5.5      8.919      9.974
REMARK  4 active torsions:
REMARK  status: ('A' for Active; 'I' for Inactive)
REMARK    1  A    between atoms: C_9  and  C_2 
REMARK    2  A    between atoms: S_8  and  C_4 
REMARK       I    between atoms: N_6  and  C_7 
REMARK    3  A    between atoms: C_7  and  C_10 
REMARK    4  A    between atoms: C_10  and  S_8 
ROOT
ATOM      1  N   UNL d   1     -39.315  14.579  18.666  0.00  0.00    -0.212 NA
ATOM      2  C   UNL d   1     -39.563  14.163  18.009  0.00  0.00     0.171 A 
ATOM      3  N   UNL d   1     -40.360  13.976  18.107  0.00  0.00    -0.188 NA
ATOM      4  C   UNL d   1     -39.951  14.657  19.183  0.00  0.00     0.160 A 
ATOM      5  S   UNL d   1     -40.600  14.282  18.834  0.00  0.00     0.041 SA
ENDROOT
BRANCH   4   6
ATOM      6  S   UNL d   1     -39.950  15.038  19.915  0.00  0.00    -0.054 SA
BRANCH   6   7
ATOM      7  C   UNL d   1     -39.653  14.657  20.573  0.00  0.00     0.098 C 
BRANCH   7   8
ATOM      8  C   UNL d   1     -39.515  15.073  21.276  0.00  0.00     0.272 C 
ATOM      9  N   UNL d   1     -39.193  14.701  21.938  0.00  0.00    -0.267 N 
ATOM     10  C   UNL d   1     -39.064  15.132  22.623  0.00  0.00     0.110 A 
ATOM     11  C   UNL d   1     -39.004  13.899  21.900  0.00  0.00     0.110 A 
ATOM     12  C   UNL d   1     -38.740  14.753  23.288  0.00  0.00     0.142 A 
ATOM     13  O   UNL d   1     -38.548  13.955  23.262  0.00  0.00    -0.300 OA
ATOM     14  C   UNL d   1     -38.679  13.520  22.564  0.00  0.00     0.142 A 
ATOM     15  O   UNL d   1     -39.706  15.882  21.312  0.00  0.00    -0.266 OA
ENDBRANCH   7   8
ENDBRANCH   6   7
ENDBRANCH   4   6
BRANCH   2  16
ATOM     16  C   UNL d   1     -39.103  13.960  17.354  0.00  0.00     0.036 A 
ATOM     17  C   UNL d   1     -39.076  14.453  16.708  0.00  0.00     0.003 A 
ATOM     18  C   UNL d   1     -38.626  14.265  16.053  0.00  0.00     0.000 A 
ATOM     19  C   UNL d   1     -38.190  13.561  16.048  0.00  0.00     0.000 A 
ATOM     20  C   UNL d   1     -38.211  13.058  16.696  0.00  0.00     0.000 A 
ATOM     21  C   UNL d   1     -38.663  13.255  17.343  0.00  0.00     0.003 A 
ENDBRANCH   2  16
TORSDOF 4
ENDMDL
MODEL 6
REMARK VINA RESULT:      -4.9      8.911      9.381
REMARK  4 active torsions:
REMARK  status: ('A' for Active; 'I' for Inactive)
REMARK    1  A    between atoms: C_9  and  C_2 
REMARK    2  A    between atoms: S_8  and  C_4 
REMARK       I    between atoms: N_6  and  C_7 
REMARK    3  A    between atoms: C_7  and  C_10 
REMARK    4  A    between atoms: C_10  and  S_8 
ROOT
ATOM      1  N   UNL d   1     -39.908  15.644  19.467  0.00  0.00    -0.212 NA
ATOM      2  C   UNL d   1     -39.661  15.766  18.699  0.00  0.00     0.171 A 
ATOM      3  N   UNL d   1     -38.850  15.914  18.707  0.00  0.00    -0.188 NA
ATOM      4  C   UNL d   1     -39.257  15.714  19.966  0.00  0.00     0.160 A 
ATOM      5  S   UNL d   1     -38.600  15.882  19.492  0.00  0.00     0.041 SA
ENDROOT
BRANCH   4   6
ATOM      6  S   UNL d   1     -39.252  15.633  20.786  0.00  0.00    -0.054 SA
BRANCH   6   7
ATOM      7  C   UNL d   1     -38.928  14.967  21.130  0.00  0.00     0.098 C 
BRANCH   7   8
ATOM      8  C   UNL d   1     -38.982  14.843  21.947  0.00  0.00     0.272 C 
ATOM      9  N   UNL d   1     -38.678  14.161  22.298  0.00  0.00    -0.267 N 
ATOM     10  C   UNL d   1     -38.742  14.060  23.109  0.00  0.00     0.110 A 
ATOM     11  C   UNL d   1     -38.313  13.591  21.827  0.00  0.00     0.110 A 
ATOM     12  C   UNL d   1     -38.435  13.371  23.458  0.00  0.00     0.142 A 
ATOM     13  O   UNL d   1     -38.070  12.797  23.000  0.00  0.00    -0.300 OA
ATOM     14  C   UNL d   1     -38.006  12.902  22.177  0.00  0.00     0.142 A 
ATOM     15  O   UNL d   1     -39.350  15.420  22.420  0.00  0.00    -0.266 OA
ENDBRANCH   7   8
ENDBRANCH   6   7
ENDBRANCH   4   6
BRANCH   2  16
ATOM     16  C   UNL d   1     -40.135  15.746  18.022  0.00  0.00     0.036 A 
ATOM     17  C   UNL d   1     -40.926  15.922  18.075  0.00  0.00     0.003 A 
ATOM     18  C   UNL d   1     -41.407  15.906  17.414  0.00  0.00     0.000 A 
ATOM     19  C   UNL d   1     -41.081  15.709  16.679  0.00  0.00     0.000 A 
ATOM     20  C   UNL d   1     -40.282  15.530  16.617  0.00  0.00     0.000 A 
ATOM     21  C   UNL d   1     -39.813  15.548  17.282  0.00  0.00     0.003 A 
ENDBRANCH   2  16
TORSDOF 4
ENDMDL
