MODEL 1
REMARK VINA RESULT:      60.8      0.000      0.000
REMARK  5 active torsions:
REMARK  status: ('A' for Active; 'I' for Inactive)
REMARK    1  A    between atoms: N_7  and  C_1 
REMARK    2  A    between atoms: C_15  and  N_2 
REMARK    3  A    between atoms: C_5  and  C_10 
REMARK       I    between atoms: C_10  and  N_7 
REMARK    4  A    between atoms: C_13  and  C_11 
REMARK    5  A    between atoms: C_24  and  C_15 
ROOT
ATOM      1  N   UNL d   1     -49.471  27.531  33.915  0.00  0.00    -0.203 NA
ATOM      2  C   UNL d   1     -49.302  27.811  34.688  0.00  0.00     0.299 C 
ATOM      3  O   UNL d   1     -49.689  27.483  35.299  0.00  0.00    -0.263 OA
ENDROOT
BRANCH   1   4
ATOM      4  C   UNL d   1     -50.040  26.915  33.804  0.00  0.00     0.121 A 
ATOM      5  C   UNL d   1     -49.884  26.125  33.567  0.00  0.00     0.102 A 
ATOM      6  N   UNL d   1     -50.604  25.729  33.533  0.00  0.00    -0.227 N 
ATOM      7  C   UNL d   1     -49.135  25.806  33.400  0.00  0.00     0.022 C 
ATOM      8  N   UNL d   1     -51.213  26.265  33.746  0.00  0.00    -0.164 NA
ATOM      9  C   UNL d   1     -50.853  27.004  33.914  0.00  0.00     0.120 A 
ATOM     10  C   UNL d   1     -51.233  27.714  34.151  0.00  0.00     0.024 C 
BRANCH   6  11
ATOM     11  C   UNL d   1     -50.620  24.911  33.307  0.00  0.00     0.101 C 
BRANCH  11  12
ATOM     12  C   UNL d   1     -51.339  24.489  33.335  0.00  0.00     0.019 A 
ATOM     13  C   UNL d   1     -52.064  24.893  33.306  0.00  0.00     0.002 A 
ATOM     14  C   UNL d   1     -52.787  24.477  33.333  0.00  0.00     0.000 A 
ATOM     15  C   UNL d   1     -52.777  23.632  33.391  0.00  0.00     0.000 A 
ATOM     16  C   UNL d   1     -52.068  23.236  33.420  0.00  0.00     0.000 A 
ATOM     17  C   UNL d   1     -53.484  23.188  33.421  0.00  0.00     0.000 C 
ATOM     18  C   UNL d   1     -51.338  23.655  33.392  0.00  0.00     0.002 A 
ENDBRANCH  11  12
ENDBRANCH   6  11
ENDBRANCH   1   4
BRANCH   2  19
ATOM     19  C   UNL d   1     -48.241  28.954  34.854  0.00  0.00     0.168 A 
ATOM     20  N   UNL d   1     -47.489  28.905  35.108  0.00  0.00    -0.121 NA
ATOM     21  O   UNL d   1     -47.172  29.625  35.097  0.00  0.00    -0.211 OA
ATOM     22  C   UNL d   1     -47.721  30.140  34.836  0.00  0.00     0.127 A 
ATOM     23  C   UNL d   1     -48.386  29.727  34.684  0.00  0.00     0.053 A 
BRANCH  22  24
ATOM     24  C   UNL d   1     -47.594  30.912  34.755  0.00  0.00     0.027 A 
ATOM     25  C   UNL d   1     -48.015  31.333  34.221  0.00  0.00     0.028 A 
ATOM     26  C   UNL d   1     -47.888  32.099  34.142  0.00  0.00     0.119 A 
ATOM     27  O   UNL d   1     -48.215  32.645  33.668  0.00  0.00    -0.300 OA
ATOM     28  C   UNL d   1     -47.345  32.477  34.582  0.00  0.00     0.119 A 
ATOM     29  C   UNL d   1     -47.878  33.345  33.816  0.00  0.00     0.304 A 
ATOM     30  O   UNL d   1     -47.338  33.240  34.384  0.00  0.00    -0.300 OA
ATOM     31  C   UNL d   1     -46.921  32.061  35.118  0.00  0.00     0.026 A 
ATOM     32  C   UNL d   1     -47.043  31.293  35.202  0.00  0.00     0.004 A 
ENDBRANCH  22  24
ENDBRANCH   2  19
TORSDOF 5
ENDMDL
