MODEL 1
REMARK VINA RESULT:      -5.5      0.000      0.000
REMARK  7 active torsions:
REMARK  status: ('A' for Active; 'I' for Inactive)
REMARK    1  A    between atoms: C_19  and  N_5 
REMARK    2  A    between atoms: C_12  and  C_6 
REMARK       I    between atoms: N_20  and  C_12 
REMARK    3  A    between atoms: C_21  and  C_19 
REMARK    4  A    between atoms: C_26  and  N_20 
REMARK    5  A    between atoms: C_23  and  C_26 
REMARK    6  A    between atoms: C_27  and  C_23 
REMARK    7  A    between atoms: O_24  and  C_27 
ROOT
ATOM      1  C   UNL d   1     -39.414  14.602  19.451  0.00  0.00     0.155 A 
ATOM      2  C   UNL d   1     -40.111  14.392  19.064  0.00  0.00     0.091 A 
ATOM      3  N   UNL d   1     -38.709  14.661  19.028  0.00  0.00    -0.210 NA
ATOM      4  N   UNL d   1     -39.411  14.295  17.827  0.00  0.00    -0.258 N 
ATOM      5  N   UNL d   1     -39.420  14.755  20.260  0.00  0.00    -0.274 N 
ATOM      6  C   UNL d   1     -40.821  14.489  20.311  0.00  0.00     0.094 A 
ATOM      7  C   UNL d   1     -40.116  14.236  18.250  0.00  0.00     0.269 A 
ATOM      8  C   UNL d   1     -40.120  14.699  20.693  0.00  0.00     0.175 A 
ATOM      9  C   UNL d   1     -38.701  14.508  18.215  0.00  0.00     0.152 A 
ATOM     10  C   UNL d   1     -40.825  14.333  19.496  0.00  0.00     0.016 A 
ATOM     11  C   UNL d   1     -39.403  14.142  17.014  0.00  0.00     0.084 A 
ATOM     12  C   UNL d   1     -38.001  14.566  17.790  0.00  0.00     0.038 A 
ATOM     13  N   UNL d   1     -40.126  14.852  21.508  0.00  0.00    -0.128 N 
ATOM     14  C   UNL d   1     -38.699  14.201  16.592  0.00  0.00     0.018 A 
ATOM     15  C   UNL d   1     -37.991  14.415  16.984  0.00  0.00     0.005 A 
ATOM     16  O   UNL d   1     -40.818  14.026  17.870  0.00  0.00    -0.266 OA
ATOM     17  C   UNL d   1     -38.681  14.050  15.779  0.00  0.00     0.002 C 
ENDROOT
BRANCH   6  18
ATOM     18  C   UNL d   1     -41.522  14.431  20.735  0.00  0.00     0.282 C 
ATOM     19  O   UNL d   1     -41.866  15.104  21.067  0.00  0.00    -0.265 OA
ATOM     20  N   UNL d   1     -41.886  13.699  20.832  0.00  0.00    -0.206 NA
BRANCH  20  21
ATOM     21  C   UNL d   1     -42.590  13.629  21.255  0.00  0.00     0.104 C 
BRANCH  21  22
ATOM     22  C   UNL d   1     -42.930  12.892  21.392  0.00  0.00     0.047 C 
BRANCH  22  23
ATOM     23  C   UNL d   1     -43.750  12.811  21.362  0.00  0.00     0.118 C 
BRANCH  23  24
ATOM     24  O   UNL d   1     -44.201  12.838  22.056  0.00  0.00    -0.326 OA
ATOM     25  C   UNL d   1     -45.022  12.904  22.020  0.00  0.00     0.181 C 
ENDBRANCH  23  24
ENDBRANCH  22  23
ENDBRANCH  21  22
ENDBRANCH  20  21
ENDBRANCH   6  18
BRANCH   5  26
ATOM     26  C   UNL d   1     -38.722  14.965  20.647  0.00  0.00     0.083 C 
BRANCH  26  27
ATOM     27  C   UNL d   1     -38.639  15.716  20.984  0.00  0.00     0.019 C 
ATOM     28  C   UNL d   1     -37.940  15.921  21.374  0.00  0.00     0.002 C 
ENDBRANCH  26  27
ENDBRANCH   5  26
TORSDOF 7
ENDMDL
MODEL 2
REMARK VINA RESULT:      -5.3      4.374      9.277
REMARK  7 active torsions:
REMARK  status: ('A' for Active; 'I' for Inactive)
REMARK    1  A    between atoms: C_19  and  N_5 
REMARK    2  A    between atoms: C_12  and  C_6 
REMARK       I    between atoms: N_20  and  C_12 
REMARK    3  A    between atoms: C_21  and  C_19 
REMARK    4  A    between atoms: C_26  and  N_20 
REMARK    5  A    between atoms: C_23  and  C_26 
REMARK    6  A    between atoms: C_27  and  C_23 
REMARK    7  A    between atoms: O_24  and  C_27 
ROOT
ATOM      1  C   UNL d   1     -48.316  13.618  23.108  0.00  0.00     0.155 A 
ATOM      2  C   UNL d   1     -47.979  12.871  23.208  0.00  0.00     0.091 A 
ATOM      3  N   UNL d   1     -49.133  13.710  23.145  0.00  0.00    -0.210 NA
ATOM      4  N   UNL d   1     -49.272  12.298  23.385  0.00  0.00    -0.258 N 
ATOM      5  N   UNL d   1     -47.835  14.273  22.970  0.00  0.00    -0.274 N 
ATOM      6  C   UNL d   1     -46.673  13.447  23.031  0.00  0.00     0.094 A 
ATOM      7  C   UNL d   1     -48.454  12.206  23.347  0.00  0.00     0.269 A 
ATOM      8  C   UNL d   1     -47.014  14.191  22.931  0.00  0.00     0.175 A 
ATOM      9  C   UNL d   1     -49.617  13.054  23.283  0.00  0.00     0.152 A 
ATOM     10  C   UNL d   1     -47.149  12.781  23.170  0.00  0.00     0.016 A 
ATOM     11  C   UNL d   1     -49.756  11.642  23.523  0.00  0.00     0.084 A 
ATOM     12  C   UNL d   1     -50.433  13.142  23.321  0.00  0.00     0.038 A 
ATOM     13  N   UNL d   1     -46.531  14.850  22.792  0.00  0.00    -0.128 N 
ATOM     14  C   UNL d   1     -50.573  11.735  23.560  0.00  0.00     0.018 A 
ATOM     15  C   UNL d   1     -50.915  12.492  23.458  0.00  0.00     0.005 A 
ATOM     16  O   UNL d   1     -48.109  11.463  23.447  0.00  0.00    -0.266 OA
ATOM     17  C   UNL d   1     -51.064  11.085  23.698  0.00  0.00     0.002 C 
ENDROOT
BRANCH   6  18
ATOM     18  C   UNL d   1     -45.857  13.358  22.993  0.00  0.00     0.282 C 
ATOM     19  O   UNL d   1     -45.394  13.463  23.668  0.00  0.00    -0.265 OA
ATOM     20  N   UNL d   1     -45.496  13.162  22.279  0.00  0.00    -0.206 NA
BRANCH  20  21
ATOM     21  C   UNL d   1     -44.678  13.070  22.229  0.00  0.00     0.104 C 
BRANCH  21  22
ATOM     22  C   UNL d   1     -44.299  13.050  21.500  0.00  0.00     0.047 C 
BRANCH  22  23
ATOM     23  C   UNL d   1     -43.476  13.000  21.471  0.00  0.00     0.118 C 
BRANCH  23  24
ATOM     24  O   UNL d   1     -43.077  13.043  20.747  0.00  0.00    -0.326 OA
ATOM     25  C   UNL d   1     -42.260  12.935  20.712  0.00  0.00     0.181 C 
ENDBRANCH  23  24
ENDBRANCH  22  23
ENDBRANCH  21  22
ENDBRANCH  20  21
ENDBRANCH   6  18
BRANCH   5  26
ATOM     26  C   UNL d   1     -48.172  15.019  22.870  0.00  0.00     0.083 C 
BRANCH  26  27
ATOM     27  C   UNL d   1     -48.251  15.346  22.114  0.00  0.00     0.019 C 
ATOM     28  C   UNL d   1     -48.862  15.878  21.953  0.00  0.00     0.002 C 
ENDBRANCH  26  27
ENDBRANCH   5  26
TORSDOF 7
ENDMDL
MODEL 3
REMARK VINA RESULT:      -4.3      2.776      7.243
REMARK  7 active torsions:
REMARK  status: ('A' for Active; 'I' for Inactive)
REMARK    1  A    between atoms: C_19  and  N_5 
REMARK    2  A    between atoms: C_12  and  C_6 
REMARK       I    between atoms: N_20  and  C_12 
REMARK    3  A    between atoms: C_21  and  C_19 
REMARK    4  A    between atoms: C_26  and  N_20 
REMARK    5  A    between atoms: C_23  and  C_26 
REMARK    6  A    between atoms: C_27  and  C_23 
REMARK    7  A    between atoms: O_24  and  C_27 
ROOT
ATOM      1  C   UNL d   1     -45.108  12.113  22.784  0.00  0.00     0.155 A 
ATOM      2  C   UNL d   1     -45.215  12.742  22.261  0.00  0.00     0.091 A 
ATOM      3  N   UNL d   1     -45.730  11.864  23.263  0.00  0.00    -0.210 NA
ATOM      4  N   UNL d   1     -46.567  12.884  22.689  0.00  0.00    -0.258 N 
ATOM      5  N   UNL d   1     -44.379  11.732  22.828  0.00  0.00    -0.274 N 
ATOM      6  C   UNL d   1     -43.852  12.601  21.827  0.00  0.00     0.094 A 
ATOM      7  C   UNL d   1     -45.945  13.133  22.209  0.00  0.00     0.269 A 
ATOM      8  C   UNL d   1     -43.749  11.973  22.351  0.00  0.00     0.175 A 
ATOM      9  C   UNL d   1     -46.463  12.246  23.221  0.00  0.00     0.152 A 
ATOM     10  C   UNL d   1     -44.582  12.992  21.776  0.00  0.00     0.016 A 
ATOM     11  C   UNL d   1     -47.300  13.266  22.646  0.00  0.00     0.084 A 
ATOM     12  C   UNL d   1     -47.085  12.001  23.697  0.00  0.00     0.038 A 
ATOM     13  N   UNL d   1     -43.016  11.589  22.396  0.00  0.00    -0.128 N 
ATOM     14  C   UNL d   1     -47.921  13.017  23.126  0.00  0.00     0.018 A 
ATOM     15  C   UNL d   1     -47.813  12.379  23.656  0.00  0.00     0.005 A 
ATOM     16  O   UNL d   1     -46.044  13.761  21.684  0.00  0.00    -0.266 OA
ATOM     17  C   UNL d   1     -48.657  13.392  23.090  0.00  0.00     0.002 C 
ENDROOT
BRANCH   6  18
ATOM     18  C   UNL d   1     -43.230  12.847  21.350  0.00  0.00     0.282 C 
ATOM     19  O   UNL d   1     -43.056  12.445  20.651  0.00  0.00    -0.265 OA
ATOM     20  N   UNL d   1     -42.775  13.498  21.568  0.00  0.00    -0.206 NA
BRANCH  20  21
ATOM     21  C   UNL d   1     -42.148  13.754  21.097  0.00  0.00     0.104 C 
BRANCH  21  22
ATOM     22  C   UNL d   1     -41.861  14.523  21.157  0.00  0.00     0.047 C 
BRANCH  22  23
ATOM     23  C   UNL d   1     -41.269  14.776  20.641  0.00  0.00     0.118 C 
BRANCH  23  24
ATOM     24  O   UNL d   1     -40.636  15.231  20.919  0.00  0.00    -0.326 OA
ATOM     25  C   UNL d   1     -40.155  15.645  20.392  0.00  0.00     0.181 C 
ENDBRANCH  23  24
ENDBRANCH  22  23
ENDBRANCH  21  22
ENDBRANCH  20  21
ENDBRANCH   6  18
BRANCH   5  26
ATOM     26  C   UNL d   1     -44.272  11.103  23.350  0.00  0.00     0.083 C 
BRANCH  26  27
ATOM     27  C   UNL d   1     -44.025  10.364  23.074  0.00  0.00     0.019 C 
ATOM     28  C   UNL d   1     -43.991   9.718  23.587  0.00  0.00     0.002 C 
ENDBRANCH  26  27
ENDBRANCH   5  26
TORSDOF 7
ENDMDL
MODEL 4
REMARK VINA RESULT:      -4.2      3.773      8.685
REMARK  7 active torsions:
REMARK  status: ('A' for Active; 'I' for Inactive)
REMARK    1  A    between atoms: C_19  and  N_5 
REMARK    2  A    between atoms: C_12  and  C_6 
REMARK       I    between atoms: N_20  and  C_12 
REMARK    3  A    between atoms: C_21  and  C_19 
REMARK    4  A    between atoms: C_26  and  N_20 
REMARK    5  A    between atoms: C_23  and  C_26 
REMARK    6  A    between atoms: C_27  and  C_23 
REMARK    7  A    between atoms: O_24  and  C_27 
ROOT
ATOM      1  C   UNL d   1     -47.366  12.238  23.081  0.00  0.00     0.155 A 
ATOM      2  C   UNL d   1     -47.429  12.940  22.652  0.00  0.00     0.091 A 
ATOM      3  N   UNL d   1     -48.044  11.850  23.339  0.00  0.00    -0.210 NA
ATOM      4  N   UNL d   1     -48.850  12.877  22.734  0.00  0.00    -0.258 N 
ATOM      5  N   UNL d   1     -46.624  11.923  23.251  0.00  0.00    -0.274 N 
ATOM      6  C   UNL d   1     -45.995  13.006  22.567  0.00  0.00     0.094 A 
ATOM      7  C   UNL d   1     -48.171  13.265  22.475  0.00  0.00     0.269 A 
ATOM      8  C   UNL d   1     -45.937  12.304  22.996  0.00  0.00     0.175 A 
ATOM      9  C   UNL d   1     -48.790  12.164  23.169  0.00  0.00     0.152 A 
ATOM     10  C   UNL d   1     -46.738  13.331  22.391  0.00  0.00     0.016 A 
ATOM     11  C   UNL d   1     -49.597  13.191  22.564  0.00  0.00     0.084 A 
ATOM     12  C   UNL d   1     -49.470  11.780  23.426  0.00  0.00     0.038 A 
ATOM     13  N   UNL d   1     -45.191  11.987  23.168  0.00  0.00    -0.128 N 
ATOM     14  C   UNL d   1     -50.275  12.803  22.823  0.00  0.00     0.018 A 
ATOM     15  C   UNL d   1     -50.211  12.091  23.258  0.00  0.00     0.005 A 
ATOM     16  O   UNL d   1     -48.226  13.967  22.046  0.00  0.00    -0.266 OA
ATOM     17  C   UNL d   1     -51.024  13.110  22.657  0.00  0.00     0.002 C 
ENDROOT
BRANCH   6  18
ATOM     18  C   UNL d   1     -45.317  13.391  22.311  0.00  0.00     0.282 C 
ATOM     19  O   UNL d   1     -45.169  14.171  22.535  0.00  0.00    -0.265 OA
ATOM     20  N   UNL d   1     -44.778  12.999  21.826  0.00  0.00    -0.206 NA
BRANCH  20  21
ATOM     21  C   UNL d   1     -44.093  13.375  21.562  0.00  0.00     0.104 C 
BRANCH  21  22
ATOM     22  C   UNL d   1     -43.428  12.941  21.348  0.00  0.00     0.047 C 
BRANCH  22  23
ATOM     23  C   UNL d   1     -42.839  13.298  20.894  0.00  0.00     0.118 C 
BRANCH  23  24
ATOM     24  O   UNL d   1     -42.126  13.533  21.242  0.00  0.00    -0.326 OA
ATOM     25  C   UNL d   1     -41.491  13.775  20.773  0.00  0.00     0.181 C 
ENDBRANCH  23  24
ENDBRANCH  22  23
ENDBRANCH  21  22
ENDBRANCH  20  21
ENDBRANCH   6  18
BRANCH   5  26
ATOM     26  C   UNL d   1     -46.561  11.221  23.680  0.00  0.00     0.083 C 
BRANCH  26  27
ATOM     27  C   UNL d   1     -45.884  10.751  23.618  0.00  0.00     0.019 C 
ATOM     28  C   UNL d   1     -45.939   9.930  23.698  0.00  0.00     0.002 C 
ENDBRANCH  26  27
ENDBRANCH   5  26
TORSDOF 7
ENDMDL
MODEL 5
REMARK VINA RESULT:      -3.3      6.441      9.186
REMARK  7 active torsions:
REMARK  status: ('A' for Active; 'I' for Inactive)
REMARK    1  A    between atoms: C_19  and  N_5 
REMARK    2  A    between atoms: C_12  and  C_6 
REMARK       I    between atoms: N_20  and  C_12 
REMARK    3  A    between atoms: C_21  and  C_19 
REMARK    4  A    between atoms: C_26  and  N_20 
REMARK    5  A    between atoms: C_23  and  C_26 
REMARK    6  A    between atoms: C_27  and  C_23 
REMARK    7  A    between atoms: O_24  and  C_27 
ROOT
ATOM      1  C   UNL d   1     -48.139  13.460  22.982  0.00  0.00     0.155 A 
ATOM      2  C   UNL d   1     -47.851  12.701  23.129  0.00  0.00     0.091 A 
ATOM      3  N   UNL d   1     -48.949  13.606  23.006  0.00  0.00    -0.210 NA
ATOM      4  N   UNL d   1     -49.178  12.222  23.328  0.00  0.00    -0.258 N 
ATOM      5  N   UNL d   1     -47.617  14.074  22.809  0.00  0.00    -0.274 N 
ATOM      6  C   UNL d   1     -46.510  13.182  22.929  0.00  0.00     0.094 A 
ATOM      7  C   UNL d   1     -48.367  12.076  23.304  0.00  0.00     0.269 A 
ATOM      8  C   UNL d   1     -46.803  13.939  22.782  0.00  0.00     0.175 A 
ATOM      9  C   UNL d   1     -49.474  12.990  23.179  0.00  0.00     0.152 A 
ATOM     10  C   UNL d   1     -47.028  12.557  23.103  0.00  0.00     0.016 A 
ATOM     11  C   UNL d   1     -49.703  11.606  23.501  0.00  0.00     0.084 A 
ATOM     12  C   UNL d   1     -50.283  13.131  23.205  0.00  0.00     0.038 A 
ATOM     13  N   UNL d   1     -46.279  14.557  22.609  0.00  0.00    -0.128 N 
ATOM     14  C   UNL d   1     -50.513  11.752  23.526  0.00  0.00     0.018 A 
ATOM     15  C   UNL d   1     -50.806  12.522  23.376  0.00  0.00     0.005 A 
ATOM     16  O   UNL d   1     -48.071  11.320  23.450  0.00  0.00    -0.266 OA
ATOM     17  C   UNL d   1     -51.045  11.144  23.698  0.00  0.00     0.002 C 
ENDROOT
BRANCH   6  18
ATOM     18  C   UNL d   1     -45.702  13.040  22.904  0.00  0.00     0.282 C 
ATOM     19  O   UNL d   1     -45.166  13.664  22.967  0.00  0.00    -0.265 OA
ATOM     20  N   UNL d   1     -45.421  12.270  22.815  0.00  0.00    -0.206 NA
BRANCH  20  21
ATOM     21  C   UNL d   1     -44.611  12.115  22.788  0.00  0.00     0.104 C 
BRANCH  21  22
ATOM     22  C   UNL d   1     -44.277  11.532  23.262  0.00  0.00     0.047 C 
BRANCH  22  23
ATOM     23  C   UNL d   1     -44.415  10.738  23.088  0.00  0.00     0.118 C 
BRANCH  23  24
ATOM     24  O   UNL d   1     -43.786  10.202  23.045  0.00  0.00    -0.326 OA
ATOM     25  C   UNL d   1     -43.603   9.719  23.689  0.00  0.00     0.181 C 
ENDBRANCH  23  24
ENDBRANCH  22  23
ENDBRANCH  21  22
ENDBRANCH  20  21
ENDBRANCH   6  18
BRANCH   5  26
ATOM     26  C   UNL d   1     -47.906  14.832  22.662  0.00  0.00     0.083 C 
BRANCH  26  27
ATOM     27  C   UNL d   1     -47.860  15.159  21.904  0.00  0.00     0.019 C 
ATOM     28  C   UNL d   1     -48.292  15.838  21.717  0.00  0.00     0.002 C 
ENDBRANCH  26  27
ENDBRANCH   5  26
TORSDOF 7
ENDMDL
MODEL 6
REMARK VINA RESULT:      -2.7      4.606      7.548
REMARK  7 active torsions:
REMARK  status: ('A' for Active; 'I' for Inactive)
REMARK    1  A    between atoms: C_19  and  N_5 
REMARK    2  A    between atoms: C_12  and  C_6 
REMARK       I    between atoms: N_20  and  C_12 
REMARK    3  A    between atoms: C_21  and  C_19 
REMARK    4  A    between atoms: C_26  and  N_20 
REMARK    5  A    between atoms: C_23  and  C_26 
REMARK    6  A    between atoms: C_27  and  C_23 
REMARK    7  A    between atoms: O_24  and  C_27 
ROOT
ATOM      1  C   UNL d   1     -46.023  12.627  22.900  0.00  0.00     0.155 A 
ATOM      2  C   UNL d   1     -45.925  13.346  22.508  0.00  0.00     0.091 A 
ATOM      3  N   UNL d   1     -45.414  12.074  22.907  0.00  0.00    -0.210 NA
ATOM      4  N   UNL d   1     -44.605  12.970  22.123  0.00  0.00    -0.258 N 
ATOM      5  N   UNL d   1     -46.732  12.461  23.286  0.00  0.00    -0.274 N 
ATOM      6  C   UNL d   1     -47.256  13.729  22.894  0.00  0.00     0.094 A 
ATOM      7  C   UNL d   1     -45.215  13.524  22.116  0.00  0.00     0.269 A 
ATOM      8  C   UNL d   1     -47.349  13.008  23.285  0.00  0.00     0.175 A 
ATOM      9  C   UNL d   1     -44.701  12.239  22.520  0.00  0.00     0.152 A 
ATOM     10  C   UNL d   1     -46.546  13.906  22.503  0.00  0.00     0.016 A 
ATOM     11  C   UNL d   1     -43.893  13.135  21.736  0.00  0.00     0.084 A 
ATOM     12  C   UNL d   1     -44.090  11.690  22.524  0.00  0.00     0.038 A 
ATOM     13  N   UNL d   1     -48.062  12.840  23.674  0.00  0.00    -0.128 N 
ATOM     14  C   UNL d   1     -43.283  12.582  21.743  0.00  0.00     0.018 A 
ATOM     15  C   UNL d   1     -43.383  11.852  22.141  0.00  0.00     0.005 A 
ATOM     16  O   UNL d   1     -45.124  14.245  21.726  0.00  0.00    -0.266 OA
ATOM     17  C   UNL d   1     -42.568  12.738  21.359  0.00  0.00     0.002 C 
ENDROOT
BRANCH   6  18
ATOM     18  C   UNL d   1     -47.866  14.279  22.889  0.00  0.00     0.282 C 
ATOM     19  O   UNL d   1     -47.830  14.947  23.372  0.00  0.00    -0.265 OA
ATOM     20  N   UNL d   1     -48.519  14.165  22.401  0.00  0.00    -0.206 NA
BRANCH  20  21
ATOM     21  C   UNL d   1     -49.137  14.711  22.387  0.00  0.00     0.104 C 
BRANCH  21  22
ATOM     22  C   UNL d   1     -49.919  14.462  22.321  0.00  0.00     0.047 C 
BRANCH  22  23
ATOM     23  C   UNL d   1     -50.261  14.392  21.573  0.00  0.00     0.118 C 
BRANCH  23  24
ATOM     24  O   UNL d   1     -50.993  14.019  21.480  0.00  0.00    -0.326 OA
ATOM     25  C   UNL d   1     -51.064  13.204  21.585  0.00  0.00     0.181 C 
ENDBRANCH  23  24
ENDBRANCH  22  23
ENDBRANCH  21  22
ENDBRANCH  20  21
ENDBRANCH   6  18
BRANCH   5  26
ATOM     26  C   UNL d   1     -46.830  11.742  23.678  0.00  0.00     0.083 C 
BRANCH  26  27
ATOM     27  C   UNL d   1     -47.523  11.301  23.579  0.00  0.00     0.019 C 
ATOM     28  C   UNL d   1     -47.516  10.483  23.697  0.00  0.00     0.002 C 
ENDBRANCH  26  27
ENDBRANCH   5  26
TORSDOF 7
ENDMDL
MODEL 7
REMARK VINA RESULT:      -2.7      6.572      8.070
REMARK  7 active torsions:
REMARK  status: ('A' for Active; 'I' for Inactive)
REMARK    1  A    between atoms: C_19  and  N_5 
REMARK    2  A    between atoms: C_12  and  C_6 
REMARK       I    between atoms: N_20  and  C_12 
REMARK    3  A    between atoms: C_21  and  C_19 
REMARK    4  A    between atoms: C_26  and  N_20 
REMARK    5  A    between atoms: C_23  and  C_26 
REMARK    6  A    between atoms: C_27  and  C_23 
REMARK    7  A    between atoms: O_24  and  C_27 
ROOT
ATOM      1  C   UNL d   1     -46.077  12.424  22.906  0.00  0.00     0.155 A 
ATOM      2  C   UNL d   1     -46.511  11.787  23.199  0.00  0.00     0.091 A 
ATOM      3  N   UNL d   1     -45.261  12.360  22.814  0.00  0.00    -0.210 NA
ATOM      4  N   UNL d   1     -45.321  11.012  23.313  0.00  0.00    -0.258 N 
ATOM      5  N   UNL d   1     -46.458  13.126  22.704  0.00  0.00    -0.274 N 
ATOM      6  C   UNL d   1     -47.714  12.567  23.085  0.00  0.00     0.094 A 
ATOM      7  C   UNL d   1     -46.137  11.076  23.405  0.00  0.00     0.269 A 
ATOM      8  C   UNL d   1     -47.275  13.201  22.792  0.00  0.00     0.175 A 
ATOM      9  C   UNL d   1     -44.877  11.656  23.016  0.00  0.00     0.152 A 
ATOM     10  C   UNL d   1     -47.339  11.856  23.291  0.00  0.00     0.016 A 
ATOM     11  C   UNL d   1     -44.937  10.307  23.515  0.00  0.00     0.084 A 
ATOM     12  C   UNL d   1     -44.063  11.587  22.925  0.00  0.00     0.038 A 
ATOM     13  N   UNL d   1     -47.658  13.908  22.589  0.00  0.00    -0.128 N 
ATOM     14  C   UNL d   1     -44.121  10.244  23.423  0.00  0.00     0.018 A 
ATOM     15  C   UNL d   1     -43.680  10.890  23.125  0.00  0.00     0.005 A 
ATOM     16  O   UNL d   1     -46.579  10.444  23.698  0.00  0.00    -0.266 OA
ATOM     17  C   UNL d   1     -43.729   9.544  23.622  0.00  0.00     0.002 C 
ENDROOT
BRANCH   6  18
ATOM     18  C   UNL d   1     -48.528  12.634  23.176  0.00  0.00     0.282 C 
ATOM     19  O   UNL d   1     -48.847  13.215  23.666  0.00  0.00    -0.265 OA
ATOM     20  N   UNL d   1     -49.031  12.119  22.776  0.00  0.00    -0.206 NA
BRANCH  20  21
ATOM     21  C   UNL d   1     -49.849  12.177  22.859  0.00  0.00     0.104 C 
BRANCH  21  22
ATOM     22  C   UNL d   1     -50.348  12.083  22.212  0.00  0.00     0.047 C 
BRANCH  22  23
ATOM     23  C   UNL d   1     -50.924  12.653  22.057  0.00  0.00     0.118 C 
BRANCH  23  24
ATOM     24  O   UNL d   1     -50.871  13.133  21.385  0.00  0.00    -0.326 OA
ATOM     25  C   UNL d   1     -51.064  13.934  21.426  0.00  0.00     0.181 C 
ENDBRANCH  23  24
ENDBRANCH  22  23
ENDBRANCH  21  22
ENDBRANCH  20  21
ENDBRANCH   6  18
BRANCH   5  26
ATOM     26  C   UNL d   1     -46.023  13.763  22.411  0.00  0.00     0.083 C 
BRANCH  26  27
ATOM     27  C   UNL d   1     -46.006  14.483  22.817  0.00  0.00     0.019 C 
ATOM     28  C   UNL d   1     -45.471  15.072  22.597  0.00  0.00     0.002 C 
ENDBRANCH  26  27
ENDBRANCH   5  26
TORSDOF 7
ENDMDL
