MODEL 1
REMARK VINA RESULT:      -7.4      0.000      0.000
REMARK  5 active torsions:
REMARK  status: ('A' for Active; 'I' for Inactive)
REMARK    1  A    between atoms: C_12  and  C_4 
REMARK    2  A    between atoms: N_10  and  C_5 
REMARK    3  A    between atoms: C_11  and  C_8 
REMARK    4  A    between atoms: C_14  and  N_10 
REMARK    5  A    between atoms: C_15  and  C_14 
ROOT
ATOM      1  C   UNL d   1     -48.325  14.148  22.706  0.00  0.00     0.167 A 
ATOM      2  N   UNL d   1     -47.499  14.042  22.609  0.00  0.00    -0.195 N 
ATOM      3  N   UNL d   1     -48.808  13.498  22.817  0.00  0.00    -0.231 NA
ATOM      4  C   UNL d   1     -48.643  14.891  22.691  0.00  0.00     0.057 A 
ATOM      5  C   UNL d   1     -47.204  13.292  22.628  0.00  0.00     0.167 A 
ATOM      6  N   UNL d   1     -47.349  15.427  22.486  0.00  0.00    -0.161 NA
ATOM      7  C   UNL d   1     -47.679  12.633  22.737  0.00  0.00     0.054 A 
ATOM      8  C   UNL d   1     -48.491  12.737  22.833  0.00  0.00     0.063 A 
ATOM      9  C   UNL d   1     -48.162  15.532  22.582  0.00  0.00     0.124 A 
ENDROOT
BRANCH   5  10
ATOM     10  N   UNL d   1     -46.364  13.184  22.529  0.00  0.00    -0.224 NA
BRANCH  10  11
ATOM     11  C   UNL d   1     -45.702  12.777  22.862  0.00  0.00     0.120 C 
BRANCH  11  12
ATOM     12  C   UNL d   1     -44.975  12.708  22.436  0.00  0.00     0.101 A 
ATOM     13  N   UNL d   1     -44.756  13.301  21.867  0.00  0.00    -0.242 NA
ATOM     14  C   UNL d   1     -44.024  13.224  21.442  0.00  0.00     0.099 A 
ATOM     15  C   UNL d   1     -43.513  12.557  21.586  0.00  0.00     0.021 A 
ATOM     16  C   UNL d   1     -43.744  11.964  22.163  0.00  0.00     0.003 A 
ATOM     17  C   UNL d   1     -44.470  12.043  22.581  0.00  0.00     0.021 A 
ENDBRANCH  11  12
ENDBRANCH  10  11
ENDBRANCH   5  10
BRANCH   8  18
ATOM     18  C   UNL d   1     -48.999  12.061  22.948  0.00  0.00     0.036 C 
ATOM     19  C   UNL d   1     -49.502  11.395  23.057  0.00  0.00     0.006 C 
ATOM     20  C   UNL d   1     -49.001  11.659  23.698  0.00  0.00     0.006 C 
ATOM     21  C   UNL d   1     -49.502  11.793  22.311  0.00  0.00     0.006 C 
ENDBRANCH   8  18
BRANCH   4  22
ATOM     22  C   UNL d   1     -49.456  14.995  22.787  0.00  0.00     0.004 A 
ATOM     23  C   UNL d   1     -49.752  15.119  23.523  0.00  0.00     0.000 A 
ATOM     24  C   UNL d   1     -50.565  15.224  23.619  0.00  0.00     0.000 A 
ATOM     25  C   UNL d   1     -51.056  15.201  22.976  0.00  0.00     0.000 A 
ATOM     26  C   UNL d   1     -50.748  15.074  22.231  0.00  0.00     0.000 A 
ATOM     27  C   UNL d   1     -49.935  14.969  22.135  0.00  0.00     0.000 A 
ENDBRANCH   4  22
TORSDOF 5
ENDMDL
MODEL 2
REMARK VINA RESULT:      -5.5      7.212      9.502
REMARK  5 active torsions:
REMARK  status: ('A' for Active; 'I' for Inactive)
REMARK    1  A    between atoms: C_12  and  C_4 
REMARK    2  A    between atoms: N_10  and  C_5 
REMARK    3  A    between atoms: C_11  and  C_8 
REMARK    4  A    between atoms: C_14  and  N_10 
REMARK    5  A    between atoms: C_15  and  C_14 
ROOT
ATOM      1  C   UNL d   1     -39.149  13.891  20.682  0.00  0.00     0.167 A 
ATOM      2  N   UNL d   1     -39.087  13.745  19.859  0.00  0.00    -0.195 N 
ATOM      3  N   UNL d   1     -39.761  14.350  20.968  0.00  0.00    -0.231 NA
ATOM      4  C   UNL d   1     -38.605  13.578  21.192  0.00  0.00     0.057 A 
ATOM      5  C   UNL d   1     -39.641  14.067  19.370  0.00  0.00     0.167 A 
ATOM      6  N   UNL d   1     -37.940  12.980  20.095  0.00  0.00    -0.161 NA
ATOM      7  C   UNL d   1     -40.259  14.529  19.645  0.00  0.00     0.054 A 
ATOM      8  C   UNL d   1     -40.319  14.673  20.456  0.00  0.00     0.063 A 
ATOM      9  C   UNL d   1     -38.000  13.123  20.905  0.00  0.00     0.124 A 
ENDROOT
BRANCH   5  10
ATOM     10  N   UNL d   1     -39.578  13.918  18.533  0.00  0.00    -0.224 NA
BRANCH  10  11
ATOM     11  C   UNL d   1     -39.736  14.271  17.781  0.00  0.00     0.120 C 
BRANCH  11  12
ATOM     12  C   UNL d   1     -39.230  14.130  17.119  0.00  0.00     0.101 A 
ATOM     13  N   UNL d   1     -38.837  13.379  17.036  0.00  0.00    -0.242 NA
ATOM     14  C   UNL d   1     -38.330  13.244  16.367  0.00  0.00     0.099 A 
ATOM     15  C   UNL d   1     -38.216  13.856  15.785  0.00  0.00     0.021 A 
ATOM     16  C   UNL d   1     -38.617  14.609  15.879  0.00  0.00     0.003 A 
ATOM     17  C   UNL d   1     -39.118  14.740  16.542  0.00  0.00     0.021 A 
ENDBRANCH  11  12
ENDBRANCH  10  11
ENDBRANCH   5  10
BRANCH   8  18
ATOM     18  C   UNL d   1     -40.957  15.152  20.758  0.00  0.00     0.036 C 
ATOM     19  C   UNL d   1     -41.590  15.622  21.056  0.00  0.00     0.006 C 
ATOM     20  C   UNL d   1     -40.789  15.922  21.079  0.00  0.00     0.006 C 
ATOM     21  C   UNL d   1     -41.759  14.856  20.738  0.00  0.00     0.006 C 
ENDBRANCH   8  18
BRANCH   4  22
ATOM     22  C   UNL d   1     -38.666  13.722  22.002  0.00  0.00     0.004 A 
ATOM     23  C   UNL d   1     -38.253  14.329  22.326  0.00  0.00     0.000 A 
ATOM     24  C   UNL d   1     -38.314  14.473  23.136  0.00  0.00     0.000 A 
ATOM     25  C   UNL d   1     -38.786  14.004  23.597  0.00  0.00     0.000 A 
ATOM     26  C   UNL d   1     -39.203  13.388  23.261  0.00  0.00     0.000 A 
ATOM     27  C   UNL d   1     -39.142  13.244  22.451  0.00  0.00     0.000 A 
ENDBRANCH   4  22
TORSDOF 5
ENDMDL
