MODEL 1
REMARK VINA RESULT:      54.5      0.000      0.000
REMARK  6 active torsions:
REMARK  status: ('A' for Active; 'I' for Inactive)
REMARK    1  A    between atoms: O_9  and  S_1 
REMARK    2  A    between atoms: C_10  and  C_4 
REMARK    3  A    between atoms: C_14  and  O_9 
REMARK    4  A    between atoms: C_13  and  C_10 
REMARK    5  A    between atoms: C_16  and  C_13 
REMARK    6  A    between atoms: C_19  and  C_16 
ROOT
ATOM      1  C   UNL d   1     -48.323  29.020  35.543  0.00  0.00     0.064 A 
ATOM      2  C   UNL d   1     -48.079  29.156  34.766  0.00  0.00     0.105 A 
ATOM      3  C   UNL d   1     -48.734  27.988  34.798  0.00  0.00     0.139 A 
ATOM      4  C   UNL d   1     -48.726  28.300  35.561  0.00  0.00     0.220 A 
ATOM      5  O   UNL d   1     -48.332  28.518  34.299  0.00  0.00    -0.304 OA
ATOM      6  C   UNL d   1     -47.660  29.840  34.583  0.00  0.00     0.050 A 
ATOM      7  C   UNL d   1     -48.147  29.568  36.134  0.00  0.00     0.007 A 
ATOM      8  C   UNL d   1     -47.487  30.382  35.171  0.00  0.00     0.115 A 
ATOM      9  O   UNL d   1     -49.066  27.949  36.232  0.00  0.00    -0.284 OA
ATOM     10  C   UNL d   1     -47.727  30.253  35.947  0.00  0.00     0.026 A 
ENDROOT
BRANCH   3  11
ATOM     11  C   UNL d   1     -49.080  27.274  34.565  0.00  0.00     0.028 C 
BRANCH  11  12
ATOM     12  C   UNL d   1     -49.597  27.251  33.920  0.00  0.00     0.002 C 
BRANCH  12  13
ATOM     13  C   UNL d   1     -49.790  26.534  33.567  0.00  0.00     0.000 C 
BRANCH  13  14
ATOM     14  C   UNL d   1     -50.573  26.308  33.481  0.00  0.00     0.000 A 
ATOM     15  C   UNL d   1     -50.771  25.511  33.396  0.00  0.00     0.000 A 
ATOM     16  C   UNL d   1     -51.563  25.283  33.310  0.00  0.00     0.000 A 
ATOM     17  C   UNL d   1     -52.157  25.857  33.309  0.00  0.00     0.000 A 
ATOM     18  C   UNL d   1     -51.955  26.658  33.395  0.00  0.00     0.000 A 
ATOM     19  C   UNL d   1     -51.164  26.878  33.481  0.00  0.00     0.000 A 
ENDBRANCH  13  14
ENDBRANCH  12  13
ENDBRANCH  11  12
ENDBRANCH   3  11
BRANCH   8  20
ATOM     20  O   UNL d   1     -47.064  31.074  34.986  0.00  0.00    -0.230 OA
BRANCH  20  21
ATOM     21  S   UNL d   1     -47.462  31.797  34.932  0.00  0.00     0.285 S 
ATOM     22  O   UNL d   1     -46.635  31.797  34.911  0.00  0.00    -0.197 OA
ATOM     23  O   UNL d   1     -48.273  31.810  34.952  0.00  0.00    -0.197 OA
ATOM     24  C   UNL d   1     -47.453  32.627  34.858  0.00  0.00     0.172 C 
ENDBRANCH  20  21
ENDBRANCH   8  20
TORSDOF 6
ENDMDL
