MODEL 1
REMARK VINA RESULT:      78.9      0.000      0.000
REMARK  5 active torsions:
REMARK  status: ('A' for Active; 'I' for Inactive)
REMARK    1  A    between atoms: N_6  and  C_1 
REMARK    2  A    between atoms: C_11  and  C_5 
REMARK       I    between atoms: C_7  and  N_8 
REMARK    3  A    between atoms: C_10  and  C_7 
REMARK    4  A    between atoms: O_27  and  C_14 
REMARK    5  A    between atoms: O_28  and  C_21 
ROOT
ATOM      1  C   UNL d   1     -49.052  28.811  34.084  0.00  0.00     0.197 A 
ATOM      2  C   UNL d   1     -48.954  28.327  34.758  0.00  0.00     0.191 A 
ATOM      3  O   UNL d   1     -49.516  28.396  33.535  0.00  0.00    -0.270 OA
ATOM      4  N   UNL d   1     -49.357  27.632  34.608  0.00  0.00    -0.208 NA
ATOM      5  C   UNL d   1     -49.687  27.670  33.890  0.00  0.00     0.185 A 
ATOM      6  C   UNL d   1     -48.518  28.523  35.464  0.00  0.00     0.124 C 
ATOM      7  N   UNL d   1     -48.096  28.697  36.161  0.00  0.00    -0.190 NA
ENDROOT
BRANCH   1   8
ATOM      8  N   UNL d   1     -48.653  29.535  34.197  0.00  0.00    -0.280 N 
ATOM      9  C   UNL d   1     -48.018  29.561  34.752  0.00  0.00     0.101 A 
ATOM     10  C   UNL d   1     -47.619  30.286  34.864  0.00  0.00     0.102 A 
ATOM     11  N   UNL d   1     -47.851  30.972  34.430  0.00  0.00    -0.267 N 
ATOM     12  C   UNL d   1     -47.452  31.697  34.543  0.00  0.00     0.288 C 
ATOM     13  C   UNL d   1     -48.476  30.927  33.891  0.00  0.00     0.102 A 
ATOM     14  O   UNL d   1     -46.827  31.742  35.083  0.00  0.00    -0.264 OA
ATOM     15  C   UNL d   1     -48.871  30.195  33.785  0.00  0.00     0.101 A 
BRANCH  12  16
ATOM     16  C   UNL d   1     -47.682  32.380  34.112  0.00  0.00     0.156 A 
ATOM     17  O   UNL d   1     -48.417  32.739  33.984  0.00  0.00    -0.300 OA
ATOM     18  C   UNL d   1     -48.295  33.389  33.519  0.00  0.00     0.123 A 
ATOM     19  C   UNL d   1     -47.499  33.465  33.338  0.00  0.00     0.029 A 
ATOM     20  C   UNL d   1     -47.113  32.836  33.707  0.00  0.00     0.032 A 
ENDBRANCH  12  16
ENDBRANCH   1   8
BRANCH   5  21
ATOM     21  C   UNL d   1     -50.079  26.990  33.750  0.00  0.00     0.043 A 
ATOM     22  C   UNL d   1     -50.876  26.985  33.623  0.00  0.00     0.030 A 
ATOM     23  C   UNL d   1     -51.283  26.291  33.479  0.00  0.00     0.116 A 
ATOM     24  C   UNL d   1     -50.876  25.582  33.461  0.00  0.00     0.116 A 
ATOM     25  C   UNL d   1     -50.075  25.591  33.589  0.00  0.00     0.026 A 
ATOM     26  C   UNL d   1     -49.668  26.285  33.733  0.00  0.00     0.006 A 
BRANCH  23  27
ATOM     27  O   UNL d   1     -52.119  26.323  33.350  0.00  0.00    -0.326 OA
ATOM     28  C   UNL d   1     -52.524  27.034  33.352  0.00  0.00     0.181 C 
ENDBRANCH  23  27
BRANCH  24  29
ATOM     29  O   UNL d   1     -51.269  24.871  33.317  0.00  0.00    -0.326 OA
ATOM     30  C   UNL d   1     -51.127  24.217  33.783  0.00  0.00     0.181 C 
ENDBRANCH  24  29
ENDBRANCH   5  21
TORSDOF 5
ENDMDL
MODEL 2
REMARK VINA RESULT:      80.5      1.438      6.280
REMARK  5 active torsions:
REMARK  status: ('A' for Active; 'I' for Inactive)
REMARK    1  A    between atoms: N_6  and  C_1 
REMARK    2  A    between atoms: C_11  and  C_5 
REMARK       I    between atoms: C_7  and  N_8 
REMARK    3  A    between atoms: C_10  and  C_7 
REMARK    4  A    between atoms: O_27  and  C_14 
REMARK    5  A    between atoms: O_28  and  C_21 
ROOT
ATOM      1  C   UNL d   1     -49.497  27.207  34.444  0.00  0.00     0.197 A 
ATOM      2  C   UNL d   1     -49.738  27.432  35.211  0.00  0.00     0.191 A 
ATOM      3  O   UNL d   1     -48.923  27.749  34.186  0.00  0.00    -0.270 OA
ATOM      4  N   UNL d   1     -49.310  28.101  35.405  0.00  0.00    -0.208 NA
ATOM      5  C   UNL d   1     -48.831  28.289  34.804  0.00  0.00     0.185 A 
ATOM      6  C   UNL d   1     -50.318  27.039  35.696  0.00  0.00     0.124 C 
ATOM      7  N   UNL d   1     -50.883  26.667  36.183  0.00  0.00    -0.190 NA
ENDROOT
BRANCH   1   8
ATOM      8  N   UNL d   1     -49.912  26.524  34.206  0.00  0.00    -0.280 N 
ATOM      9  C   UNL d   1     -49.469  25.829  34.021  0.00  0.00     0.101 A 
ATOM     10  C   UNL d   1     -49.885  25.146  33.783  0.00  0.00     0.102 A 
ATOM     11  N   UNL d   1     -50.728  25.156  33.731  0.00  0.00    -0.267 N 
ATOM     12  C   UNL d   1     -51.144  24.472  33.493  0.00  0.00     0.288 C 
ATOM     13  C   UNL d   1     -51.145  25.846  33.916  0.00  0.00     0.102 A 
ATOM     14  O   UNL d   1     -50.727  23.782  33.307  0.00  0.00    -0.264 OA
ATOM     15  C   UNL d   1     -50.718  26.528  34.154  0.00  0.00     0.101 A 
BRANCH  12  16
ATOM     16  C   UNL d   1     -51.982  24.481  33.441  0.00  0.00     0.156 A 
ATOM     17  O   UNL d   1     -52.527  25.088  33.306  0.00  0.00    -0.300 OA
ATOM     18  C   UNL d   1     -53.266  24.762  33.316  0.00  0.00     0.123 A 
ATOM     19  C   UNL d   1     -53.220  23.955  33.454  0.00  0.00     0.029 A 
ATOM     20  C   UNL d   1     -52.418  23.776  33.532  0.00  0.00     0.032 A 
ENDBRANCH  12  16
ENDBRANCH   1   8
BRANCH   5  21
ATOM     21  C   UNL d   1     -48.416  28.941  34.999  0.00  0.00     0.043 A 
ATOM     22  C   UNL d   1     -47.912  28.942  35.630  0.00  0.00     0.030 A 
ATOM     23  C   UNL d   1     -47.484  29.608  35.835  0.00  0.00     0.116 A 
ATOM     24  C   UNL d   1     -47.566  30.291  35.394  0.00  0.00     0.116 A 
ATOM     25  C   UNL d   1     -48.074  30.286  34.761  0.00  0.00     0.026 A 
ATOM     26  C   UNL d   1     -48.501  29.621  34.556  0.00  0.00     0.006 A 
BRANCH  23  27
ATOM     27  O   UNL d   1     -46.964  29.574  36.503  0.00  0.00    -0.326 OA
ATOM     28  C   UNL d   1     -46.994  30.136  37.096  0.00  0.00     0.181 C 
ENDBRANCH  23  27
BRANCH  24  29
ATOM     29  O   UNL d   1     -47.142  30.973  35.586  0.00  0.00    -0.326 OA
ATOM     30  C   UNL d   1     -47.029  31.560  35.031  0.00  0.00     0.181 C 
ENDBRANCH  24  29
ENDBRANCH   5  21
TORSDOF 5
ENDMDL
