MODEL 1
REMARK VINA RESULT:      73.9      0.000      0.000
REMARK  8 active torsions:
REMARK  status: ('A' for Active; 'I' for Inactive)
REMARK    1  A    between atoms: N_6  and  C_1 
REMARK    2  A    between atoms: N_7  and  C_2 
REMARK       I    between atoms: C_8  and  N_6 
REMARK       I    between atoms: C_9  and  N_7 
REMARK    3  A    between atoms: C_14  and  C_8 
REMARK    4  A    between atoms: C_15  and  C_9 
REMARK    5  A    between atoms: O_12  and  C_14 
REMARK    6  A    between atoms: C_16  and  O_12 
REMARK    7  A    between atoms: O_13  and  C_15 
REMARK    8  A    between atoms: C_17  and  O_13 
ROOT
ATOM      1  C   UNL d   1     -56.684 -99.056 -44.333  0.00  0.00     0.232 A 
ATOM      2  C   UNL d   1     -55.869 -99.168 -44.398  0.00  0.00     0.232 A 
ATOM      3  N   UNL d   1     -56.959 -98.855 -45.094  0.00  0.00    -0.081 NA
ATOM      4  N   UNL d   1     -55.649 -99.041 -45.169  0.00  0.00    -0.081 NA
ATOM      5  O   UNL d   1     -56.297 -98.851 -45.601  0.00  0.00    -0.103 OA
ENDROOT
BRANCH   1   6
ATOM      6  N   UNL d   1     -57.054 -99.152 -43.600  0.00  0.00    -0.182 NA
ATOM      7  C   UNL d   1     -57.873 -99.031 -43.535  0.00  0.00     0.306 C 
ATOM      8  O   UNL d   1     -58.259 -99.123 -42.810  0.00  0.00    -0.263 OA
BRANCH   7   9
ATOM      9  C   UNL d   1     -58.312 -98.815 -44.211  0.00  0.00     0.185 C 
BRANCH   9  10
ATOM     10  O   UNL d   1     -59.093 -99.081 -44.295  0.00  0.00    -0.300 OA
BRANCH  10  11
ATOM     11  C   UNL d   1     -59.380 -99.297 -45.036  0.00  0.00     0.100 A 
ATOM     12  C   UNL d   1     -59.672-100.065 -45.145  0.00  0.00     0.025 A 
ATOM     13  C   UNL d   1     -59.960-100.284 -45.886  0.00  0.00     0.002 A 
ATOM     14  C   UNL d   1     -59.960 -99.754 -46.511  0.00  0.00     0.000 A 
ATOM     15  C   UNL d   1     -59.668 -98.983 -46.403  0.00  0.00     0.002 A 
ATOM     16  C   UNL d   1     -59.375 -98.755 -45.656  0.00  0.00     0.025 A 
ENDBRANCH  10  11
ENDBRANCH   9  10
ENDBRANCH   7   9
ENDBRANCH   1   6
BRANCH   2  17
ATOM     17  N   UNL d   1     -55.356 -99.379 -43.762  0.00  0.00    -0.182 NA
ATOM     18  C   UNL d   1     -55.337-100.154 -43.473  0.00  0.00     0.306 C 
ATOM     19  O   UNL d   1     -54.837-100.344 -42.858  0.00  0.00    -0.263 OA
BRANCH  18  20
ATOM     20  C   UNL d   1     -55.835-100.736 -43.819  0.00  0.00     0.185 C 
BRANCH  20  21
ATOM     21  O   UNL d   1     -55.590-101.517 -43.881  0.00  0.00    -0.300 OA
BRANCH  21  22
ATOM     22  C   UNL d   1     -55.310-101.797 -44.607  0.00  0.00     0.100 A 
ATOM     23  C   UNL d   1     -55.008-101.296 -45.182  0.00  0.00     0.025 A 
ATOM     24  C   UNL d   1     -54.723-101.540 -45.910  0.00  0.00     0.002 A 
ATOM     25  C   UNL d   1     -54.754-102.367 -46.051  0.00  0.00     0.000 A 
ATOM     26  C   UNL d   1     -55.055-102.879 -45.481  0.00  0.00     0.002 A 
ATOM     27  C   UNL d   1     -55.335-102.606 -44.757  0.00  0.00     0.025 A 
ENDBRANCH  21  22
ENDBRANCH  20  21
ENDBRANCH  18  20
ENDBRANCH   2  17
TORSDOF 8
ENDMDL
MODEL 2
REMARK VINA RESULT:      74.1      4.133      6.205
REMARK  8 active torsions:
REMARK  status: ('A' for Active; 'I' for Inactive)
REMARK    1  A    between atoms: N_6  and  C_1 
REMARK    2  A    between atoms: N_7  and  C_2 
REMARK       I    between atoms: C_8  and  N_6 
REMARK       I    between atoms: C_9  and  N_7 
REMARK    3  A    between atoms: C_14  and  C_8 
REMARK    4  A    between atoms: C_15  and  C_9 
REMARK    5  A    between atoms: O_12  and  C_14 
REMARK    6  A    between atoms: C_16  and  O_12 
REMARK    7  A    between atoms: O_13  and  C_15 
REMARK    8  A    between atoms: C_17  and  O_13 
ROOT
ATOM      1  C   UNL d   1     -55.021-101.253 -40.521  0.00  0.00     0.232 A 
ATOM      2  C   UNL d   1     -54.948-100.927 -41.275  0.00  0.00     0.232 A 
ATOM      3  N   UNL d   1     -55.265-102.044 -40.626  0.00  0.00    -0.081 NA
ATOM      4  N   UNL d   1     -55.139-101.493 -41.824  0.00  0.00    -0.081 NA
ATOM      5  O   UNL d   1     -55.333-102.173 -41.447  0.00  0.00    -0.103 OA
ENDROOT
BRANCH   1   6
ATOM      6  N   UNL d   1     -54.857-100.791 -39.856  0.00  0.00    -0.182 NA
ATOM      7  C   UNL d   1     -54.891-101.132 -39.099  0.00  0.00     0.306 C 
ATOM      8  O   UNL d   1     -54.731-100.685 -38.424  0.00  0.00    -0.263 OA
BRANCH   7   9
ATOM      9  C   UNL d   1     -55.091-101.939 -39.021  0.00  0.00     0.185 C 
BRANCH   9  10
ATOM     10  O   UNL d   1     -54.738-102.392 -38.423  0.00  0.00    -0.300 OA
BRANCH  10  11
ATOM     11  C   UNL d   1     -54.945-102.272 -37.635  0.00  0.00     0.100 A 
ATOM     12  C   UNL d   1     -54.766-101.545 -37.280  0.00  0.00     0.025 A 
ATOM     13  C   UNL d   1     -54.972-101.422 -36.491  0.00  0.00     0.002 A 
ATOM     14  C   UNL d   1     -55.348-102.007 -36.058  0.00  0.00     0.000 A 
ATOM     15  C   UNL d   1     -55.529-102.737 -36.414  0.00  0.00     0.002 A 
ATOM     16  C   UNL d   1     -55.323-102.868 -37.211  0.00  0.00     0.025 A 
ENDBRANCH  10  11
ENDBRANCH   9  10
ENDBRANCH   7   9
ENDBRANCH   1   6
BRANCH   2  17
ATOM     17  N   UNL d   1     -54.712-100.133 -41.439  0.00  0.00    -0.182 NA
ATOM     18  C   UNL d   1     -55.037 -99.718 -42.076  0.00  0.00     0.306 C 
ATOM     19  O   UNL d   1     -54.800 -98.952 -42.222  0.00  0.00    -0.263 OA
BRANCH  18  20
ATOM     20  C   UNL d   1     -55.608-100.093 -42.566  0.00  0.00     0.185 C 
BRANCH  20  21
ATOM     21  O   UNL d   1     -56.109 -99.651 -43.042  0.00  0.00    -0.300 OA
BRANCH  21  22
ATOM     22  C   UNL d   1     -55.987 -99.641 -43.859  0.00  0.00     0.100 A 
ATOM     23  C   UNL d   1     -55.409-100.098 -44.221  0.00  0.00     0.025 A 
ATOM     24  C   UNL d   1     -55.261-100.112 -45.026  0.00  0.00     0.002 A 
ATOM     25  C   UNL d   1     -55.750 -99.611 -45.491  0.00  0.00     0.000 A 
ATOM     26  C   UNL d   1     -56.332 -99.149 -45.139  0.00  0.00     0.002 A 
ATOM     27  C   UNL d   1     -56.459 -99.155 -44.326  0.00  0.00     0.025 A 
ENDBRANCH  21  22
ENDBRANCH  20  21
ENDBRANCH  18  20
ENDBRANCH   2  17
TORSDOF 8
ENDMDL
