MODEL 1
REMARK VINA RESULT:      88.1      0.000      0.000
REMARK  7 active torsions:
REMARK  status: ('A' for Active; 'I' for Inactive)
REMARK    1  A    between atoms: O_8  and  C_2 
REMARK    2  A    between atoms: C_10  and  C_5 
REMARK    3  A    between atoms: C_21  and  O_8 
REMARK    4  A    between atoms: N_9  and  C_10 
REMARK    5  A    between atoms: C_12  and  C_15 
REMARK    6  A    between atoms: O_26  and  C_12 
REMARK    7  A    between atoms: C_32  and  O_26 
ROOT
ATOM      1  C   UNL d   1     -49.685  27.257  34.612  0.00  0.00     0.108 A 
ATOM      2  C   UNL d   1     -48.395  28.143  35.170  0.00  0.00     0.161 A 
ATOM      3  C   UNL d   1     -49.718  27.618  35.367  0.00  0.00     0.064 A 
ATOM      4  C   UNL d   1     -49.081  28.056  35.643  0.00  0.00     0.222 A 
ATOM      5  C   UNL d   1     -50.329  26.815  34.333  0.00  0.00     0.079 A 
ATOM      6  O   UNL d   1     -49.010  27.338  34.136  0.00  0.00    -0.305 OA
ATOM      7  C   UNL d   1     -48.362  27.786  34.421  0.00  0.00     0.126 A 
ATOM      8  C   UNL d   1     -50.404  27.526  35.829  0.00  0.00     0.009 A 
ATOM      9  C   UNL d   1     -51.004  26.729  34.798  0.00  0.00     0.199 A 
ATOM     10  O   UNL d   1     -49.111  28.413  36.387  0.00  0.00    -0.284 OA
ATOM     11  C   UNL d   1     -51.041  27.086  35.550  0.00  0.00     0.042 A 
ATOM     12  O   UNL d   1     -51.641  26.292  34.525  0.00  0.00    -0.286 OA
ATOM     13  C   UNL d   1     -47.687  27.872  33.957  0.00  0.00     0.029 C 
ENDROOT
BRANCH   2  14
ATOM     14  O   UNL d   1     -47.757  28.583  35.449  0.00  0.00    -0.302 OA
BRANCH  14  15
ATOM     15  C   UNL d   1     -47.716  29.390  35.294  0.00  0.00     0.100 A 
ATOM     16  C   UNL d   1     -48.266  29.740  34.791  0.00  0.00     0.025 A 
ATOM     17  C   UNL d   1     -48.224  30.547  34.635  0.00  0.00     0.007 A 
ATOM     18  C   UNL d   1     -47.632  31.004  34.982  0.00  0.00     0.064 A 
ATOM     19  C   UNL d   1     -47.077  30.645  35.491  0.00  0.00     0.007 A 
ATOM     20  C   UNL d   1     -47.122  29.844  35.642  0.00  0.00     0.025 A 
BRANCH  18  21
ATOM     21  C   UNL d   1     -47.587  31.815  34.828  0.00  0.00     0.300 C 
ATOM     22  O   UNL d   1     -47.274  32.329  35.392  0.00  0.00    -0.259 OA
BRANCH  21  23
ATOM     23  O   UNL d   1     -47.855  32.119  34.108  0.00  0.00    -0.271 OA
BRANCH  23  24
ATOM     24  C   UNL d   1     -47.920  32.936  34.011  0.00  0.00     0.126 C 
ATOM     25  C   UNL d   1     -47.442  33.330  33.469  0.00  0.00     0.029 C 
ENDBRANCH  23  24
ENDBRANCH  21  23
ENDBRANCH  18  21
ENDBRANCH  14  15
ENDBRANCH   2  14
BRANCH   5  26
ATOM     26  C   UNL d   1     -50.293  26.465  33.597  0.00  0.00     0.086 C 
BRANCH  26  27
ATOM     27  N   UNL d   1     -50.382  25.645  33.524  0.00  0.00    -0.300 N 
ATOM     28  C   UNL d   1     -49.723  25.153  33.580  0.00  0.00     0.100 A 
ATOM     29  C   UNL d   1     -49.813  24.340  33.507  0.00  0.00     0.100 A 
ATOM     30  N   UNL d   1     -50.557  24.014  33.380  0.00  0.00    -0.299 N 
ATOM     31  C   UNL d   1     -51.219  24.510  33.324  0.00  0.00     0.100 A 
ATOM     32  C   UNL d   1     -50.648  23.192  33.306  0.00  0.00     0.100 C 
ATOM     33  C   UNL d   1     -51.130  25.329  33.396  0.00  0.00     0.100 A 
ENDBRANCH  26  27
ENDBRANCH   5  26
TORSDOF 7
ENDMDL
