MODEL 1
REMARK VINA RESULT:      43.1      0.000      0.000
REMARK  2 active torsions:
REMARK  status: ('A' for Active; 'I' for Inactive)
REMARK    1  A    between atoms: C_2  and  C_1 
REMARK       I    between atoms: N_7  and  C_2 
REMARK    2  A    between atoms: C_9  and  N_7 
ROOT
ATOM      1  C   UNL d   1     -55.515 -99.258 -45.298  0.00  0.00     0.280 C 
ATOM      2  N   UNL d   1     -55.048 -99.937 -45.330  0.00  0.00    -0.208 NA
ATOM      3  O   UNL d   1     -55.545 -98.756 -45.953  0.00  0.00    -0.265 OA
ENDROOT
BRANCH   1   4
ATOM      4  C   UNL d   1     -55.946 -99.084 -44.617  0.00  0.00     0.065 A 
ATOM      5  C   UNL d   1     -56.768 -99.031 -44.568  0.00  0.00     0.011 A 
ATOM      6  C   UNL d   1     -56.955 -98.847 -43.790  0.00  0.00     0.030 A 
ATOM      7  C   UNL d   1     -57.362 -99.124 -45.124  0.00  0.00     0.001 A 
ATOM      8  C   UNL d   1     -57.747 -98.756 -43.563  0.00  0.00     0.006 A 
ATOM      9  S   UNL d   1     -56.253 -98.788 -43.360  0.00  0.00    -0.086 SA
ATOM     10  C   UNL d   1     -58.331 -98.847 -44.110  0.00  0.00     0.001 A 
ATOM     11  C   UNL d   1     -58.151 -99.032 -44.896  0.00  0.00     0.000 A 
ATOM     12  C   UNL d   1     -55.630 -98.937 -43.883  0.00  0.00     0.040 A 
ENDBRANCH   1   4
BRANCH   2  13
ATOM     13  C   UNL d   1     -55.015-100.446 -44.671  0.00  0.00     0.085 A 
ATOM     14  C   UNL d   1     -55.251-101.230 -44.746  0.00  0.00     0.019 A 
ATOM     15  C   UNL d   1     -55.218-101.736 -44.089  0.00  0.00     0.002 A 
ATOM     16  C   UNL d   1     -54.948-101.456 -43.362  0.00  0.00     0.000 A 
ATOM     17  C   UNL d   1     -54.711-100.662 -43.295  0.00  0.00     0.002 A 
ATOM     18  C   UNL d   1     -54.920-101.972 -42.713  0.00  0.00     0.000 C 
ATOM     19  C   UNL d   1     -54.745-100.159 -43.948  0.00  0.00     0.019 A 
ENDBRANCH   2  13
TORSDOF 2
ENDMDL
MODEL 2
REMARK VINA RESULT:      45.8      1.808      3.518
REMARK  2 active torsions:
REMARK  status: ('A' for Active; 'I' for Inactive)
REMARK    1  A    between atoms: C_2  and  C_1 
REMARK       I    between atoms: N_7  and  C_2 
REMARK    2  A    between atoms: C_9  and  N_7 
ROOT
ATOM      1  C   UNL d   1     -57.750 -98.895 -44.947  0.00  0.00     0.280 C 
ATOM      2  N   UNL d   1     -58.562 -98.886 -44.811  0.00  0.00    -0.208 NA
ATOM      3  O   UNL d   1     -57.469 -98.923 -45.724  0.00  0.00    -0.265 OA
ENDROOT
BRANCH   1   4
ATOM      4  C   UNL d   1     -57.223 -98.875 -44.313  0.00  0.00     0.065 A 
ATOM      5  C   UNL d   1     -56.400 -98.834 -44.370  0.00  0.00     0.011 A 
ATOM      6  C   UNL d   1     -56.102 -98.827 -43.606  0.00  0.00     0.030 A 
ATOM      7  C   UNL d   1     -55.892 -98.804 -45.013  0.00  0.00     0.001 A 
ATOM      8  C   UNL d   1     -55.284 -98.788 -43.480  0.00  0.00     0.006 A 
ATOM      9  S   UNL d   1     -56.735 -98.862 -43.079  0.00  0.00    -0.086 SA
ATOM     10  C   UNL d   1     -54.784 -98.758 -44.110  0.00  0.00     0.001 A 
ATOM     11  C   UNL d   1     -55.077 -98.766 -44.884  0.00  0.00     0.000 A 
ATOM     12  C   UNL d   1     -57.430 -98.892 -43.528  0.00  0.00     0.040 A 
ENDBRANCH   1   4
BRANCH   2  13
ATOM     13  C   UNL d   1     -58.849 -98.857 -44.029  0.00  0.00     0.085 A 
ATOM     14  C   UNL d   1     -58.321 -98.806 -43.401  0.00  0.00     0.019 A 
ATOM     15  C   UNL d   1     -58.608 -98.777 -42.622  0.00  0.00     0.002 A 
ATOM     16  C   UNL d   1     -59.420 -98.800 -42.478  0.00  0.00     0.000 A 
ATOM     17  C   UNL d   1     -59.946 -98.851 -43.118  0.00  0.00     0.002 A 
ATOM     18  C   UNL d   1     -59.693 -98.770 -41.694  0.00  0.00     0.000 C 
ATOM     19  C   UNL d   1     -59.661 -98.880 -43.892  0.00  0.00     0.019 A 
ENDBRANCH   2  13
TORSDOF 2
ENDMDL
