MODEL 1
REMARK VINA RESULT:      -7.8      0.000      0.000
REMARK  2 active torsions:
REMARK  status: ('A' for Active; 'I' for Inactive)
REMARK    1  A    between atoms: C_6  and  C_1 
REMARK    2  A    between atoms: O_15  and  C_12 
ROOT
ATOM      1  C   UNL d   1     -46.749  12.911  23.054  0.00  0.00     0.128 A 
ATOM      2  C   UNL d   1     -46.588  12.201  23.488  0.00  0.00     0.306 A 
ATOM      3  C   UNL d   1     -47.522  13.086  22.856  0.00  0.00     0.013 A 
ATOM      4  O   UNL d   1     -47.212  11.720  23.691  0.00  0.00    -0.273 OA
ATOM      5  C   UNL d   1     -48.126  12.603  23.061  0.00  0.00     0.025 A 
ATOM      6  C   UNL d   1     -47.965  11.893  23.495  0.00  0.00     0.103 A 
ATOM      7  O   UNL d   1     -45.799  12.014  23.697  0.00  0.00    -0.259 OA
ATOM      8  C   UNL d   1     -48.906  12.776  22.862  0.00  0.00     0.026 A 
ATOM      9  C   UNL d   1     -48.596  11.410  23.698  0.00  0.00     0.027 A 
ATOM     10  C   UNL d   1     -49.540  12.286  23.068  0.00  0.00     0.094 A 
ATOM     11  C   UNL d   1     -49.379  11.577  23.502  0.00  0.00     0.026 A 
ENDROOT
BRANCH   1  12
ATOM     12  C   UNL d   1     -46.119  13.422  22.836  0.00  0.00     0.216 C 
ATOM     13  O   UNL d   1     -45.914  14.052  23.321  0.00  0.00    -0.644 OA
ATOM     14  O   UNL d   1     -45.703  13.286  22.125  0.00  0.00    -0.644 OA
ENDBRANCH   1  12
BRANCH  10  15
ATOM     15  O   UNL d   1     -50.318  12.482  22.857  0.00  0.00    -0.328 OA
ATOM     16  C   UNL d   1     -50.943  12.304  23.359  0.00  0.00     0.181 C 
ENDBRANCH  10  15
TORSDOF 2
ENDMDL
MODEL 2
REMARK VINA RESULT:      -7.7      1.496      1.997
REMARK  2 active torsions:
REMARK  status: ('A' for Active; 'I' for Inactive)
REMARK    1  A    between atoms: C_6  and  C_1 
REMARK    2  A    between atoms: O_15  and  C_12 
ROOT
ATOM      1  C   UNL d   1     -46.487  13.224  22.716  0.00  0.00     0.128 A 
ATOM      2  C   UNL d   1     -46.547  13.978  23.095  0.00  0.00     0.306 A 
ATOM      3  C   UNL d   1     -47.122  12.947  22.284  0.00  0.00     0.013 A 
ATOM      4  O   UNL d   1     -47.239  14.400  23.014  0.00  0.00    -0.273 OA
ATOM      5  C   UNL d   1     -47.797  13.372  22.212  0.00  0.00     0.025 A 
ATOM      6  C   UNL d   1     -47.857  14.127  22.592  0.00  0.00     0.103 A 
ATOM      7  O   UNL d   1     -45.901  14.271  23.541  0.00  0.00    -0.259 OA
ATOM      8  C   UNL d   1     -48.439  13.096  21.778  0.00  0.00     0.026 A 
ATOM      9  C   UNL d   1     -48.555  14.549  22.508  0.00  0.00     0.027 A 
ATOM     10  C   UNL d   1     -49.142  13.524  21.695  0.00  0.00     0.094 A 
ATOM     11  C   UNL d   1     -49.202  14.279  22.075  0.00  0.00     0.026 A 
ENDROOT
BRANCH   1  12
ATOM     12  C   UNL d   1     -45.781  12.773  22.788  0.00  0.00     0.216 C 
ATOM     13  O   UNL d   1     -45.149  12.916  22.283  0.00  0.00    -0.644 OA
ATOM     14  O   UNL d   1     -45.725  12.180  23.373  0.00  0.00    -0.644 OA
ENDBRANCH   1  12
BRANCH  10  15
ATOM     15  O   UNL d   1     -49.775  13.225  21.252  0.00  0.00    -0.328 OA
ATOM     16  C   UNL d   1     -50.538  13.232  21.559  0.00  0.00     0.181 C 
ENDBRANCH  10  15
TORSDOF 2
ENDMDL
MODEL 3
REMARK VINA RESULT:      -7.6      1.745      3.573
REMARK  2 active torsions:
REMARK  status: ('A' for Active; 'I' for Inactive)
REMARK    1  A    between atoms: C_6  and  C_1 
REMARK    2  A    between atoms: O_15  and  C_12 
ROOT
ATOM      1  C   UNL d   1     -49.073  14.715  22.969  0.00  0.00     0.128 A 
ATOM      2  C   UNL d   1     -49.396  13.952  23.146  0.00  0.00     0.306 A 
ATOM      3  C   UNL d   1     -48.267  14.785  22.852  0.00  0.00     0.013 A 
ATOM      4  O   UNL d   1     -48.889  13.317  23.193  0.00  0.00    -0.273 OA
ATOM      5  C   UNL d   1     -47.781  14.152  22.901  0.00  0.00     0.025 A 
ATOM      6  C   UNL d   1     -48.104  13.389  23.078  0.00  0.00     0.103 A 
ATOM      7  O   UNL d   1     -50.220  13.870  23.268  0.00  0.00    -0.259 OA
ATOM      8  C   UNL d   1     -46.969  14.219  22.784  0.00  0.00     0.026 A 
ATOM      9  C   UNL d   1     -47.591  12.751  23.125  0.00  0.00     0.027 A 
ATOM     10  C   UNL d   1     -46.454  13.574  22.831  0.00  0.00     0.094 A 
ATOM     11  C   UNL d   1     -46.777  12.811  23.008  0.00  0.00     0.026 A 
ENDROOT
BRANCH   1  12
ATOM     12  C   UNL d   1     -49.579  15.383  22.917  0.00  0.00     0.216 C 
ATOM     13  O   UNL d   1     -49.937  15.572  22.201  0.00  0.00    -0.644 OA
ATOM     14  O   UNL d   1     -49.717  15.854  23.592  0.00  0.00    -0.644 OA
ENDBRANCH   1  12
BRANCH  10  15
ATOM     15  O   UNL d   1     -45.639  13.667  22.709  0.00  0.00    -0.328 OA
ATOM     16  C   UNL d   1     -45.255  13.239  22.121  0.00  0.00     0.181 C 
ENDBRANCH  10  15
TORSDOF 2
ENDMDL
MODEL 4
REMARK VINA RESULT:      -6.3      1.057      3.572
REMARK  2 active torsions:
REMARK  status: ('A' for Active; 'I' for Inactive)
REMARK    1  A    between atoms: C_6  and  C_1 
REMARK    2  A    between atoms: O_15  and  C_12 
ROOT
ATOM      1  C   UNL d   1     -48.622  12.239  23.407  0.00  0.00     0.128 A 
ATOM      2  C   UNL d   1     -48.888  13.043  23.386  0.00  0.00     0.306 A 
ATOM      3  C   UNL d   1     -47.839  12.077  23.242  0.00  0.00     0.013 A 
ATOM      4  O   UNL d   1     -48.349  13.625  23.201  0.00  0.00    -0.273 OA
ATOM      5  C   UNL d   1     -47.320  12.659  23.062  0.00  0.00     0.025 A 
ATOM      6  C   UNL d   1     -47.586  13.463  23.041  0.00  0.00     0.103 A 
ATOM      7  O   UNL d   1     -49.689  13.219  23.554  0.00  0.00    -0.259 OA
ATOM      8  C   UNL d   1     -46.531  12.499  22.895  0.00  0.00     0.026 A 
ATOM      9  C   UNL d   1     -47.041  14.047  22.854  0.00  0.00     0.027 A 
ATOM     10  C   UNL d   1     -45.983  13.090  22.707  0.00  0.00     0.094 A 
ATOM     11  C   UNL d   1     -46.248  13.894  22.686  0.00  0.00     0.026 A 
ENDROOT
BRANCH   1  12
ATOM     12  C   UNL d   1     -49.163  11.623  23.596  0.00  0.00     0.216 C 
ATOM     13  O   UNL d   1     -48.891  10.854  23.693  0.00  0.00    -0.644 OA
ATOM     14  O   UNL d   1     -49.974  11.796  23.684  0.00  0.00    -0.644 OA
ENDBRANCH   1  12
BRANCH  10  15
ATOM     15  O   UNL d   1     -45.192  12.904  22.543  0.00  0.00    -0.328 OA
ATOM     16  C   UNL d   1     -44.800  13.268  21.919  0.00  0.00     0.181 C 
ENDBRANCH  10  15
TORSDOF 2
ENDMDL
MODEL 5
REMARK VINA RESULT:      -5.9      1.805      3.145
REMARK  2 active torsions:
REMARK  status: ('A' for Active; 'I' for Inactive)
REMARK    1  A    between atoms: C_6  and  C_1 
REMARK    2  A    between atoms: O_15  and  C_12 
ROOT
ATOM      1  C   UNL d   1     -48.969  12.112  23.117  0.00  0.00     0.128 A 
ATOM      2  C   UNL d   1     -49.768  12.124  23.400  0.00  0.00     0.306 A 
ATOM      3  C   UNL d   1     -48.611  12.819  22.916  0.00  0.00     0.013 A 
ATOM      4  O   UNL d   1     -50.148  12.841  23.462  0.00  0.00    -0.273 OA
ATOM      5  C   UNL d   1     -48.997  13.517  22.982  0.00  0.00     0.025 A 
ATOM      6  C   UNL d   1     -49.795  13.528  23.265  0.00  0.00     0.103 A 
ATOM      7  O   UNL d   1     -50.143  11.405  23.609  0.00  0.00    -0.259 OA
ATOM      8  C   UNL d   1     -48.639  14.230  22.780  0.00  0.00     0.026 A 
ATOM      9  C   UNL d   1     -50.176  14.252  23.326  0.00  0.00     0.027 A 
ATOM     10  C   UNL d   1     -49.026  14.959  22.843  0.00  0.00     0.094 A 
ATOM     11  C   UNL d   1     -49.824  14.970  23.126  0.00  0.00     0.026 A 
ENDROOT
BRANCH   1  12
ATOM     12  C   UNL d   1     -48.559  11.382  23.047  0.00  0.00     0.216 C 
ATOM     13  O   UNL d   1     -48.172  11.064  23.698  0.00  0.00    -0.644 OA
ATOM     14  O   UNL d   1     -48.547  10.983  22.314  0.00  0.00    -0.644 OA
ENDBRANCH   1  12
BRANCH  10  15
ATOM     15  O   UNL d   1     -48.644  15.665  22.634  0.00  0.00    -0.328 OA
ATOM     16  C   UNL d   1     -47.958  15.649  22.182  0.00  0.00     0.181 C 
ENDBRANCH  10  15
TORSDOF 2
ENDMDL
MODEL 6
REMARK VINA RESULT:      -5.7      1.939      2.501
REMARK  2 active torsions:
REMARK  status: ('A' for Active; 'I' for Inactive)
REMARK    1  A    between atoms: C_6  and  C_1 
REMARK    2  A    between atoms: O_15  and  C_12 
ROOT
ATOM      1  C   UNL d   1     -44.847  12.590  22.313  0.00  0.00     0.128 A 
ATOM      2  C   UNL d   1     -45.092  12.026  22.896  0.00  0.00     0.306 A 
ATOM      3  C   UNL d   1     -45.324  13.237  22.165  0.00  0.00     0.013 A 
ATOM      4  O   UNL d   1     -45.795  12.150  23.287  0.00  0.00    -0.273 OA
ATOM      5  C   UNL d   1     -46.013  13.346  22.557  0.00  0.00     0.025 A 
ATOM      6  C   UNL d   1     -46.258  12.782  23.139  0.00  0.00     0.103 A 
ATOM      7  O   UNL d   1     -44.609  11.360  23.055  0.00  0.00    -0.259 OA
ATOM      8  C   UNL d   1     -46.496  13.997  22.410  0.00  0.00     0.026 A 
ATOM      9  C   UNL d   1     -46.967  12.910  23.531  0.00  0.00     0.027 A 
ATOM     10  C   UNL d   1     -47.211  14.123  22.807  0.00  0.00     0.094 A 
ATOM     11  C   UNL d   1     -47.455  13.559  23.389  0.00  0.00     0.026 A 
ENDROOT
BRANCH   1  12
ATOM     12  C   UNL d   1     -44.124  12.480  21.899  0.00  0.00     0.216 C 
ATOM     13  O   UNL d   1     -43.470  12.173  22.290  0.00  0.00    -0.644 OA
ATOM     14  O   UNL d   1     -44.075  12.683  21.091  0.00  0.00    -0.644 OA
ENDBRANCH   1  12
BRANCH  10  15
ATOM     15  O   UNL d   1     -47.681  14.786  22.641  0.00  0.00    -0.328 OA
ATOM     16  C   UNL d   1     -48.488  14.702  22.511  0.00  0.00     0.181 C 
ENDBRANCH  10  15
TORSDOF 2
ENDMDL
MODEL 7
REMARK VINA RESULT:      -5.3      7.857      9.333
REMARK  2 active torsions:
REMARK  status: ('A' for Active; 'I' for Inactive)
REMARK    1  A    between atoms: C_6  and  C_1 
REMARK    2  A    between atoms: O_15  and  C_12 
ROOT
ATOM      1  C   UNL d   1     -40.769  15.303  20.181  0.00  0.00     0.128 A 
ATOM      2  C   UNL d   1     -40.911  14.472  20.107  0.00  0.00     0.306 A 
ATOM      3  C   UNL d   1     -40.464  15.710  19.542  0.00  0.00     0.013 A 
ATOM      4  O   UNL d   1     -40.737  14.109  19.399  0.00  0.00    -0.273 OA
ATOM      5  C   UNL d   1     -40.297  15.341  18.851  0.00  0.00     0.025 A 
ATOM      6  C   UNL d   1     -40.439  14.509  18.777  0.00  0.00     0.103 A 
ATOM      7  O   UNL d   1     -41.224  14.045  20.756  0.00  0.00    -0.259 OA
ATOM      8  C   UNL d   1     -39.990  15.748  18.206  0.00  0.00     0.026 A 
ATOM      9  C   UNL d   1     -40.263  14.147  18.063  0.00  0.00     0.027 A 
ATOM     10  C   UNL d   1     -39.813  15.380  17.486  0.00  0.00     0.094 A 
ATOM     11  C   UNL d   1     -39.955  14.548  17.412  0.00  0.00     0.026 A 
ENDROOT
BRANCH   1  12
ATOM     12  C   UNL d   1     -40.942  15.696  20.903  0.00  0.00     0.216 C 
ATOM     13  O   UNL d   1     -41.714  15.921  21.074  0.00  0.00    -0.644 OA
ATOM     14  O   UNL d   1     -40.328  15.857  21.445  0.00  0.00    -0.644 OA
ENDBRANCH   1  12
BRANCH  10  15
ATOM     15  O   UNL d   1     -39.503  15.812  16.850  0.00  0.00    -0.328 OA
ATOM     16  C   UNL d   1     -38.856  15.528  16.430  0.00  0.00     0.181 C 
ENDBRANCH  10  15
TORSDOF 2
ENDMDL
