MODEL 1
REMARK VINA RESULT:      -1.3      0.000      0.000
REMARK  7 active torsions:
REMARK  status: ('A' for Active; 'I' for Inactive)
REMARK    1  A    between atoms: C_4  and  C_1 
REMARK    2  A    between atoms: C_13  and  N_3 
REMARK    3  A    between atoms: C_15  and  N_5 
REMARK    4  A    between atoms: C_12  and  C_15 
REMARK    5  A    between atoms: C_18  and  C_13 
REMARK    6  A    between atoms: O_16  and  C_18 
REMARK    7  A    between atoms: C_17  and  O_16 
ROOT
ATOM      1  C   UNL d   1      32.764  22.318 -22.157  0.00  0.00     0.149 A 
ATOM      2  N   UNL d   1      32.823  22.982 -22.645  0.00  0.00    -0.227 NA
ATOM      3  N   UNL d   1      32.870  21.643 -22.627  0.00  0.00    -0.287 N 
ATOM      4  C   UNL d   1      32.996  21.894 -23.414  0.00  0.00     0.083 A 
ATOM      5  C   UNL d   1      32.965  22.721 -23.418  0.00  0.00     0.099 A 
ATOM      6  C   UNL d   1      33.132  21.483 -24.116  0.00  0.00     0.019 A 
ATOM      7  C   UNL d   1      33.071  23.135 -24.123  0.00  0.00     0.021 A 
ATOM      8  C   UNL d   1      33.237  21.897 -24.821  0.00  0.00     0.002 A 
ATOM      9  C   UNL d   1      33.207  22.715 -24.825  0.00  0.00     0.002 A 
ENDROOT
BRANCH   1  10
ATOM     10  C   UNL d   1      32.624  22.316 -21.342  0.00  0.00     0.057 A 
ATOM     11  C   UNL d   1      33.192  22.387 -20.748  0.00  0.00     0.086 A 
ATOM     12  N   UNL d   1      32.801  22.357 -20.020  0.00  0.00    -0.272 N 
ATOM     13  C   UNL d   1      31.992  22.268 -20.167  0.00  0.00     0.265 A 
ATOM     14  C   UNL d   1      31.889  22.244 -20.985  0.00  0.00     0.066 A 
ATOM     15  O   UNL d   1      31.402  22.215 -19.595  0.00  0.00    -0.267 OA
BRANCH  12  16
ATOM     16  C   UNL d   1      33.166  22.409 -19.279  0.00  0.00     0.083 C 
BRANCH  16  17
ATOM     17  C   UNL d   1      33.022  23.050 -18.778  0.00  0.00     0.019 C 
ATOM     18  C   UNL d   1      33.225  23.007 -17.978  0.00  0.00     0.002 C 
ENDBRANCH  16  17
ENDBRANCH  12  16
ENDBRANCH   1  10
BRANCH   3  19
ATOM     19  C   UNL d   1      32.827  20.929 -22.217  0.00  0.00     0.108 C 
BRANCH  19  20
ATOM     20  C   UNL d   1      32.999  20.221 -22.600  0.00  0.00     0.142 C 
BRANCH  20  21
ATOM     21  O   UNL d   1      32.845  19.505 -22.232  0.00  0.00    -0.304 OA
BRANCH  21  22
ATOM     22  C   UNL d   1      32.787  18.815 -22.677  0.00  0.00     0.100 A 
ATOM     23  C   UNL d   1      32.282  18.786 -23.314  0.00  0.00     0.025 A 
ATOM     24  C   UNL d   1      32.226  18.096 -23.756  0.00  0.00     0.002 A 
ATOM     25  C   UNL d   1      32.676  17.443 -23.555  0.00  0.00     0.000 A 
ATOM     26  C   UNL d   1      33.185  17.485 -22.905  0.00  0.00     0.002 A 
ATOM     27  C   UNL d   1      33.241  18.167 -22.468  0.00  0.00     0.025 A 
ENDBRANCH  21  22
ENDBRANCH  20  21
ENDBRANCH  19  20
ENDBRANCH   3  19
TORSDOF 7
ENDMDL
MODEL 2
REMARK VINA RESULT:      -0.7      2.275      4.652
REMARK  7 active torsions:
REMARK  status: ('A' for Active; 'I' for Inactive)
REMARK    1  A    between atoms: C_4  and  C_1 
REMARK    2  A    between atoms: C_13  and  N_3 
REMARK    3  A    between atoms: C_15  and  N_5 
REMARK    4  A    between atoms: C_12  and  C_15 
REMARK    5  A    between atoms: C_18  and  C_13 
REMARK    6  A    between atoms: O_16  and  C_18 
REMARK    7  A    between atoms: C_17  and  O_16 
ROOT
ATOM      1  C   UNL d   1      32.873  18.146 -23.035  0.00  0.00     0.149 A 
ATOM      2  N   UNL d   1      33.239  17.675 -22.464  0.00  0.00    -0.227 NA
ATOM      3  N   UNL d   1      32.417  17.653 -23.522  0.00  0.00    -0.287 N 
ATOM      4  C   UNL d   1      32.504  16.869 -23.248  0.00  0.00     0.083 A 
ATOM      5  C   UNL d   1      33.012  16.890 -22.596  0.00  0.00     0.099 A 
ATOM      6  C   UNL d   1      32.191  16.151 -23.506  0.00  0.00     0.019 A 
ATOM      7  C   UNL d   1      33.206  16.192 -22.201  0.00  0.00     0.021 A 
ATOM      8  C   UNL d   1      32.385  15.453 -23.111  0.00  0.00     0.002 A 
ATOM      9  C   UNL d   1      32.888  15.473 -22.465  0.00  0.00     0.002 A 
ENDROOT
BRANCH   1  10
ATOM     10  C   UNL d   1      32.942  18.966 -23.115  0.00  0.00     0.057 A 
ATOM     11  C   UNL d   1      32.916  19.521 -22.505  0.00  0.00     0.086 A 
ATOM     12  N   UNL d   1      33.008  20.271 -22.841  0.00  0.00    -0.272 N 
ATOM     13  C   UNL d   1      33.090  20.177 -23.658  0.00  0.00     0.265 A 
ATOM     14  C   UNL d   1      33.049  19.369 -23.822  0.00  0.00     0.066 A 
ATOM     15  O   UNL d   1      33.195  20.784 -24.205  0.00  0.00    -0.267 OA
BRANCH  12  16
ATOM     16  C   UNL d   1      33.014  20.985 -22.422  0.00  0.00     0.083 C 
BRANCH  16  17
ATOM     17  C   UNL d   1      33.185  21.001 -21.614  0.00  0.00     0.019 C 
ATOM     18  C   UNL d   1      33.018  21.676 -21.166  0.00  0.00     0.002 C 
ENDBRANCH  16  17
ENDBRANCH  12  16
ENDBRANCH   1  10
BRANCH   3  19
ATOM     19  C   UNL d   1      32.014  18.045 -24.125  0.00  0.00     0.108 C 
BRANCH  19  20
ATOM     20  C   UNL d   1      31.351  17.701 -24.471  0.00  0.00     0.142 C 
BRANCH  20  21
ATOM     21  O   UNL d   1      30.716  18.165 -24.699  0.00  0.00    -0.304 OA
BRANCH  21  22
ATOM     22  C   UNL d   1      29.962  17.838 -24.753  0.00  0.00     0.100 A 
ATOM     23  C   UNL d   1      29.872  17.069 -25.003  0.00  0.00     0.025 A 
ATOM     24  C   UNL d   1      29.119  16.746 -25.056  0.00  0.00     0.002 A 
ATOM     25  C   UNL d   1      28.465  17.195 -24.858  0.00  0.00     0.000 A 
ATOM     26  C   UNL d   1      28.570  17.976 -24.606  0.00  0.00     0.002 A 
ATOM     27  C   UNL d   1      29.314  18.296 -24.553  0.00  0.00     0.025 A 
ENDBRANCH  21  22
ENDBRANCH  20  21
ENDBRANCH  19  20
ENDBRANCH   3  19
TORSDOF 7
ENDMDL
MODEL 3
REMARK VINA RESULT:      -0.5      1.747      4.963
REMARK  7 active torsions:
REMARK  status: ('A' for Active; 'I' for Inactive)
REMARK    1  A    between atoms: C_4  and  C_1 
REMARK    2  A    between atoms: C_13  and  N_3 
REMARK    3  A    between atoms: C_15  and  N_5 
REMARK    4  A    between atoms: C_12  and  C_15 
REMARK    5  A    between atoms: C_18  and  C_13 
REMARK    6  A    between atoms: O_16  and  C_18 
REMARK    7  A    between atoms: C_17  and  O_16 
ROOT
ATOM      1  C   UNL d   1      32.965  19.358 -22.217  0.00  0.00     0.149 A 
ATOM      2  N   UNL d   1      32.914  19.211 -21.405  0.00  0.00    -0.227 NA
ATOM      3  N   UNL d   1      33.096  20.169 -22.324  0.00  0.00    -0.287 N 
ATOM      4  C   UNL d   1      33.126  20.527 -21.569  0.00  0.00     0.083 A 
ATOM      5  C   UNL d   1      33.013  19.930 -21.008  0.00  0.00     0.099 A 
ATOM      6  C   UNL d   1      33.240  21.307 -21.326  0.00  0.00     0.019 A 
ATOM      7  C   UNL d   1      33.014  20.114 -20.204  0.00  0.00     0.021 A 
ATOM      8  C   UNL d   1      33.241  21.491 -20.522  0.00  0.00     0.002 A 
ATOM      9  C   UNL d   1      33.129  20.900 -19.966  0.00  0.00     0.002 A 
ENDROOT
BRANCH   1  10
ATOM     10  C   UNL d   1      32.898  18.799 -22.823  0.00  0.00     0.057 A 
ATOM     11  C   UNL d   1      33.227  18.043 -22.830  0.00  0.00     0.086 A 
ATOM     12  N   UNL d   1      33.018  17.683 -23.544  0.00  0.00    -0.272 N 
ATOM     13  C   UNL d   1      32.560  18.219 -23.977  0.00  0.00     0.265 A 
ATOM     14  C   UNL d   1      32.490  18.907 -23.526  0.00  0.00     0.066 A 
ATOM     15  O   UNL d   1      32.236  18.084 -24.722  0.00  0.00    -0.267 OA
BRANCH  12  16
ATOM     16  C   UNL d   1      33.234  16.919 -23.776  0.00  0.00     0.083 C 
BRANCH  16  17
ATOM     17  C   UNL d   1      33.240  16.296 -23.233  0.00  0.00     0.019 C 
ATOM     18  C   UNL d   1      33.234  15.512 -23.497  0.00  0.00     0.002 C 
ENDBRANCH  16  17
ENDBRANCH  12  16
ENDBRANCH   1  10
BRANCH   3  19
ATOM     19  C   UNL d   1      33.160  20.406 -23.111  0.00  0.00     0.108 C 
BRANCH  19  20
ATOM     20  C   UNL d   1      33.240  21.203 -23.298  0.00  0.00     0.142 C 
BRANCH  20  21
ATOM     21  O   UNL d   1      33.231  21.446 -24.081  0.00  0.00    -0.304 OA
BRANCH  21  22
ATOM     22  C   UNL d   1      32.974  22.203 -24.276  0.00  0.00     0.100 A 
ATOM     23  C   UNL d   1      33.237  22.843 -23.848  0.00  0.00     0.025 A 
ATOM     24  C   UNL d   1      32.979  23.597 -24.046  0.00  0.00     0.002 A 
ATOM     25  C   UNL d   1      32.460  23.702 -24.669  0.00  0.00     0.000 A 
ATOM     26  C   UNL d   1      32.200  23.044 -25.097  0.00  0.00     0.002 A 
ATOM     27  C   UNL d   1      32.455  22.298 -24.902  0.00  0.00     0.025 A 
ENDBRANCH  21  22
ENDBRANCH  20  21
ENDBRANCH  19  20
ENDBRANCH   3  19
TORSDOF 7
ENDMDL
