MODEL 1
REMARK VINA RESULT:      24.1      0.000      0.000
REMARK  4 active torsions:
REMARK  status: ('A' for Active; 'I' for Inactive)
REMARK    1  A    between atoms: C_2  and  C_1 
REMARK    2  A    between atoms: C_15  and  C_8 
REMARK    3  A    between atoms: C_9  and  C_15 
REMARK    4  A    between atoms: C_18  and  C_10 
ROOT
ATOM      1  C   UNL d   1      45.298 -15.853  44.658  0.00  0.00     0.094 A 
ATOM      2  N   UNL d   1      46.039 -16.217  44.685  0.00  0.00    -0.238 NA
ATOM      3  C   UNL d   1      45.898 -17.016  44.868  0.00  0.00     0.113 A 
ATOM      4  S   UNL d   1      45.071 -17.142  44.953  0.00  0.00    -0.066 SA
ATOM      5  C   UNL d   1      44.714 -16.413  44.820  0.00  0.00     0.056 A 
ENDROOT
BRANCH   3   6
ATOM      6  C   UNL d   1      46.466 -17.590  44.953  0.00  0.00     0.051 C 
BRANCH   6   7
ATOM      7  C   UNL d   1      46.520 -18.206  44.422  0.00  0.00     0.113 A 
ATOM      8  N   UNL d   1      46.510 -18.222  43.589  0.00  0.00    -0.238 NA
ATOM      9  C   UNL d   1      46.587 -19.018  43.344  0.00  0.00     0.088 A 
ATOM     10  C   UNL d   1      46.641 -19.468  44.033  0.00  0.00     0.056 A 
ATOM     11  S   UNL d   1      46.602 -18.990  44.684  0.00  0.00    -0.066 SA
BRANCH   9  12
ATOM     12  C   UNL d   1      46.602 -19.276  42.569  0.00  0.00     0.018 A 
ATOM     13  C   UNL d   1      46.625 -20.059  42.387  0.00  0.00     0.002 A 
ATOM     14  C   UNL d   1      46.641 -20.313  41.606  0.00  0.00     0.000 A 
ATOM     15  C   UNL d   1      46.631 -19.758  41.007  0.00  0.00     0.000 A 
ATOM     16  C   UNL d   1      46.607 -18.966  41.185  0.00  0.00     0.000 A 
ATOM     17  C   UNL d   1      46.647 -20.022  40.211  0.00  0.00     0.000 C 
ATOM     18  C   UNL d   1      46.592 -18.723  41.961  0.00  0.00     0.002 A 
ENDBRANCH   9  12
ENDBRANCH   6   7
ENDBRANCH   3   6
BRANCH   1  19
ATOM     19  C   UNL d   1      45.254 -15.037  44.485  0.00  0.00     0.082 A 
ATOM     20  C   UNL d   1      44.586 -14.709  44.024  0.00  0.00     0.302 A 
ATOM     21  O   UNL d   1      44.561 -13.899  43.863  0.00  0.00    -0.273 OA
ATOM     22  O   UNL d   1      43.944 -15.200  43.727  0.00  0.00    -0.259 OA
ATOM     23  C   UNL d   1      45.170 -13.391  44.138  0.00  0.00     0.103 A 
ATOM     24  C   UNL d   1      45.799 -13.700  44.572  0.00  0.00     0.023 A 
ATOM     25  C   UNL d   1      45.109 -12.587  43.956  0.00  0.00     0.025 A 
ATOM     26  C   UNL d   1      45.844 -14.519  44.747  0.00  0.00     0.009 A 
ATOM     27  C   UNL d   1      46.404 -13.190  44.843  0.00  0.00     0.002 A 
ATOM     28  C   UNL d   1      46.378 -12.379  44.682  0.00  0.00     0.000 A 
ATOM     29  C   UNL d   1      45.714 -12.081  44.229  0.00  0.00     0.002 A 
ENDBRANCH   1  19
TORSDOF 4
ENDMDL
