MODEL 1
REMARK VINA RESULT:     -13.2      0.000      0.000
REMARK  1 active torsions:
REMARK  status: ('A' for Active; 'I' for Inactive)
REMARK    1  A    between atoms: C_12  and  N_1 
ROOT
ATOM      1  N   UNL d   1      51.408  33.784  52.970  0.00  0.00    -0.244 N 
ATOM      2  C   UNL d   1      51.964  34.146  53.423  0.00  0.00     0.251 A 
ATOM      3  C   UNL d   1      51.687  33.003  52.920  0.00  0.00     0.260 A 
ATOM      4  C   UNL d   1      52.370  32.920  53.324  0.00  0.00     0.033 A 
ATOM      5  C   UNL d   1      52.545  33.633  53.640  0.00  0.00     0.125 A 
ATOM      6  C   UNL d   1      54.339  32.094  54.320  0.00  0.00     0.068 A 
ATOM      7  C   UNL d   1      53.062  32.998  53.781  0.00  0.00    -0.010 A 
ATOM      8  C   UNL d   1      53.104  32.213  53.580  0.00  0.00    -0.007 A 
ATOM      9  C   UNL d   1      53.743  31.765  53.851  0.00  0.00    -0.015 A 
ATOM     10  C   UNL d   1      54.265  32.895  54.505  0.00  0.00    -0.015 A 
ATOM     11  C   UNL d   1      53.632  33.345  54.238  0.00  0.00    -0.007 A 
ATOM     12  O   UNL d   1      51.901  34.785  53.569  0.00  0.00    -0.271 OA
ATOM     13  O   UNL d   1      51.305  32.553  52.551  0.00  0.00    -0.267 OA
ATOM     14  C   UNL d   1      53.580  34.141  54.434  0.00  0.00    -0.001 A 
ATOM     15  C   UNL d   1      52.524  31.872  53.118  0.00  0.00    -0.001 A 
ATOM     16  C   UNL d   1      53.799  30.952  53.652  0.00  0.00    -0.004 A 
ATOM     17  C   UNL d   1      54.847  33.240  54.969  0.00  0.00    -0.004 A 
ATOM     18  C   UNL d   1      54.174  34.479  54.904  0.00  0.00    -0.000 A 
ATOM     19  C   UNL d   1      52.582  31.050  52.917  0.00  0.00    -0.000 A 
ATOM     20  C   UNL d   1      53.223  30.600  53.189  0.00  0.00    -0.000 A 
ATOM     21  C   UNL d   1      54.792  34.035  55.163  0.00  0.00    -0.000 A 
ENDROOT
BRANCH   1  22
ATOM     22  C   UNL d   1      50.700  34.140  52.630  0.00  0.00     0.089 A 
ATOM     23  C   UNL d   1      50.078  34.440  53.151  0.00  0.00     0.117 A 
ATOM     24  N   UNL d   1      49.360  34.801  52.812  0.00  0.00    -0.241 NA
ATOM     25  C   UNL d   1      49.265  34.863  51.942  0.00  0.00     0.099 A 
ATOM     26  C   UNL d   1      49.891  34.561  51.426  0.00  0.00     0.022 A 
ATOM     27  C   UNL d   1      50.612  34.197  51.772  0.00  0.00     0.021 A 
ENDBRANCH   1  22
TORSDOF 1
ENDMDL
MODEL 2
REMARK VINA RESULT:     -12.6      0.320      2.203
REMARK  1 active torsions:
REMARK  status: ('A' for Active; 'I' for Inactive)
REMARK    1  A    between atoms: C_12  and  N_1 
ROOT
ATOM      1  N   UNL d   1      51.309  33.707  53.028  0.00  0.00    -0.244 N 
ATOM      2  C   UNL d   1      51.463  32.929  52.900  0.00  0.00     0.251 A 
ATOM      3  C   UNL d   1      51.971  33.961  53.460  0.00  0.00     0.260 A 
ATOM      4  C   UNL d   1      52.481  33.358  53.576  0.00  0.00     0.033 A 
ATOM      5  C   UNL d   1      52.166  32.712  53.226  0.00  0.00     0.125 A 
ATOM      6  C   UNL d   1      54.308  32.014  54.210  0.00  0.00     0.068 A 
ATOM      7  C   UNL d   1      52.900  32.639  53.609  0.00  0.00    -0.010 A 
ATOM      8  C   UNL d   1      53.405  33.124  54.018  0.00  0.00    -0.007 A 
ATOM      9  C   UNL d   1      54.108  32.808  54.317  0.00  0.00    -0.015 A 
ATOM     10  C   UNL d   1      53.772  31.549  53.789  0.00  0.00    -0.015 A 
ATOM     11  C   UNL d   1      53.073  31.858  53.490  0.00  0.00    -0.007 A 
ATOM     12  O   UNL d   1      51.032  32.562  52.563  0.00  0.00    -0.271 OA
ATOM     13  O   UNL d   1      51.988  34.629  53.652  0.00  0.00    -0.267 OA
ATOM     14  C   UNL d   1      52.554  31.376  53.074  0.00  0.00    -0.001 A 
ATOM     15  C   UNL d   1      53.222  33.911  54.133  0.00  0.00    -0.001 A 
ATOM     16  C   UNL d   1      54.640  33.298  54.743  0.00  0.00    -0.004 A 
ATOM     17  C   UNL d   1      53.955  30.757  53.673  0.00  0.00    -0.004 A 
ATOM     18  C   UNL d   1      52.748  30.577  52.962  0.00  0.00    -0.000 A 
ATOM     19  C   UNL d   1      53.760  34.405  54.563  0.00  0.00    -0.000 A 
ATOM     20  C   UNL d   1      54.465  34.088  54.863  0.00  0.00    -0.000 A 
ATOM     21  C   UNL d   1      53.434  30.279  53.256  0.00  0.00    -0.000 A 
ENDROOT
BRANCH   1  22
ATOM     22  C   UNL d   1      50.616  34.151  52.769  0.00  0.00     0.089 A 
ATOM     23  C   UNL d   1      50.092  34.508  53.357  0.00  0.00     0.117 A 
ATOM     24  N   UNL d   1      49.389  34.958  53.101  0.00  0.00    -0.241 NA
ATOM     25  C   UNL d   1      49.210  35.050  52.246  0.00  0.00     0.099 A 
ATOM     26  C   UNL d   1      49.739  34.690  51.664  0.00  0.00     0.022 A 
ATOM     27  C   UNL d   1      50.445  34.238  51.926  0.00  0.00     0.021 A 
ENDBRANCH   1  22
TORSDOF 1
ENDMDL
MODEL 3
REMARK VINA RESULT:     -11.8      1.637      4.061
REMARK  1 active torsions:
REMARK  status: ('A' for Active; 'I' for Inactive)
REMARK    1  A    between atoms: C_12  and  N_1 
ROOT
ATOM      1  N   UNL d   1      53.162  31.220  53.886  0.00  0.00    -0.244 N 
ATOM      2  C   UNL d   1      52.634  31.598  53.412  0.00  0.00     0.251 A 
ATOM      3  C   UNL d   1      53.562  31.847  54.257  0.00  0.00     0.260 A 
ATOM      4  C   UNL d   1      53.278  32.551  54.008  0.00  0.00     0.033 A 
ATOM      5  C   UNL d   1      52.698  32.397  53.480  0.00  0.00     0.125 A 
ATOM      6  C   UNL d   1      52.866  34.844  53.663  0.00  0.00     0.068 A 
ATOM      7  C   UNL d   1      52.878  33.190  53.654  0.00  0.00    -0.010 A 
ATOM      8  C   UNL d   1      53.400  33.587  54.132  0.00  0.00    -0.007 A 
ATOM      9  C   UNL d   1      53.390  34.413  54.134  0.00  0.00    -0.015 A 
ATOM     10  C   UNL d   1      52.349  34.409  53.189  0.00  0.00    -0.015 A 
ATOM     11  C   UNL d   1      52.355  33.587  53.183  0.00  0.00    -0.007 A 
ATOM     12  O   UNL d   1      52.224  31.247  53.035  0.00  0.00    -0.271 OA
ATOM     13  O   UNL d   1      54.063  31.680  54.710  0.00  0.00    -0.267 OA
ATOM     14  C   UNL d   1      51.831  33.174  52.703  0.00  0.00    -0.001 A 
ATOM     15  C   UNL d   1      53.925  33.176  54.603  0.00  0.00    -0.001 A 
ATOM     16  C   UNL d   1      53.924  34.837  54.623  0.00  0.00    -0.004 A 
ATOM     17  C   UNL d   1      51.821  34.819  52.714  0.00  0.00    -0.004 A 
ATOM     18  C   UNL d   1      51.301  33.600  52.227  0.00  0.00    -0.000 A 
ATOM     19  C   UNL d   1      54.464  33.606  55.098  0.00  0.00    -0.000 A 
ATOM     20  C   UNL d   1      54.454  34.435  55.100  0.00  0.00    -0.000 A 
ATOM     21  C   UNL d   1      51.299  34.403  52.235  0.00  0.00    -0.000 A 
ENDROOT
BRANCH   1  22
ATOM     22  C   UNL d   1      53.269  30.369  53.972  0.00  0.00     0.089 A 
ATOM     23  C   UNL d   1      52.954  29.967  54.670  0.00  0.00     0.117 A 
ATOM     24  N   UNL d   1      53.059  29.105  54.763  0.00  0.00    -0.241 NA
ATOM     25  C   UNL d   1      53.485  28.643  54.150  0.00  0.00     0.099 A 
ATOM     26  C   UNL d   1      53.797  29.053  53.454  0.00  0.00     0.022 A 
ATOM     27  C   UNL d   1      53.689  29.920  53.365  0.00  0.00     0.021 A 
ENDBRANCH   1  22
TORSDOF 1
ENDMDL
MODEL 4
REMARK VINA RESULT:     -11.3      1.568      3.455
REMARK  1 active torsions:
REMARK  status: ('A' for Active; 'I' for Inactive)
REMARK    1  A    between atoms: C_12  and  N_1 
ROOT
ATOM      1  N   UNL d   1      53.053  31.351  53.554  0.00  0.00    -0.244 N 
ATOM      2  C   UNL d   1      53.634  31.696  53.989  0.00  0.00     0.251 A 
ATOM      3  C   UNL d   1      52.581  31.997  53.329  0.00  0.00     0.260 A 
ATOM      4  C   UNL d   1      52.875  32.679  53.620  0.00  0.00     0.033 A 
ATOM      5  C   UNL d   1      53.534  32.493  54.033  0.00  0.00     0.125 A 
ATOM      6  C   UNL d   1      53.258  34.932  54.188  0.00  0.00     0.068 A 
ATOM      7  C   UNL d   1      53.302  33.290  53.990  0.00  0.00    -0.010 A 
ATOM      8  C   UNL d   1      52.701  33.715  53.648  0.00  0.00    -0.007 A 
ATOM      9  C   UNL d   1      52.683  34.534  53.749  0.00  0.00    -0.015 A 
ATOM     10  C   UNL d   1      53.855  34.471  54.522  0.00  0.00    -0.015 A 
ATOM     11  C   UNL d   1      53.879  33.656  54.424  0.00  0.00    -0.007 A 
ATOM     12  O   UNL d   1      54.109  31.324  54.254  0.00  0.00    -0.271 OA
ATOM     13  O   UNL d   1      52.022  31.859  52.937  0.00  0.00    -0.267 OA
ATOM     14  C   UNL d   1      54.482  33.216  54.766  0.00  0.00    -0.001 A 
ATOM     15  C   UNL d   1      52.125  33.337  53.211  0.00  0.00    -0.001 A 
ATOM     16  C   UNL d   1      52.067  34.986  53.401  0.00  0.00    -0.004 A 
ATOM     17  C   UNL d   1      54.436  34.848  54.962  0.00  0.00    -0.004 A 
ATOM     18  C   UNL d   1      55.065  33.608  55.209  0.00  0.00    -0.000 A 
ATOM     19  C   UNL d   1      51.502  33.794  52.860  0.00  0.00    -0.000 A 
ATOM     20  C   UNL d   1      51.484  34.617  52.961  0.00  0.00    -0.000 A 
ATOM     21  C   UNL d   1      55.038  34.406  55.302  0.00  0.00    -0.000 A 
ENDROOT
BRANCH   1  22
ATOM     22  C   UNL d   1      52.963  30.512  53.377  0.00  0.00     0.089 A 
ATOM     23  C   UNL d   1      52.827  29.951  54.022  0.00  0.00     0.117 A 
ATOM     24  N   UNL d   1      52.735  29.101  53.849  0.00  0.00    -0.241 NA
ATOM     25  C   UNL d   1      52.779  28.810  53.021  0.00  0.00     0.099 A 
ATOM     26  C   UNL d   1      52.914  29.378  52.382  0.00  0.00     0.022 A 
ATOM     27  C   UNL d   1      53.007  30.232  52.561  0.00  0.00     0.021 A 
ENDBRANCH   1  22
TORSDOF 1
ENDMDL
