MODEL 1
REMARK VINA RESULT:      -9.6      0.000      0.000
REMARK  5 active torsions:
REMARK  status: ('A' for Active; 'I' for Inactive)
REMARK    1  A    between atoms: N_5  and  S_1 
REMARK    2  A    between atoms: C_9  and  S_1 
REMARK    3  A    between atoms: C_6  and  C_2 
REMARK    4  A    between atoms: C_4  and  N_5 
REMARK    5  A    between atoms: O_20  and  C_17 
ROOT
ATOM      1  S   UNL d   1      53.360  32.182  53.323  0.00  0.00     0.287 S 
ATOM      2  O   UNL d   1      52.530  32.221  53.236  0.00  0.00    -0.198 OA
ATOM      3  O   UNL d   1      54.201  32.146  53.414  0.00  0.00    -0.198 OA
ENDROOT
BRANCH   1   4
ATOM      4  N   UNL d   1      53.381  31.464  52.882  0.00  0.00    -0.132 NA
BRANCH   4   5
ATOM      5  C   UNL d   1      53.258  30.732  53.255  0.00  0.00     0.206 A 
ATOM      6  N   UNL d   1      53.600  30.371  53.950  0.00  0.00    -0.216 NA
ATOM      7  C   UNL d   1      53.239  29.625  54.028  0.00  0.00     0.161 A 
ATOM      8  C   UNL d   1      52.709  29.515  53.432  0.00  0.00     0.061 A 
ATOM      9  S   UNL d   1      52.702  30.172  52.950  0.00  0.00    -0.046 SA
BRANCH   7  10
ATOM     10  C   UNL d   1      53.383  29.066  54.616  0.00  0.00     0.436 C 
ATOM     11  F   UNL d   1      53.544  28.468  55.165  0.00  0.00    -0.165 F 
ATOM     12  F   UNL d   1      53.259  29.273  55.470  0.00  0.00    -0.165 F 
ATOM     13  F   UNL d   1      53.631  28.355  54.400  0.00  0.00    -0.165 F 
ENDBRANCH   7  10
ENDBRANCH   4   5
ENDBRANCH   1   4
BRANCH   1  14
ATOM     14  C   UNL d   1      53.351  32.903  53.768  0.00  0.00     0.105 A 
ATOM     15  C   UNL d   1      52.804  33.472  53.566  0.00  0.00     0.015 A 
ATOM     16  C   UNL d   1      52.779  34.173  53.982  0.00  0.00     0.025 A 
ATOM     17  C   UNL d   1      53.302  34.313  54.608  0.00  0.00     0.094 A 
ATOM     18  C   UNL d   1      53.854  33.748  54.819  0.00  0.00     0.025 A 
ATOM     19  C   UNL d   1      53.887  33.049  54.412  0.00  0.00     0.015 A 
BRANCH  17  20
ATOM     20  O   UNL d   1      53.296  35.030  55.054  0.00  0.00    -0.328 OA
ATOM     21  C   UNL d   1      52.967  35.728  54.719  0.00  0.00     0.181 C 
ENDBRANCH  17  20
ENDBRANCH   1  14
TORSDOF 5
ENDMDL
MODEL 2
REMARK VINA RESULT:      -8.9      2.958      4.599
REMARK  5 active torsions:
REMARK  status: ('A' for Active; 'I' for Inactive)
REMARK    1  A    between atoms: N_5  and  S_1 
REMARK    2  A    between atoms: C_9  and  S_1 
REMARK    3  A    between atoms: C_6  and  C_2 
REMARK    4  A    between atoms: C_4  and  N_5 
REMARK    5  A    between atoms: O_20  and  C_17 
ROOT
ATOM      1  S   UNL d   1      53.220  32.286  53.201  0.00  0.00     0.287 S 
ATOM      2  O   UNL d   1      53.080  32.120  52.394  0.00  0.00    -0.198 OA
ATOM      3  O   UNL d   1      53.361  32.449  54.020  0.00  0.00    -0.198 OA
ENDROOT
BRANCH   1   4
ATOM      4  N   UNL d   1      53.253  33.111  53.034  0.00  0.00    -0.132 NA
BRANCH   4   5
ATOM      5  C   UNL d   1      52.560  33.570  53.017  0.00  0.00     0.206 A 
ATOM      6  N   UNL d   1      51.771  33.417  52.728  0.00  0.00    -0.216 NA
ATOM      7  C   UNL d   1      51.330  34.108  52.876  0.00  0.00     0.161 A 
ATOM      8  C   UNL d   1      51.797  34.659  53.230  0.00  0.00     0.061 A 
ATOM      9  S   UNL d   1      52.548  34.357  53.327  0.00  0.00    -0.046 SA
BRANCH   7  10
ATOM     10  C   UNL d   1      50.535  34.234  52.696  0.00  0.00     0.436 C 
ATOM     11  F   UNL d   1      49.726  34.350  52.571  0.00  0.00    -0.165 F 
ATOM     12  F   UNL d   1      50.290  34.432  51.866  0.00  0.00    -0.165 F 
ATOM     13  F   UNL d   1      50.010  34.174  53.274  0.00  0.00    -0.165 F 
ENDBRANCH   7  10
ENDBRANCH   4   5
ENDBRANCH   1   4
BRANCH   1  14
ATOM     14  C   UNL d   1      53.188  31.458  53.380  0.00  0.00     0.105 A 
ATOM     15  C   UNL d   1      53.630  31.184  54.007  0.00  0.00     0.015 A 
ATOM     16  C   UNL d   1      53.613  30.391  54.195  0.00  0.00     0.025 A 
ATOM     17  C   UNL d   1      53.152  29.861  53.757  0.00  0.00     0.094 A 
ATOM     18  C   UNL d   1      52.705  30.126  53.126  0.00  0.00     0.025 A 
ATOM     19  C   UNL d   1      52.715  30.912  52.931  0.00  0.00     0.015 A 
BRANCH  17  20
ATOM     20  O   UNL d   1      53.118  29.035  53.932  0.00  0.00    -0.328 OA
ATOM     21  C   UNL d   1      53.317  28.763  54.703  0.00  0.00     0.181 C 
ENDBRANCH  17  20
ENDBRANCH   1  14
TORSDOF 5
ENDMDL
MODEL 3
REMARK VINA RESULT:      -8.5      2.694      3.526
REMARK  5 active torsions:
REMARK  status: ('A' for Active; 'I' for Inactive)
REMARK    1  A    between atoms: N_5  and  S_1 
REMARK    2  A    between atoms: C_9  and  S_1 
REMARK    3  A    between atoms: C_6  and  C_2 
REMARK    4  A    between atoms: C_4  and  N_5 
REMARK    5  A    between atoms: O_20  and  C_17 
ROOT
ATOM      1  S   UNL d   1      52.333  32.840  53.040  0.00  0.00     0.287 S 
ATOM      2  O   UNL d   1      52.714  33.163  52.370  0.00  0.00    -0.198 OA
ATOM      3  O   UNL d   1      51.942  32.515  53.718  0.00  0.00    -0.198 OA
ENDROOT
BRANCH   1   4
ATOM      4  N   UNL d   1      52.989  32.330  53.178  0.00  0.00    -0.132 NA
BRANCH   4   5
ATOM      5  C   UNL d   1      53.653  32.596  53.602  0.00  0.00     0.206 A 
ATOM      6  N   UNL d   1      53.742  32.964  54.368  0.00  0.00    -0.216 NA
ATOM      7  C   UNL d   1      54.558  33.095  54.470  0.00  0.00     0.161 A 
ATOM      8  C   UNL d   1      54.960  32.833  53.825  0.00  0.00     0.061 A 
ATOM      9  S   UNL d   1      54.433  32.525  53.283  0.00  0.00    -0.046 SA
BRANCH   7  10
ATOM     10  C   UNL d   1      54.924  33.438  55.124  0.00  0.00     0.436 C 
ATOM     11  F   UNL d   1      55.263  33.746  55.814  0.00  0.00    -0.165 F 
ATOM     12  F   UNL d   1      55.491  34.112  55.017  0.00  0.00    -0.165 F 
ATOM     13  F   UNL d   1      54.757  33.154  55.835  0.00  0.00    -0.165 F 
ENDBRANCH   7  10
ENDBRANCH   4   5
ENDBRANCH   1   4
BRANCH   1  14
ATOM     14  C   UNL d   1      51.668  33.348  52.910  0.00  0.00     0.105 A 
ATOM     15  C   UNL d   1      51.006  33.241  53.373  0.00  0.00     0.015 A 
ATOM     16  C   UNL d   1      50.356  33.720  53.264  0.00  0.00     0.025 A 
ATOM     17  C   UNL d   1      50.358  34.314  52.688  0.00  0.00     0.094 A 
ATOM     18  C   UNL d   1      51.017  34.430  52.218  0.00  0.00     0.025 A 
ATOM     19  C   UNL d   1      51.669  33.960  52.318  0.00  0.00     0.015 A 
BRANCH  17  20
ATOM     20  O   UNL d   1      49.698  34.823  52.556  0.00  0.00    -0.328 OA
ATOM     21  C   UNL d   1      49.170  34.666  51.919  0.00  0.00     0.181 C 
ENDBRANCH  17  20
ENDBRANCH   1  14
TORSDOF 5
ENDMDL
MODEL 4
REMARK VINA RESULT:      -8.3      2.037      2.613
REMARK  5 active torsions:
REMARK  status: ('A' for Active; 'I' for Inactive)
REMARK    1  A    between atoms: N_5  and  S_1 
REMARK    2  A    between atoms: C_9  and  S_1 
REMARK    3  A    between atoms: C_6  and  C_2 
REMARK    4  A    between atoms: C_4  and  N_5 
REMARK    5  A    between atoms: O_20  and  C_17 
ROOT
ATOM      1  S   UNL d   1      52.454  33.293  53.016  0.00  0.00     0.287 S 
ATOM      2  O   UNL d   1      52.388  33.464  53.832  0.00  0.00    -0.198 OA
ATOM      3  O   UNL d   1      52.517  33.121  52.189  0.00  0.00    -0.198 OA
ENDROOT
BRANCH   1   4
ATOM      4  N   UNL d   1      53.206  32.936  53.143  0.00  0.00    -0.132 NA
BRANCH   4   5
ATOM      5  C   UNL d   1      53.272  32.120  53.288  0.00  0.00     0.206 A 
ATOM      6  N   UNL d   1      52.877  31.439  52.955  0.00  0.00    -0.216 NA
ATOM      7  C   UNL d   1      53.195  30.773  53.340  0.00  0.00     0.161 A 
ATOM      8  C   UNL d   1      53.748  31.006  53.877  0.00  0.00     0.061 A 
ATOM      9  S   UNL d   1      53.813  31.819  53.864  0.00  0.00    -0.046 SA
BRANCH   7  10
ATOM     10  C   UNL d   1      52.991  29.985  53.211  0.00  0.00     0.436 C 
ATOM     11  F   UNL d   1      52.778  29.206  53.027  0.00  0.00    -0.165 F 
ATOM     12  F   UNL d   1      53.008  29.403  53.881  0.00  0.00    -0.165 F 
ATOM     13  F   UNL d   1      52.786  29.768  52.487  0.00  0.00    -0.165 F 
ENDBRANCH   7  10
ENDBRANCH   4   5
ENDBRANCH   1   4
BRANCH   1  14
ATOM     14  C   UNL d   1      51.698  33.649  52.877  0.00  0.00     0.105 A 
ATOM     15  C   UNL d   1      51.606  34.106  52.209  0.00  0.00     0.015 A 
ATOM     16  C   UNL d   1      50.886  34.458  52.057  0.00  0.00     0.025 A 
ATOM     17  C   UNL d   1      50.247  34.356  52.573  0.00  0.00     0.094 A 
ATOM     18  C   UNL d   1      50.329  33.900  53.246  0.00  0.00     0.025 A 
ATOM     19  C   UNL d   1      51.040  33.546  53.407  0.00  0.00     0.015 A 
BRANCH  17  20
ATOM     20  O   UNL d   1      49.492  34.710  52.438  0.00  0.00    -0.328 OA
ATOM     21  C   UNL d   1      49.127  34.638  51.684  0.00  0.00     0.181 C 
ENDBRANCH  17  20
ENDBRANCH   1  14
TORSDOF 5
ENDMDL
