MODEL 1
REMARK VINA RESULT:      -4.9      0.000      0.000
REMARK  6 active torsions:
REMARK  status: ('A' for Active; 'I' for Inactive)
REMARK    1  A    between atoms: N_3  and  S_1 
REMARK    2  A    between atoms: C_9  and  S_1 
REMARK    3  A    between atoms: C_2  and  N_3 
REMARK    4  A    between atoms: N_5  and  C_10 
REMARK    5  A    between atoms: C_19  and  C_8 
REMARK    6  A    between atoms: O_20  and  C_19 
ROOT
ATOM      1  S   UNL d   1     -41.549-122.460 -51.145  0.00  0.00     0.287 S 
ATOM      2  O   UNL d   1     -41.972-121.735 -51.077  0.00  0.00    -0.198 OA
ATOM      3  O   UNL d   1     -41.123-123.182 -51.221  0.00  0.00    -0.198 OA
ENDROOT
BRANCH   1   4
ATOM      4  N   UNL d   1     -41.207-122.174 -51.870  0.00  0.00    -0.130 NA
BRANCH   4   5
ATOM      5  C   UNL d   1     -41.432-122.509 -52.586  0.00  0.00     0.227 A 
ATOM      6  S   UNL d   1     -41.779-122.182 -53.271  0.00  0.00    -0.023 SA
ATOM      7  C   UNL d   1     -41.878-122.809 -53.823  0.00  0.00     0.159 A 
ATOM      8  N   UNL d   1     -41.599-123.492 -53.480  0.00  0.00    -0.137 NA
ATOM      9  N   UNL d   1     -41.323-123.303 -52.714  0.00  0.00    -0.120 NA
BRANCH   7  10
ATOM     10  C   UNL d   1     -42.205-122.734 -54.586  0.00  0.00     0.144 C 
BRANCH  10  11
ATOM     11  O   UNL d   1     -42.158-121.978 -54.979  0.00  0.00    -0.324 OA
ATOM     12  C   UNL d   1     -42.267-121.920 -55.818  0.00  0.00     0.182 C 
ENDBRANCH  10  11
ENDBRANCH   7  10
ENDBRANCH   4   5
ENDBRANCH   1   4
BRANCH   1  13
ATOM     13  C   UNL d   1     -41.888-122.745 -50.425  0.00  0.00     0.105 A 
ATOM     14  C   UNL d   1     -41.454-123.207 -49.945  0.00  0.00     0.015 A 
ATOM     15  C   UNL d   1     -41.766-123.496 -49.238  0.00  0.00     0.024 A 
ATOM     16  C   UNL d   1     -42.540-123.298 -49.033  0.00  0.00     0.127 A 
ATOM     17  C   UNL d   1     -43.001-122.816 -49.529  0.00  0.00     0.024 A 
ATOM     18  C   UNL d   1     -42.663-122.548 -50.218  0.00  0.00     0.015 A 
BRANCH  16  19
ATOM     19  N   UNL d   1     -42.879-123.585 -48.312  0.00  0.00    -0.114 N 
ATOM     20  O   UNL d   1     -43.663-123.811 -48.289  0.00  0.00    -0.532 OA
ATOM     21  O   UNL d   1     -42.424-123.639 -47.624  0.00  0.00    -0.532 OA
ENDBRANCH  16  19
ENDBRANCH   1  13
TORSDOF 6
ENDMDL
