MODEL 1
REMARK VINA RESULT:      55.3      0.000      0.000
REMARK  3 active torsions:
REMARK  status: ('A' for Active; 'I' for Inactive)
REMARK    1  A    between atoms: N_3  and  C_1 
REMARK       I    between atoms: C_5  and  N_3 
REMARK    2  A    between atoms: C_4  and  C_5 
REMARK    3  A    between atoms: C_12  and  C_6 
ROOT
ATOM      1  C   UNL d   1      59.409  49.303  50.884  0.00  0.00     0.249 A 
ATOM      2  N   UNL d   1      59.783  49.435  51.611  0.00  0.00    -0.210 NA
ATOM      3  C   UNL d   1      60.606  49.358  51.493  0.00  0.00     0.091 A 
ATOM      4  S   UNL d   1      59.982  49.145  50.314  0.00  0.00    -0.033 SA
ATOM      5  C   UNL d   1      60.731  49.180  50.697  0.00  0.00     0.059 A 
ENDROOT
BRANCH   1   6
ATOM      6  N   UNL d   1      58.596  49.326  50.755  0.00  0.00    -0.337 NA
ATOM      7  C   UNL d   1      57.786  49.433  50.872  0.00  0.00     0.355 C 
ATOM      8  O   UNL d   1      57.502  49.705  51.603  0.00  0.00    -0.249 OA
BRANCH   7   9
ATOM      9  C   UNL d   1      57.251  49.268  50.258  0.00  0.00     0.197 A 
ATOM     10  O   UNL d   1      56.611  48.730  50.290  0.00  0.00    -0.205 OA
ATOM     11  N   UNL d   1      56.228  48.745  49.554  0.00  0.00    -0.124 NA
ATOM     12  C   UNL d   1      56.626  49.287  49.069  0.00  0.00     0.130 A 
ATOM     13  C   UNL d   1      57.258  49.613  49.497  0.00  0.00     0.056 A 
ENDBRANCH   7   9
ENDBRANCH   1   6
BRANCH   3  14
ATOM     14  C   UNL d   1      61.187  49.445  52.065  0.00  0.00     0.018 A 
ATOM     15  C   UNL d   1      60.979  49.535  52.851  0.00  0.00     0.002 A 
ATOM     16  C   UNL d   1      61.561  49.622  53.428  0.00  0.00     0.000 A 
ATOM     17  C   UNL d   1      62.355  49.617  53.206  0.00  0.00     0.000 A 
ATOM     18  C   UNL d   1      62.571  49.526  52.416  0.00  0.00     0.000 A 
ATOM     19  C   UNL d   1      62.945  49.704  53.782  0.00  0.00     0.000 C 
ATOM     20  C   UNL d   1      61.981  49.439  51.840  0.00  0.00     0.002 A 
ENDBRANCH   3  14
TORSDOF 3
ENDMDL
