MODEL 1
REMARK VINA RESULT:      -7.9      0.000      0.000
REMARK  3 active torsions:
REMARK  status: ('A' for Active; 'I' for Inactive)
REMARK    1  A    between atoms: N_9  and  C_3 
REMARK    2  A    between atoms: C_12  and  C_5 
REMARK    3  A    between atoms: C_17  and  N_10 
ROOT
ATOM      1  N   UNL d   1     -47.557  12.907  22.661  0.00  0.00    -0.196 N 
ATOM      2  C   UNL d   1     -48.100  13.511  22.519  0.00  0.00     0.167 A 
ATOM      3  C   UNL d   1     -46.767  13.089  22.804  0.00  0.00     0.152 A 
ATOM      4  N   UNL d   1     -47.954  12.189  22.627  0.00  0.00    -0.163 NA
ATOM      5  C   UNL d   1     -48.836  13.169  22.396  0.00  0.00     0.055 A 
ATOM      6  C   UNL d   1     -48.750  12.355  22.462  0.00  0.00     0.104 A 
ATOM      7  N   UNL d   1     -47.855  14.297  22.519  0.00  0.00    -0.227 NA
ATOM      8  C   UNL d   1     -46.514  13.880  22.806  0.00  0.00     0.057 A 
ATOM      9  C   UNL d   1     -47.058  14.484  22.663  0.00  0.00     0.086 A 
ATOM     10  C   UNL d   1     -49.350  11.795  22.379  0.00  0.00     0.023 C 
ATOM     11  C   UNL d   1     -46.811  15.276  22.663  0.00  0.00     0.021 C 
ENDROOT
BRANCH   3  12
ATOM     12  N   UNL d   1     -46.218  12.479  22.948  0.00  0.00    -0.286 N 
ATOM     13  C   UNL d   1     -45.535  12.419  22.479  0.00  0.00     0.101 A 
ATOM     14  C   UNL d   1     -44.992  11.815  22.621  0.00  0.00     0.100 A 
ATOM     15  N   UNL d   1     -45.131  11.272  23.233  0.00  0.00    -0.301 N 
ATOM     16  C   UNL d   1     -45.808  11.334  23.696  0.00  0.00     0.100 A 
ATOM     17  C   UNL d   1     -46.352  11.938  23.554  0.00  0.00     0.101 A 
BRANCH  15  18
ATOM     18  C   UNL d   1     -44.585  10.665  23.377  0.00  0.00     0.064 A 
ATOM     19  C   UNL d   1     -43.787  10.777  23.201  0.00  0.00     0.018 A 
ATOM     20  C   UNL d   1     -43.384  10.084  23.402  0.00  0.00     0.002 A 
ATOM     21  C   UNL d   1     -43.933   9.550  23.698  0.00  0.00     0.002 A 
ATOM     22  C   UNL d   1     -44.667   9.900  23.685  0.00  0.00     0.018 A 
ENDBRANCH  15  18
ENDBRANCH   3  12
BRANCH   5  23
ATOM     23  C   UNL d   1     -49.575  13.489  22.232  0.00  0.00     0.004 A 
ATOM     24  C   UNL d   1     -50.029  13.822  22.846  0.00  0.00     0.000 A 
ATOM     25  C   UNL d   1     -50.769  14.143  22.681  0.00  0.00     0.000 A 
ATOM     26  C   UNL d   1     -51.064  14.135  21.910  0.00  0.00     0.000 A 
ATOM     27  C   UNL d   1     -50.618  13.806  21.300  0.00  0.00     0.000 A 
ATOM     28  C   UNL d   1     -49.870  13.481  21.461  0.00  0.00     0.000 A 
ENDBRANCH   5  23
TORSDOF 3
ENDMDL
MODEL 2
REMARK VINA RESULT:      -7.6      1.472      2.266
REMARK  3 active torsions:
REMARK  status: ('A' for Active; 'I' for Inactive)
REMARK    1  A    between atoms: N_9  and  C_3 
REMARK    2  A    between atoms: C_12  and  C_5 
REMARK    3  A    between atoms: C_17  and  N_10 
ROOT
ATOM      1  N   UNL d   1     -47.842  13.572  22.757  0.00  0.00    -0.196 N 
ATOM      2  C   UNL d   1     -48.633  13.626  22.985  0.00  0.00     0.167 A 
ATOM      3  C   UNL d   1     -47.438  12.860  22.840  0.00  0.00     0.152 A 
ATOM      4  N   UNL d   1     -47.605  14.304  22.470  0.00  0.00    -0.163 NA
ATOM      5  C   UNL d   1     -48.888  14.393  22.839  0.00  0.00     0.055 A 
ATOM      6  C   UNL d   1     -48.259  14.813  22.522  0.00  0.00     0.104 A 
ATOM      7  N   UNL d   1     -49.020  12.970  23.296  0.00  0.00    -0.227 NA
ATOM      8  C   UNL d   1     -47.823  12.195  23.154  0.00  0.00     0.057 A 
ATOM      9  C   UNL d   1     -48.614  12.250  23.382  0.00  0.00     0.086 A 
ATOM     10  C   UNL d   1     -48.270  15.605  22.294  0.00  0.00     0.023 C 
ATOM     11  C   UNL d   1     -49.004  11.588  23.695  0.00  0.00     0.021 C 
ENDROOT
BRANCH   3  12
ATOM     12  N   UNL d   1     -46.639  12.805  22.610  0.00  0.00    -0.286 N 
ATOM     13  C   UNL d   1     -46.448  12.604  21.827  0.00  0.00     0.101 A 
ATOM     14  C   UNL d   1     -45.657  12.550  21.599  0.00  0.00     0.100 A 
ATOM     15  N   UNL d   1     -45.057  12.696  22.154  0.00  0.00    -0.301 N 
ATOM     16  C   UNL d   1     -45.250  12.894  22.929  0.00  0.00     0.100 A 
ATOM     17  C   UNL d   1     -46.041  12.949  23.157  0.00  0.00     0.101 A 
BRANCH  15  18
ATOM     18  C   UNL d   1     -44.262  12.641  21.925  0.00  0.00     0.064 A 
ATOM     19  C   UNL d   1     -43.935  13.211  21.429  0.00  0.00     0.018 A 
ATOM     20  C   UNL d   1     -43.143  13.011  21.300  0.00  0.00     0.002 A 
ATOM     21  C   UNL d   1     -42.988  12.320  21.716  0.00  0.00     0.002 A 
ATOM     22  C   UNL d   1     -43.667  12.090  22.099  0.00  0.00     0.018 A 
ENDBRANCH  15  18
ENDBRANCH   3  12
BRANCH   5  23
ATOM     23  C   UNL d   1     -49.612  14.766  22.953  0.00  0.00     0.004 A 
ATOM     24  C   UNL d   1     -49.707  15.306  23.580  0.00  0.00     0.000 A 
ATOM     25  C   UNL d   1     -50.431  15.679  23.694  0.00  0.00     0.000 A 
ATOM     26  C   UNL d   1     -51.064  15.521  23.188  0.00  0.00     0.000 A 
ATOM     27  C   UNL d   1     -50.974  14.988  22.565  0.00  0.00     0.000 A 
ATOM     28  C   UNL d   1     -50.245  14.609  22.447  0.00  0.00     0.000 A 
ENDBRANCH   5  23
TORSDOF 3
ENDMDL
MODEL 3
REMARK VINA RESULT:      -5.3      7.600      9.664
REMARK  3 active torsions:
REMARK  status: ('A' for Active; 'I' for Inactive)
REMARK    1  A    between atoms: N_9  and  C_3 
REMARK    2  A    between atoms: C_12  and  C_5 
REMARK    3  A    between atoms: C_17  and  N_10 
ROOT
ATOM      1  N   UNL d   1     -39.549  14.619  19.797  0.00  0.00    -0.196 N 
ATOM      2  C   UNL d   1     -39.875  14.624  20.555  0.00  0.00     0.167 A 
ATOM      3  C   UNL d   1     -39.990  14.344  19.160  0.00  0.00     0.152 A 
ATOM      4  N   UNL d   1     -38.784  14.915  19.844  0.00  0.00    -0.163 NA
ATOM      5  C   UNL d   1     -39.314  14.924  21.073  0.00  0.00     0.055 A 
ATOM      6  C   UNL d   1     -38.641  15.104  20.640  0.00  0.00     0.104 A 
ATOM      7  N   UNL d   1     -40.644  14.356  20.675  0.00  0.00    -0.227 NA
ATOM      8  C   UNL d   1     -40.766  14.072  19.276  0.00  0.00     0.057 A 
ATOM      9  C   UNL d   1     -41.093  14.078  20.034  0.00  0.00     0.086 A 
ATOM     10  C   UNL d   1     -37.940  15.419  20.940  0.00  0.00     0.023 C 
ATOM     11  C   UNL d   1     -41.868  13.807  20.156  0.00  0.00     0.021 C 
ENDROOT
BRANCH   3  12
ATOM     12  N   UNL d   1     -39.660  14.338  18.395  0.00  0.00    -0.286 N 
ATOM     13  C   UNL d   1     -39.691  15.024  17.927  0.00  0.00     0.101 A 
ATOM     14  C   UNL d   1     -39.364  15.018  17.170  0.00  0.00     0.100 A 
ATOM     15  N   UNL d   1     -39.007  14.327  16.880  0.00  0.00    -0.301 N 
ATOM     16  C   UNL d   1     -38.978  13.650  17.347  0.00  0.00     0.100 A 
ATOM     17  C   UNL d   1     -39.305  13.655  18.104  0.00  0.00     0.101 A 
BRANCH  15  18
ATOM     18  C   UNL d   1     -38.678  14.321  16.119  0.00  0.00     0.064 A 
ATOM     19  C   UNL d   1     -38.350  13.628  15.816  0.00  0.00     0.018 A 
ATOM     20  C   UNL d   1     -38.070  13.792  15.056  0.00  0.00     0.002 A 
ATOM     21  C   UNL d   1     -38.227  14.582  14.895  0.00  0.00     0.002 A 
ATOM     22  C   UNL d   1     -38.598  14.909  15.541  0.00  0.00     0.018 A 
ENDBRANCH  15  18
ENDBRANCH   3  12
BRANCH   5  23
ATOM     23  C   UNL d   1     -39.325  15.058  21.884  0.00  0.00     0.004 A 
ATOM     24  C   UNL d   1     -39.604  15.784  22.182  0.00  0.00     0.000 A 
ATOM     25  C   UNL d   1     -39.614  15.917  22.993  0.00  0.00     0.000 A 
ATOM     26  C   UNL d   1     -39.349  15.334  23.515  0.00  0.00     0.000 A 
ATOM     27  C   UNL d   1     -39.072  14.614  23.224  0.00  0.00     0.000 A 
ATOM     28  C   UNL d   1     -39.060  14.475  22.405  0.00  0.00     0.000 A 
ENDBRANCH   5  23
TORSDOF 3
ENDMDL
