MODEL 1
REMARK VINA RESULT:      -0.3      0.000      0.000
REMARK  2 active torsions:
REMARK  status: ('A' for Active; 'I' for Inactive)
REMARK    1  A    between atoms: C_18  and  N_5 
REMARK    2  A    between atoms: C_21  and  C_18 
ROOT
ATOM      1  C   UNL d   1      31.103  17.212 -23.768  0.00  0.00     0.155 A 
ATOM      2  C   UNL d   1      30.868  16.494 -23.436  0.00  0.00     0.092 A 
ATOM      3  N   UNL d   1      30.562  17.652 -24.214  0.00  0.00    -0.210 NA
ATOM      4  N   UNL d   1      29.571  16.657 -23.991  0.00  0.00    -0.258 N 
ATOM      5  N   UNL d   1      31.870  17.488 -23.655  0.00  0.00    -0.275 N 
ATOM      6  C   UNL d   1      29.802  17.376 -24.325  0.00  0.00     0.152 A 
ATOM      7  C   UNL d   1      30.100  16.215 -23.547  0.00  0.00     0.269 A 
ATOM      8  C   UNL d   1      32.172  16.326 -22.875  0.00  0.00     0.105 A 
ATOM      9  C   UNL d   1      32.411  17.056 -23.212  0.00  0.00     0.180 A 
ATOM     10  C   UNL d   1      31.405  16.051 -22.989  0.00  0.00     0.021 A 
ATOM     11  C   UNL d   1      29.271  17.810 -24.765  0.00  0.00     0.035 A 
ATOM     12  C   UNL d   1      32.708  15.891 -22.433  0.00  0.00     0.104 C 
ATOM     13  N   UNL d   1      33.241  15.453 -21.990  0.00  0.00    -0.191 NA
ATOM     14  C   UNL d   1      28.801  16.375 -24.101  0.00  0.00     0.084 A 
ATOM     15  N   UNL d   1      33.201  17.181 -23.004  0.00  0.00    -0.128 N 
ATOM     16  O   UNL d   1      29.869  15.496 -23.214  0.00  0.00    -0.266 OA
ATOM     17  C   UNL d   1      28.270  16.825 -24.550  0.00  0.00     0.019 A 
ATOM     18  C   UNL d   1      28.505  17.542 -24.882  0.00  0.00     0.005 A 
ATOM     19  C   UNL d   1      29.506  18.528 -25.097  0.00  0.00     0.003 C 
ENDROOT
BRANCH   5  20
ATOM     20  C   UNL d   1      32.098  18.206 -23.990  0.00  0.00     0.067 C 
ATOM     21  C   UNL d   1      32.036  18.884 -23.519  0.00  0.00     0.019 C 
BRANCH  20  22
ATOM     22  C   UNL d   1      32.387  18.315 -24.764  0.00  0.00     0.018 C 
ATOM     23  C   UNL d   1      32.801  18.978 -25.044  0.00  0.00     0.002 C 
ENDBRANCH  20  22
ENDBRANCH   5  20
TORSDOF 2
ENDMDL
MODEL 2
REMARK VINA RESULT:       0.9      3.591      5.413
REMARK  2 active torsions:
REMARK  status: ('A' for Active; 'I' for Inactive)
REMARK    1  A    between atoms: C_18  and  N_5 
REMARK    2  A    between atoms: C_21  and  C_18 
ROOT
ATOM      1  C   UNL d   1      32.909  21.035 -22.770  0.00  0.00     0.155 A 
ATOM      2  C   UNL d   1      32.994  20.951 -23.586  0.00  0.00     0.092 A 
ATOM      3  N   UNL d   1      32.930  20.363 -22.286  0.00  0.00    -0.210 NA
ATOM      4  N   UNL d   1      33.117  19.544 -23.433  0.00  0.00    -0.258 N 
ATOM      5  N   UNL d   1      32.805  21.782 -22.440  0.00  0.00    -0.275 N 
ATOM      6  C   UNL d   1      33.033  19.624 -22.616  0.00  0.00     0.152 A 
ATOM      7  C   UNL d   1      33.098  20.204 -23.920  0.00  0.00     0.269 A 
ATOM      8  C   UNL d   1      32.870  22.366 -23.745  0.00  0.00     0.105 A 
ATOM      9  C   UNL d   1      32.784  22.451 -22.916  0.00  0.00     0.180 A 
ATOM     10  C   UNL d   1      32.974  21.619 -24.074  0.00  0.00     0.021 A 
ATOM     11  C   UNL d   1      33.053  18.964 -22.138  0.00  0.00     0.035 A 
ATOM     12  C   UNL d   1      32.849  23.031 -24.224  0.00  0.00     0.104 C 
ATOM     13  N   UNL d   1      32.830  23.694 -24.706  0.00  0.00    -0.191 NA
ATOM     14  C   UNL d   1      33.222  18.796 -23.770  0.00  0.00     0.084 A 
ATOM     15  N   UNL d   1      32.690  23.257 -22.756  0.00  0.00    -0.128 N 
ATOM     16  O   UNL d   1      33.183  20.124 -24.737  0.00  0.00    -0.266 OA
ATOM     17  C   UNL d   1      33.241  18.133 -23.275  0.00  0.00     0.019 A 
ATOM     18  C   UNL d   1      33.156  18.217 -22.458  0.00  0.00     0.005 A 
ATOM     19  C   UNL d   1      32.968  19.048 -21.321  0.00  0.00     0.003 C 
ENDROOT
BRANCH   5  20
ATOM     20  C   UNL d   1      32.721  21.858 -21.623  0.00  0.00     0.067 C 
ATOM     21  C   UNL d   1      32.065  21.497 -21.271  0.00  0.00     0.019 C 
BRANCH  20  22
ATOM     22  C   UNL d   1      33.239  22.268 -21.115  0.00  0.00     0.018 C 
ATOM     23  C   UNL d   1      33.196  22.288 -20.286  0.00  0.00     0.002 C 
ENDBRANCH  20  22
ENDBRANCH   5  20
TORSDOF 2
ENDMDL
MODEL 3
REMARK VINA RESULT:       1.1      3.400      5.012
REMARK  2 active torsions:
REMARK  status: ('A' for Active; 'I' for Inactive)
REMARK    1  A    between atoms: C_18  and  N_5 
REMARK    2  A    between atoms: C_21  and  C_18 
ROOT
ATOM      1  C   UNL d   1      32.895  20.642 -22.458  0.00  0.00     0.155 A 
ATOM      2  C   UNL d   1      33.030  20.280 -21.729  0.00  0.00     0.092 A 
ATOM      3  N   UNL d   1      32.809  21.465 -22.495  0.00  0.00    -0.210 NA
ATOM      4  N   UNL d   1      32.992  21.548 -21.088  0.00  0.00    -0.258 N 
ATOM      5  N   UNL d   1      32.847  20.187 -23.142  0.00  0.00    -0.275 N 
ATOM      6  C   UNL d   1      32.857  21.913 -21.816  0.00  0.00     0.152 A 
ATOM      7  C   UNL d   1      33.078  20.733 -21.041  0.00  0.00     0.269 A 
ATOM      8  C   UNL d   1      33.069  19.003 -22.370  0.00  0.00     0.105 A 
ATOM      9  C   UNL d   1      32.932  19.371 -23.110  0.00  0.00     0.180 A 
ATOM     10  C   UNL d   1      33.117  19.459 -21.686  0.00  0.00     0.021 A 
ATOM     11  C   UNL d   1      32.772  22.723 -21.855  0.00  0.00     0.035 A 
ATOM     12  C   UNL d   1      33.154  18.189 -22.332  0.00  0.00     0.104 C 
ATOM     13  N   UNL d   1      33.240  17.374 -22.291  0.00  0.00    -0.191 NA
ATOM     14  C   UNL d   1      33.041  21.999 -20.397  0.00  0.00     0.084 A 
ATOM     15  N   UNL d   1      32.912  18.776 -23.684  0.00  0.00    -0.128 N 
ATOM     16  O   UNL d   1      33.213  20.368 -20.314  0.00  0.00    -0.266 OA
ATOM     17  C   UNL d   1      32.953  22.821 -20.449  0.00  0.00     0.019 A 
ATOM     18  C   UNL d   1      32.818  23.183 -21.179  0.00  0.00     0.005 A 
ATOM     19  C   UNL d   1      32.637  23.085 -22.584  0.00  0.00     0.003 C 
ENDROOT
BRANCH   5  20
ATOM     20  C   UNL d   1      32.712  20.555 -23.868  0.00  0.00     0.067 C 
ATOM     21  C   UNL d   1      31.991  20.405 -24.245  0.00  0.00     0.019 C 
BRANCH  20  22
ATOM     22  C   UNL d   1      33.239  21.070 -24.260  0.00  0.00     0.018 C 
ATOM     23  C   UNL d   1      33.241  21.241 -25.072  0.00  0.00     0.002 C 
ENDBRANCH  20  22
ENDBRANCH   5  20
TORSDOF 2
ENDMDL
MODEL 4
REMARK VINA RESULT:       1.2      4.494      6.151
REMARK  2 active torsions:
REMARK  status: ('A' for Active; 'I' for Inactive)
REMARK    1  A    between atoms: C_18  and  N_5 
REMARK    2  A    between atoms: C_21  and  C_18 
ROOT
ATOM      1  C   UNL d   1      32.862  21.756 -21.556  0.00  0.00     0.155 A 
ATOM      2  C   UNL d   1      33.005  21.005 -21.245  0.00  0.00     0.092 A 
ATOM      3  N   UNL d   1      32.812  22.406 -21.045  0.00  0.00    -0.210 NA
ATOM      4  N   UNL d   1      33.046  21.552 -19.934  0.00  0.00    -0.258 N 
ATOM      5  N   UNL d   1      32.771  21.856 -22.368  0.00  0.00    -0.275 N 
ATOM      6  C   UNL d   1      32.903  22.304 -20.241  0.00  0.00     0.152 A 
ATOM      7  C   UNL d   1      33.097  20.902 -20.431  0.00  0.00     0.269 A 
ATOM      8  C   UNL d   1      32.965  20.452 -22.562  0.00  0.00     0.105 A 
ATOM      9  C   UNL d   1      32.820  21.214 -22.878  0.00  0.00     0.180 A 
ATOM     10  C   UNL d   1      33.056  20.353 -21.750  0.00  0.00     0.021 A 
ATOM     11  C   UNL d   1      32.853  22.946 -19.741  0.00  0.00     0.035 A 
ATOM     12  C   UNL d   1      33.015  19.808 -23.066  0.00  0.00     0.104 C 
ATOM     13  N   UNL d   1      33.066  19.161 -23.569  0.00  0.00    -0.191 NA
ATOM     14  C   UNL d   1      33.138  21.444 -19.119  0.00  0.00     0.084 A 
ATOM     15  N   UNL d   1      32.755  21.137 -23.698  0.00  0.00    -0.128 N 
ATOM     16  O   UNL d   1      33.240  20.149 -20.124  0.00  0.00    -0.266 OA
ATOM     17  C   UNL d   1      33.085  22.104 -18.620  0.00  0.00     0.019 A 
ATOM     18  C   UNL d   1      32.943  22.854 -18.931  0.00  0.00     0.005 A 
ATOM     19  C   UNL d   1      32.710  23.696 -20.052  0.00  0.00     0.003 C 
ENDROOT
BRANCH   5  20
ATOM     20  C   UNL d   1      32.629  22.610 -22.671  0.00  0.00     0.067 C 
ATOM     21  C   UNL d   1      33.241  22.975 -23.091  0.00  0.00     0.019 C 
BRANCH  20  22
ATOM     22  C   UNL d   1      31.919  23.041 -22.594  0.00  0.00     0.018 C 
ATOM     23  C   UNL d   1      31.657  23.645 -23.101  0.00  0.00     0.002 C 
ENDBRANCH  20  22
ENDBRANCH   5  20
TORSDOF 2
ENDMDL
MODEL 5
REMARK VINA RESULT:       1.6      4.163      5.800
REMARK  2 active torsions:
REMARK  status: ('A' for Active; 'I' for Inactive)
REMARK    1  A    between atoms: C_18  and  N_5 
REMARK    2  A    between atoms: C_21  and  C_18 
ROOT
ATOM      1  C   UNL d   1      32.932  21.416 -22.323  0.00  0.00     0.155 A 
ATOM      2  C   UNL d   1      32.971  22.189 -22.037  0.00  0.00     0.092 A 
ATOM      3  N   UNL d   1      32.979  21.280 -23.139  0.00  0.00    -0.210 NA
ATOM      4  N   UNL d   1      33.101  22.678 -23.365  0.00  0.00    -0.258 N 
ATOM      5  N   UNL d   1      32.847  20.786 -21.800  0.00  0.00    -0.275 N 
ATOM      6  C   UNL d   1      33.063  21.906 -23.655  0.00  0.00     0.152 A 
ATOM      7  C   UNL d   1      33.055  22.823 -22.559  0.00  0.00     0.269 A 
ATOM      8  C   UNL d   1      32.839  21.701 -20.701  0.00  0.00     0.105 A 
ATOM      9  C   UNL d   1      32.800  20.916 -20.991  0.00  0.00     0.180 A 
ATOM     10  C   UNL d   1      32.924  22.330 -21.224  0.00  0.00     0.021 A 
ATOM     11  C   UNL d   1      33.109  21.769 -24.457  0.00  0.00     0.035 A 
ATOM     12  C   UNL d   1      32.793  21.836 -19.894  0.00  0.00     0.104 C 
ATOM     13  N   UNL d   1      32.747  21.976 -19.086  0.00  0.00    -0.191 NA
ATOM     14  C   UNL d   1      33.186  23.315 -23.886  0.00  0.00     0.084 A 
ATOM     15  N   UNL d   1      32.716  20.413 -20.340  0.00  0.00    -0.128 N 
ATOM     16  O   UNL d   1      33.094  23.594 -22.270  0.00  0.00    -0.266 OA
ATOM     17  C   UNL d   1      33.232  23.164 -24.698  0.00  0.00     0.019 A 
ATOM     18  C   UNL d   1      33.194  22.391 -24.984  0.00  0.00     0.005 A 
ATOM     19  C   UNL d   1      33.071  20.996 -24.743  0.00  0.00     0.003 C 
ENDROOT
BRANCH   5  20
ATOM     20  C   UNL d   1      32.810  20.016 -22.094  0.00  0.00     0.067 C 
ATOM     21  C   UNL d   1      32.301  19.874 -22.730  0.00  0.00     0.019 C 
BRANCH  20  22
ATOM     22  C   UNL d   1      33.240  19.362 -21.806  0.00  0.00     0.018 C 
ATOM     23  C   UNL d   1      33.203  18.586 -22.099  0.00  0.00     0.002 C 
ENDBRANCH  20  22
ENDBRANCH   5  20
TORSDOF 2
ENDMDL
MODEL 6
REMARK VINA RESULT:       1.8      1.321      3.404
REMARK  2 active torsions:
REMARK  status: ('A' for Active; 'I' for Inactive)
REMARK    1  A    between atoms: C_18  and  N_5 
REMARK    2  A    between atoms: C_21  and  C_18 
ROOT
ATOM      1  C   UNL d   1      30.944  17.154 -23.966  0.00  0.00     0.155 A 
ATOM      2  C   UNL d   1      30.343  17.575 -24.341  0.00  0.00     0.092 A 
ATOM      3  N   UNL d   1      31.716  17.454 -23.968  0.00  0.00    -0.210 NA
ATOM      4  N   UNL d   1      31.275  18.581 -24.713  0.00  0.00    -0.258 N 
ATOM      5  N   UNL d   1      30.777  16.439 -23.593  0.00  0.00    -0.275 N 
ATOM      6  C   UNL d   1      31.879  18.162 -24.338  0.00  0.00     0.152 A 
ATOM      7  C   UNL d   1      30.507  18.292 -24.716  0.00  0.00     0.269 A 
ATOM      8  C   UNL d   1      29.402  16.566 -23.969  0.00  0.00     0.105 A 
ATOM      9  C   UNL d   1      30.013  16.137 -23.588  0.00  0.00     0.180 A 
ATOM     10  C   UNL d   1      29.570  17.280 -24.342  0.00  0.00     0.021 A 
ATOM     11  C   UNL d   1      32.639  18.456 -24.339  0.00  0.00     0.035 A 
ATOM     12  C   UNL d   1      28.638  16.269 -23.968  0.00  0.00     0.104 C 
ATOM     13  N   UNL d   1      27.872  15.974 -23.968  0.00  0.00    -0.191 NA
ATOM     14  C   UNL d   1      31.437  19.300 -25.090  0.00  0.00     0.084 A 
ATOM     15  N   UNL d   1      29.677  15.453 -23.269  0.00  0.00    -0.128 N 
ATOM     16  O   UNL d   1      29.903  18.711 -25.091  0.00  0.00    -0.266 OA
ATOM     17  C   UNL d   1      32.213  19.588 -25.084  0.00  0.00     0.019 A 
ATOM     18  C   UNL d   1      32.814  19.166 -24.708  0.00  0.00     0.005 A 
ATOM     19  C   UNL d   1      33.241  18.034 -23.964  0.00  0.00     0.003 C 
ENDROOT
BRANCH   5  20
ATOM     20  C   UNL d   1      31.383  16.023 -23.219  0.00  0.00     0.067 C 
ATOM     21  C   UNL d   1      31.901  15.591 -23.698  0.00  0.00     0.019 C 
BRANCH  20  22
ATOM     22  C   UNL d   1      31.524  15.997 -22.398  0.00  0.00     0.018 C 
ATOM     23  C   UNL d   1      32.074  15.509 -22.011  0.00  0.00     0.002 C 
ENDBRANCH  20  22
ENDBRANCH   5  20
TORSDOF 2
ENDMDL
MODEL 7
REMARK VINA RESULT:       2.3      1.570      4.074
REMARK  2 active torsions:
REMARK  status: ('A' for Active; 'I' for Inactive)
REMARK    1  A    between atoms: C_18  and  N_5 
REMARK    2  A    between atoms: C_21  and  C_18 
ROOT
ATOM      1  C   UNL d   1      30.290  17.026 -24.546  0.00  0.00     0.155 A 
ATOM      2  C   UNL d   1      30.454  17.819 -24.703  0.00  0.00     0.092 A 
ATOM      3  N   UNL d   1      30.915  16.500 -24.408  0.00  0.00    -0.210 NA
ATOM      4  N   UNL d   1      31.846  17.560 -24.585  0.00  0.00    -0.258 N 
ATOM      5  N   UNL d   1      29.511  16.761 -24.527  0.00  0.00    -0.275 N 
ATOM      6  C   UNL d   1      31.686  16.766 -24.427  0.00  0.00     0.152 A 
ATOM      7  C   UNL d   1      31.234  18.088 -24.723  0.00  0.00     0.269 A 
ATOM      8  C   UNL d   1      29.055  18.084 -24.823  0.00  0.00     0.105 A 
ATOM      9  C   UNL d   1      28.888  17.279 -24.663  0.00  0.00     0.180 A 
ATOM     10  C   UNL d   1      29.834  18.348 -24.842  0.00  0.00     0.021 A 
ATOM     11  C   UNL d   1      32.299  16.246 -24.291  0.00  0.00     0.035 A 
ATOM     12  C   UNL d   1      28.437  18.605 -24.960  0.00  0.00     0.104 C 
ATOM     13  N   UNL d   1      27.821  19.129 -25.097  0.00  0.00    -0.191 NA
ATOM     14  C   UNL d   1      32.626  17.832 -24.605  0.00  0.00     0.084 A 
ATOM     15  N   UNL d   1      28.067  17.185 -24.681  0.00  0.00    -0.128 N 
ATOM     16  O   UNL d   1      31.393  18.882 -24.881  0.00  0.00    -0.266 OA
ATOM     17  C   UNL d   1      33.241  17.295 -24.465  0.00  0.00     0.019 A 
ATOM     18  C   UNL d   1      33.077  16.502 -24.308  0.00  0.00     0.005 A 
ATOM     19  C   UNL d   1      32.135  15.453 -24.134  0.00  0.00     0.003 C 
ENDROOT
BRANCH   5  20
ATOM     20  C   UNL d   1      29.355  15.967 -24.369  0.00  0.00     0.067 C 
ATOM     21  C   UNL d   1      29.273  15.457 -25.015  0.00  0.00     0.019 C 
BRANCH  20  22
ATOM     22  C   UNL d   1      29.272  15.626 -23.612  0.00  0.00     0.018 C 
ATOM     23  C   UNL d   1      28.557  15.502 -23.208  0.00  0.00     0.002 C 
ENDBRANCH  20  22
ENDBRANCH   5  20
TORSDOF 2
ENDMDL
