MODEL 1
REMARK VINA RESULT:       1.3      0.000      0.000
REMARK  3 active torsions:
REMARK  status: ('A' for Active; 'I' for Inactive)
REMARK    1  A    between atoms: C_5  and  C_1 
REMARK    2  A    between atoms: C_2  and  C_5 
REMARK    3  A    between atoms: C_12  and  C_5 
ROOT
ATOM      1  C   UNL d   1      31.752  17.314 -23.984  0.00  0.00     0.021 C 
ENDROOT
BRANCH   1   2
ATOM      2  C   UNL d   1      30.933  17.212 -23.969  0.00  0.00     0.021 A 
ATOM      3  C   UNL d   1      30.325  17.545 -24.440  0.00  0.00     0.082 A 
ATOM      4  N   UNL d   1      29.614  17.233 -24.164  0.00  0.00    -0.246 NA
ATOM      5  C   UNL d   1      30.409  18.083 -25.066  0.00  0.00     0.021 C 
ATOM      6  C   UNL d   1      29.770  16.720 -23.538  0.00  0.00     0.081 A 
ATOM      7  C   UNL d   1      30.586  16.713 -23.425  0.00  0.00     0.019 A 
ATOM      8  C   UNL d   1      29.290  16.254 -23.049  0.00  0.00     0.019 A 
ATOM      9  C   UNL d   1      30.920  16.247 -22.831  0.00  0.00     0.002 A 
ATOM     10  C   UNL d   1      30.445  15.782 -22.342  0.00  0.00     0.000 A 
ATOM     11  C   UNL d   1      29.648  15.794 -22.459  0.00  0.00     0.002 A 
ENDBRANCH   1   2
BRANCH   1  12
ATOM     12  C   UNL d   1      32.088  18.055 -23.801  0.00  0.00     0.021 A 
ATOM     13  C   UNL d   1      32.107  18.696 -24.310  0.00  0.00     0.082 A 
ATOM     14  N   UNL d   1      32.486  19.315 -23.919  0.00  0.00    -0.246 NA
ATOM     15  C   UNL d   1      31.794  18.721 -25.097  0.00  0.00     0.021 C 
ATOM     16  C   UNL d   1      32.698  19.052 -23.171  0.00  0.00     0.081 A 
ATOM     17  C   UNL d   1      32.453  18.274 -23.098  0.00  0.00     0.019 A 
ATOM     18  C   UNL d   1      33.086  19.423 -22.542  0.00  0.00     0.019 A 
ATOM     19  C   UNL d   1      32.593  17.860 -22.396  0.00  0.00     0.002 A 
ATOM     20  C   UNL d   1      32.982  18.232 -21.767  0.00  0.00     0.000 A 
ATOM     21  C   UNL d   1      33.227  19.010 -21.840  0.00  0.00     0.002 A 
ENDBRANCH   1  12
BRANCH   1  22
ATOM     22  C   UNL d   1      32.245  16.694 -24.179  0.00  0.00     0.082 A 
ATOM     23  N   UNL d   1      32.359  16.077 -23.656  0.00  0.00    -0.244 NA
ATOM     24  C   UNL d   1      32.853  15.453 -23.847  0.00  0.00     0.099 A 
ATOM     25  C   UNL d   1      33.240  15.463 -24.594  0.00  0.00     0.021 A 
ATOM     26  C   UNL d   1      33.126  16.063 -25.096  0.00  0.00     0.003 A 
ATOM     27  C   UNL d   1      32.635  16.688 -24.912  0.00  0.00     0.019 A 
ENDBRANCH   1  22
TORSDOF 3
ENDMDL
MODEL 2
REMARK VINA RESULT:       3.4      0.418      2.871
REMARK  3 active torsions:
REMARK  status: ('A' for Active; 'I' for Inactive)
REMARK    1  A    between atoms: C_5  and  C_1 
REMARK    2  A    between atoms: C_2  and  C_5 
REMARK    3  A    between atoms: C_12  and  C_5 
ROOT
ATOM      1  C   UNL d   1      31.651  17.388 -24.020  0.00  0.00     0.021 C 
ENDROOT
BRANCH   1   2
ATOM      2  C   UNL d   1      32.016  18.110 -23.858  0.00  0.00     0.021 A 
ATOM      3  C   UNL d   1      32.104  18.802 -24.322  0.00  0.00     0.082 A 
ATOM      4  N   UNL d   1      32.521  19.344 -23.862  0.00  0.00    -0.246 NA
ATOM      5  C   UNL d   1      31.829  18.930 -25.094  0.00  0.00     0.021 C 
ATOM      6  C   UNL d   1      32.691  19.004 -23.132  0.00  0.00     0.081 A 
ATOM      7  C   UNL d   1      32.376  18.242 -23.138  0.00  0.00     0.019 A 
ATOM      8  C   UNL d   1      33.087  19.271 -22.455  0.00  0.00     0.019 A 
ATOM      9  C   UNL d   1      32.455  17.754 -22.477  0.00  0.00     0.002 A 
ATOM     10  C   UNL d   1      32.849  18.017 -21.802  0.00  0.00     0.000 A 
ATOM     11  C   UNL d   1      33.154  18.763 -21.804  0.00  0.00     0.002 A 
ENDBRANCH   1   2
BRANCH   1  12
ATOM     12  C   UNL d   1      30.824  17.307 -23.949  0.00  0.00     0.021 A 
ATOM     13  C   UNL d   1      30.276  17.743 -24.374  0.00  0.00     0.082 A 
ATOM     14  N   UNL d   1      29.525  17.496 -24.141  0.00  0.00    -0.246 NA
ATOM     15  C   UNL d   1      30.448  18.340 -24.950  0.00  0.00     0.021 C 
ATOM     16  C   UNL d   1      29.614  16.909 -23.573  0.00  0.00     0.081 A 
ATOM     17  C   UNL d   1      30.416  16.793 -23.455  0.00  0.00     0.019 A 
ATOM     18  C   UNL d   1      29.065  16.463 -23.146  0.00  0.00     0.019 A 
ATOM     19  C   UNL d   1      30.676  16.230 -22.908  0.00  0.00     0.002 A 
ATOM     20  C   UNL d   1      30.126  15.783 -22.480  0.00  0.00     0.000 A 
ATOM     21  C   UNL d   1      29.324  15.899 -22.599  0.00  0.00     0.002 A 
ENDBRANCH   1  12
BRANCH   1  22
ATOM     22  C   UNL d   1      32.092  16.741 -24.253  0.00  0.00     0.082 A 
ATOM     23  N   UNL d   1      31.833  16.263 -24.860  0.00  0.00    -0.244 NA
ATOM     24  C   UNL d   1      32.273  15.613 -25.097  0.00  0.00     0.099 A 
ATOM     25  C   UNL d   1      32.996  15.453 -24.698  0.00  0.00     0.021 A 
ATOM     26  C   UNL d   1      33.241  15.921 -24.110  0.00  0.00     0.003 A 
ATOM     27  C   UNL d   1      32.808  16.569 -23.870  0.00  0.00     0.019 A 
ENDBRANCH   1  22
TORSDOF 3
ENDMDL
