MODEL 1
REMARK VINA RESULT:      42.4      0.000      0.000
REMARK  1 active torsions:
REMARK  status: ('A' for Active; 'I' for Inactive)
REMARK    1  A    between atoms: C_13  and  C_7 
ROOT
ATOM      1  C   UNL d   1      13.789  14.607  -3.668  0.00  0.00     0.120 A 
ATOM      2  C   UNL d   1      14.017  14.202  -2.986  0.00  0.00     0.058 A 
ATOM      3  N   UNL d   1      13.998  15.398  -3.570  0.00  0.00    -0.195 NA
ATOM      4  S   UNL d   1      13.426  14.206  -4.279  0.00  0.00    -0.072 SA
ATOM      5  C   UNL d   1      13.287  13.403  -4.215  0.00  0.00     0.009 A 
ATOM      6  C   UNL d   1      13.514  12.994  -3.533  0.00  0.00    -0.015 A 
ATOM      7  C   UNL d   1      13.878  13.399  -2.922  0.00  0.00     0.005 A 
ATOM      8  C   UNL d   1      14.356  15.485  -2.828  0.00  0.00     0.311 A 
ATOM      9  S   UNL d   1      14.364  14.737  -2.471  0.00  0.00    -0.024 SA
ATOM     10  C   UNL d   1      13.374  12.183  -3.470  0.00  0.00     0.045 A 
ATOM     11  C   UNL d   1      12.920  12.999  -4.834  0.00  0.00     0.050 A 
ATOM     12  C   UNL d   1      13.223  12.819  -4.089  0.00  0.00     0.018 A 
ATOM     13  O   UNL d   1      14.652  16.185  -2.502  0.00  0.00    -0.258 OA
ATOM     14  C   UNL d   1      13.006  11.779  -4.089  0.00  0.00    -0.026 A 
ATOM     15  C   UNL d   1      12.779  12.188  -4.771  0.00  0.00    -0.026 A 
ENDROOT
BRANCH   7  16
ATOM     16  C   UNL d   1      14.105  12.996  -2.243  0.00  0.00     0.001 A 
ATOM     17  C   UNL d   1      13.539  12.576  -1.804  0.00  0.00     0.003 A 
ATOM     18  C   UNL d   1      13.766  12.175  -1.129  0.00  0.00     0.042 A 
ATOM     19  C   UNL d   1      14.560  12.186  -0.879  0.00  0.00     0.196 A 
ATOM     20  C   UNL d   1      15.118  12.609  -1.326  0.00  0.00     0.042 A 
ATOM     21  O   UNL d   1      14.786  11.781  -0.198  0.00  0.00    -0.287 OA
ATOM     22  C   UNL d   1      14.886  13.009  -2.001  0.00  0.00     0.003 A 
ENDBRANCH   7  16
TORSDOF 1
ENDMDL
MODEL 2
REMARK VINA RESULT:      44.5      1.598      3.412
REMARK  1 active torsions:
REMARK  status: ('A' for Active; 'I' for Inactive)
REMARK    1  A    between atoms: C_13  and  C_7 
ROOT
ATOM      1  C   UNL d   1      13.770  12.174  -2.573  0.00  0.00     0.120 A 
ATOM      2  C   UNL d   1      13.911  12.983  -2.650  0.00  0.00     0.058 A 
ATOM      3  N   UNL d   1      13.385  11.921  -3.257  0.00  0.00    -0.195 NA
ATOM      4  S   UNL d   1      14.009  11.779  -1.900  0.00  0.00    -0.072 SA
ATOM      5  C   UNL d   1      14.387  12.187  -1.301  0.00  0.00     0.009 A 
ATOM      6  C   UNL d   1      14.530  12.997  -1.374  0.00  0.00    -0.015 A 
ATOM      7  C   UNL d   1      14.290  13.391  -2.051  0.00  0.00     0.005 A 
ATOM      8  C   UNL d   1      13.286  12.573  -3.758  0.00  0.00     0.311 A 
ATOM      9  S   UNL d   1      13.616  13.230  -3.374  0.00  0.00    -0.024 SA
ATOM     10  C   UNL d   1      14.912  13.408  -0.768  0.00  0.00     0.045 A 
ATOM     11  C   UNL d   1      14.628  11.786  -0.620  0.00  0.00     0.050 A 
ATOM     12  C   UNL d   1      14.657  12.557  -0.911  0.00  0.00     0.018 A 
ATOM     13  O   UNL d   1      12.927  12.573  -4.503  0.00  0.00    -0.258 OA
ATOM     14  C   UNL d   1      15.153  13.007  -0.088  0.00  0.00    -0.026 A 
ATOM     15  C   UNL d   1      15.010  12.197  -0.014  0.00  0.00    -0.026 A 
ENDROOT
BRANCH   7  16
ATOM     16  C   UNL d   1      14.430  14.196  -2.127  0.00  0.00     0.001 A 
ATOM     17  C   UNL d   1      14.338  14.563  -2.866  0.00  0.00     0.003 A 
ATOM     18  C   UNL d   1      14.478  15.364  -2.941  0.00  0.00     0.042 A 
ATOM     19  C   UNL d   1      14.711  15.815  -2.281  0.00  0.00     0.196 A 
ATOM     20  C   UNL d   1      14.799  15.438  -1.546  0.00  0.00     0.042 A 
ATOM     21  O   UNL d   1      14.851  16.624  -2.359  0.00  0.00    -0.287 OA
ATOM     22  C   UNL d   1      14.658  14.635  -1.476  0.00  0.00     0.003 A 
ENDBRANCH   7  16
TORSDOF 1
ENDMDL
MODEL 3
REMARK VINA RESULT:      44.7      1.371      2.893
REMARK  1 active torsions:
REMARK  status: ('A' for Active; 'I' for Inactive)
REMARK    1  A    between atoms: C_13  and  C_7 
ROOT
ATOM      1  C   UNL d   1      14.744  14.536  -1.622  0.00  0.00     0.120 A 
ATOM      2  C   UNL d   1      14.398  14.142  -2.259  0.00  0.00     0.058 A 
ATOM      3  N   UNL d   1      14.906  15.307  -1.864  0.00  0.00    -0.195 NA
ATOM      4  S   UNL d   1      14.866  14.145  -0.916  0.00  0.00    -0.072 SA
ATOM      5  C   UNL d   1      14.643  13.361  -0.840  0.00  0.00     0.009 A 
ATOM      6  C   UNL d   1      14.295  12.964  -1.475  0.00  0.00    -0.015 A 
ATOM      7  C   UNL d   1      14.175  13.358  -2.183  0.00  0.00     0.005 A 
ATOM      8  C   UNL d   1      14.659  15.392  -2.650  0.00  0.00     0.311 A 
ATOM      9  S   UNL d   1      14.344  14.663  -2.889  0.00  0.00    -0.024 SA
ATOM     10  C   UNL d   1      14.071  12.173  -1.397  0.00  0.00     0.045 A 
ATOM     11  C   UNL d   1      14.766  12.968  -0.125  0.00  0.00     0.050 A 
ATOM     12  C   UNL d   1      14.453  12.792  -0.867  0.00  0.00     0.018 A 
ATOM     13  O   UNL d   1      14.715  16.075  -3.114  0.00  0.00    -0.258 OA
ATOM     14  C   UNL d   1      14.195  11.779  -0.682  0.00  0.00    -0.026 A 
ATOM     15  C   UNL d   1      14.542  12.177  -0.047  0.00  0.00    -0.026 A 
ENDROOT
BRANCH   7  16
ATOM     16  C   UNL d   1      13.830  12.966  -2.816  0.00  0.00     0.001 A 
ATOM     17  C   UNL d   1      14.015  12.169  -2.958  0.00  0.00     0.003 A 
ATOM     18  C   UNL d   1      13.671  11.780  -3.589  0.00  0.00     0.042 A 
ATOM     19  C   UNL d   1      13.137  12.177  -4.089  0.00  0.00     0.196 A 
ATOM     20  C   UNL d   1      12.958  12.974  -3.937  0.00  0.00     0.042 A 
ATOM     21  O   UNL d   1      12.791  11.782  -4.724  0.00  0.00    -0.287 OA
ATOM     22  C   UNL d   1      13.305  13.360  -3.304  0.00  0.00     0.003 A 
ENDBRANCH   7  16
TORSDOF 1
ENDMDL
