MODEL 1
REMARK VINA RESULT:     110.5      0.000      0.000
REMARK  4 active torsions:
REMARK  status: ('A' for Active; 'I' for Inactive)
REMARK       I    between atoms: C_3  and  N_1 
REMARK    1  A    between atoms: C_7  and  C_3 
REMARK    2  A    between atoms: C_9  and  C_4 
REMARK    3  A    between atoms: C_12  and  C_5 
REMARK    4  A    between atoms: O_20  and  C_17 
ROOT
ATOM      1  N   UNL d   1      61.298  47.141  50.269  0.00  0.00    -0.194 N 
ATOM      2  N   UNL d   1      61.514  46.396  50.008  0.00  0.00    -0.163 NA
ATOM      3  C   UNL d   1      61.445  47.871  49.865  0.00  0.00     0.286 C 
ATOM      4  C   UNL d   1      60.913  47.050  50.991  0.00  0.00     0.088 A 
ATOM      5  C   UNL d   1      61.270  45.841  50.558  0.00  0.00     0.103 A 
ATOM      6  C   UNL d   1      60.898  46.250  51.166  0.00  0.00     0.040 A 
ATOM      7  O   UNL d   1      61.842  47.840  49.142  0.00  0.00    -0.265 OA
ENDROOT
BRANCH   4   8
ATOM      8  C   UNL d   1      60.621  47.714  51.406  0.00  0.00     0.018 A 
ATOM      9  C   UNL d   1      59.842  47.996  51.271  0.00  0.00     0.004 A 
ATOM     10  C   UNL d   1      59.569  48.653  51.690  0.00  0.00     0.024 A 
ATOM     11  C   UNL d   1      60.052  49.043  52.244  0.00  0.00     0.094 A 
ATOM     12  C   UNL d   1      60.832  48.762  52.379  0.00  0.00     0.024 A 
ATOM     13  C   UNL d   1      61.107  48.098  51.956  0.00  0.00     0.004 A 
BRANCH  11  14
ATOM     14  O   UNL d   1      59.761  49.708  52.659  0.00  0.00    -0.328 OA
ATOM     15  C   UNL d   1      59.704  49.676  53.497  0.00  0.00     0.181 C 
ENDBRANCH  11  14
ENDBRANCH   4   8
BRANCH   3  16
ATOM     16  C   UNL d   1      61.204  48.585  50.177  0.00  0.00     0.087 A 
ATOM     17  S   UNL d   1      61.440  49.030  50.846  0.00  0.00    -0.082 SA
ATOM     18  C   UNL d   1      60.989  49.707  50.870  0.00  0.00     0.036 A 
ATOM     19  C   UNL d   1      60.472  49.708  50.236  0.00  0.00     0.008 A 
ATOM     20  C   UNL d   1      60.600  49.025  49.810  0.00  0.00     0.012 A 
ENDBRANCH   3  16
BRANCH   5  21
ATOM     21  C   UNL d   1      61.340  45.021  50.580  0.00  0.00     0.019 A 
ATOM     22  C   UNL d   1      61.195  44.621  51.291  0.00  0.00     0.002 A 
ATOM     23  C   UNL d   1      61.266  43.804  51.308  0.00  0.00     0.000 A 
ATOM     24  C   UNL d   1      61.476  43.381  50.635  0.00  0.00     0.000 A 
ATOM     25  C   UNL d   1      61.620  43.781  49.923  0.00  0.00     0.000 A 
ATOM     26  C   UNL d   1      61.549  44.602  49.906  0.00  0.00     0.002 A 
ENDBRANCH   5  21
TORSDOF 4
ENDMDL
