MODEL 1
REMARK VINA RESULT:      85.3      0.000      0.000
REMARK  3 active torsions:
REMARK  status: ('A' for Active; 'I' for Inactive)
REMARK       I    between atoms: C_4  and  N_1 
REMARK    1  A    between atoms: N_3  and  C_2 
REMARK    2  A    between atoms: C_9  and  C_4 
REMARK    3  A    between atoms: N_10  and  C_5 
ROOT
ATOM      1  C   UNL d   1     -50.080  26.972  34.831  0.00  0.00     0.143 A 
ATOM      2  C   UNL d   1     -49.808  27.475  34.203  0.00  0.00     0.086 A 
ATOM      3  C   UNL d   1     -50.682  26.420  34.652  0.00  0.00     0.030 A 
ATOM      4  C   UNL d   1     -50.988  26.381  33.888  0.00  0.00     0.058 A 
ATOM      5  C   UNL d   1     -50.132  27.412  33.458  0.00  0.00     0.019 A 
ATOM      6  C   UNL d   1     -50.723  26.861  33.308  0.00  0.00     0.006 A 
ENDROOT
BRANCH   4   7
ATOM      7  C   UNL d   1     -51.583  25.824  33.745  0.00  0.00     0.265 C 
ATOM      8  N   UNL d   1     -51.353  25.030  33.585  0.00  0.00    -0.275 N 
ATOM      9  C   UNL d   1     -51.864  24.402  33.429  0.00  0.00     0.067 A 
ATOM     10  C   UNL d   1     -50.576  24.750  33.556  0.00  0.00     0.067 A 
ATOM     11  C   UNL d   1     -51.417  23.752  33.308  0.00  0.00     0.019 A 
ATOM     12  C   UNL d   1     -52.919  24.252  33.354  0.00  0.00     0.019 C 
ATOM     13  C   UNL d   1     -50.614  23.944  33.382  0.00  0.00     0.018 A 
ATOM     14  C   UNL d   1     -49.917  23.508  33.318  0.00  0.00     0.002 A 
ATOM     15  C   UNL d   1     -49.206  23.881  33.426  0.00  0.00     0.000 A 
ATOM     16  C   UNL d   1     -49.160  24.675  33.598  0.00  0.00     0.002 A 
ATOM     17  C   UNL d   1     -49.852  25.117  33.664  0.00  0.00     0.018 A 
ATOM     18  O   UNL d   1     -52.391  26.024  33.755  0.00  0.00    -0.267 OA
ENDBRANCH   4   7
BRANCH   1  19
ATOM     19  N   UNL d   1     -49.752  27.033  35.595  0.00  0.00    -0.112 N 
ATOM     20  O   UNL d   1     -49.023  26.642  35.778  0.00  0.00    -0.532 OA
ATOM     21  O   UNL d   1     -50.131  27.476  36.184  0.00  0.00    -0.532 OA
ENDBRANCH   1  19
BRANCH   2  22
ATOM     22  N   UNL d   1     -49.210  28.032  34.359  0.00  0.00    -0.302 N 
ATOM     23  C   UNL d   1     -49.272  28.836  34.109  0.00  0.00     0.080 A 
ATOM     24  C   UNL d   1     -48.666  29.371  34.274  0.00  0.00     0.019 A 
ATOM     25  C   UNL d   1     -47.999  29.130  34.682  0.00  0.00     0.003 A 
ATOM     26  C   UNL d   1     -47.912  28.343  34.940  0.00  0.00     0.019 A 
ATOM     27  C   UNL d   1     -48.516  27.806  34.776  0.00  0.00     0.080 A 
ENDBRANCH   2  22
TORSDOF 3
ENDMDL
