MODEL 1
REMARK VINA RESULT:      18.7      0.000      0.000
REMARK  1 active torsions:
REMARK  status: ('A' for Active; 'I' for Inactive)
REMARK    1  A    between atoms: C_4  and  C_2 
ROOT
ATOM      1  C   UNL d   1      14.302  12.268  -1.620  0.00  0.00     0.141 C 
ATOM      2  C   UNL d   1      15.083  12.030  -1.544  0.00  0.00     0.112 C 
ATOM      3  C   UNL d   1      13.731  12.025  -1.063  0.00  0.00     0.112 C 
ATOM      4  N   UNL d   1      13.141  11.780  -0.498  0.00  0.00    -0.191 NA
ATOM      5  N   UNL d   1      15.879  11.780  -1.457  0.00  0.00    -0.191 NA
ENDROOT
BRANCH   1   6
ATOM      6  C   UNL d   1      14.092  12.756  -2.260  0.00  0.00     0.079 A 
ATOM      7  C   UNL d   1      14.248  13.544  -2.302  0.00  0.00     0.281 A 
ATOM      8  N   UNL d   1      13.958  13.828  -3.009  0.00  0.00    -0.208 NA
ATOM      9  O   UNL d   1      14.644  13.973  -1.704  0.00  0.00    -0.265 OA
ATOM     10  C   UNL d   1      13.620  13.209  -3.406  0.00  0.00     0.085 A 
ATOM     11  C   UNL d   1      13.241  13.166  -4.144  0.00  0.00     0.019 A 
ATOM     12  C   UNL d   1      13.698  12.527  -2.944  0.00  0.00     0.024 A 
ATOM     13  C   UNL d   1      12.952  12.464  -4.405  0.00  0.00     0.002 A 
ATOM     14  C   UNL d   1      13.036  11.780  -3.929  0.00  0.00     0.000 A 
ATOM     15  C   UNL d   1      13.414  11.831  -3.198  0.00  0.00     0.002 A 
ENDBRANCH   1   6
TORSDOF 1
ENDMDL
