MODEL 1
REMARK VINA RESULT:      82.8      0.000      0.000
REMARK  3 active torsions:
REMARK  status: ('A' for Active; 'I' for Inactive)
REMARK    1  A    between atoms: C_11  and  C_2 
REMARK    2  A    between atoms: C_12  and  C_3 
REMARK    3  A    between atoms: N_7  and  C_6 
ROOT
ATOM      1  C   UNL d   1     -49.680  25.975  33.786  0.00  0.00     0.078 A 
ATOM      2  C   UNL d   1     -51.091  25.759  33.855  0.00  0.00     0.029 A 
ATOM      3  C   UNL d   1     -50.967  24.949  33.729  0.00  0.00     0.102 A 
ATOM      4  C   UNL d   1     -49.561  25.165  33.659  0.00  0.00     0.187 A 
ATOM      5  O   UNL d   1     -50.206  24.661  33.633  0.00  0.00    -0.289 OA
ATOM      6  C   UNL d   1     -49.027  26.489  33.813  0.00  0.00     0.153 A 
ATOM      7  N   UNL d   1     -48.795  24.875  33.562  0.00  0.00    -0.200 NA
ATOM      8  N   UNL d   1     -48.268  26.189  33.715  0.00  0.00    -0.206 NA
ATOM      9  C   UNL d   1     -48.145  25.378  33.589  0.00  0.00     0.202 A 
ENDROOT
BRANCH   2  10
ATOM     10  C   UNL d   1     -51.856  26.049  33.953  0.00  0.00     0.002 A 
ATOM     11  C   UNL d   1     -52.261  26.353  33.313  0.00  0.00     0.000 A 
ATOM     12  C   UNL d   1     -53.029  26.643  33.415  0.00  0.00     0.000 A 
ATOM     13  C   UNL d   1     -53.386  26.626  34.162  0.00  0.00     0.000 A 
ATOM     14  C   UNL d   1     -52.972  26.317  34.806  0.00  0.00     0.000 A 
ATOM     15  C   UNL d   1     -52.204  26.027  34.706  0.00  0.00     0.000 A 
ENDBRANCH   2  10
BRANCH   3  16
ATOM     16  C   UNL d   1     -51.611  24.437  33.701  0.00  0.00     0.023 A 
ATOM     17  C   UNL d   1     -51.526  23.707  33.340  0.00  0.00     0.002 A 
ATOM     18  C   UNL d   1     -52.168  23.195  33.312  0.00  0.00     0.000 A 
ATOM     19  C   UNL d   1     -52.888  23.422  33.645  0.00  0.00     0.000 A 
ATOM     20  C   UNL d   1     -52.961  24.160  34.006  0.00  0.00     0.000 A 
ATOM     21  C   UNL d   1     -52.319  24.660  34.029  0.00  0.00     0.002 A 
ENDBRANCH   3  16
BRANCH   6  22
ATOM     22  N   UNL d   1     -49.146  27.295  33.939  0.00  0.00    -0.285 N 
ATOM     23  C   UNL d   1     -49.448  27.771  33.342  0.00  0.00     0.108 A 
ATOM     24  C   UNL d   1     -49.567  28.582  33.468  0.00  0.00     0.142 A 
ATOM     25  O   UNL d   1     -49.384  28.917  34.192  0.00  0.00    -0.300 OA
ATOM     26  C   UNL d   1     -49.076  28.432  34.802  0.00  0.00     0.142 A 
ATOM     27  C   UNL d   1     -48.959  27.629  34.676  0.00  0.00     0.108 A 
ENDBRANCH   6  22
TORSDOF 3
ENDMDL
MODEL 2
REMARK VINA RESULT:      84.4      1.854      4.465
REMARK  3 active torsions:
REMARK  status: ('A' for Active; 'I' for Inactive)
REMARK    1  A    between atoms: C_11  and  C_2 
REMARK    2  A    between atoms: C_12  and  C_3 
REMARK    3  A    between atoms: N_7  and  C_6 
ROOT
ATOM      1  C   UNL d   1     -52.300  25.923  33.485  0.00  0.00     0.078 A 
ATOM      2  C   UNL d   1     -50.937  25.495  33.434  0.00  0.00     0.029 A 
ATOM      3  C   UNL d   1     -50.695  26.288  33.413  0.00  0.00     0.102 A 
ATOM      4  C   UNL d   1     -52.054  26.714  33.464  0.00  0.00     0.187 A 
ATOM      5  O   UNL d   1     -51.254  26.887  33.429  0.00  0.00    -0.289 OA
ATOM      6  C   UNL d   1     -53.111  25.744  33.521  0.00  0.00     0.153 A 
ATOM      7  N   UNL d   1     -52.616  27.317  33.480  0.00  0.00    -0.200 NA
ATOM      8  N   UNL d   1     -53.662  26.353  33.536  0.00  0.00    -0.206 NA
ATOM      9  C   UNL d   1     -53.419  27.146  33.515  0.00  0.00     0.202 A 
ENDROOT
BRANCH   2  10
ATOM     10  C   UNL d   1     -50.376  24.892  33.419  0.00  0.00     0.002 A 
ATOM     11  C   UNL d   1     -50.614  24.114  33.374  0.00  0.00     0.000 A 
ATOM     12  C   UNL d   1     -50.048  23.512  33.359  0.00  0.00     0.000 A 
ATOM     13  C   UNL d   1     -49.240  23.697  33.389  0.00  0.00     0.000 A 
ATOM     14  C   UNL d   1     -49.004  24.487  33.434  0.00  0.00     0.000 A 
ATOM     15  C   UNL d   1     -49.570  25.090  33.449  0.00  0.00     0.000 A 
ENDBRANCH   2  10
BRANCH   3  16
ATOM     16  C   UNL d   1     -49.894  26.470  33.378  0.00  0.00     0.023 A 
ATOM     17  C   UNL d   1     -49.345  25.862  33.377  0.00  0.00     0.002 A 
ATOM     18  C   UNL d   1     -48.544  26.043  33.341  0.00  0.00     0.000 A 
ATOM     19  C   UNL d   1     -48.303  26.831  33.307  0.00  0.00     0.000 A 
ATOM     20  C   UNL d   1     -48.865  27.435  33.308  0.00  0.00     0.000 A 
ATOM     21  C   UNL d   1     -49.657  27.246  33.344  0.00  0.00     0.002 A 
ENDBRANCH   3  16
BRANCH   6  22
ATOM     22  N   UNL d   1     -53.355  24.956  33.542  0.00  0.00    -0.285 N 
ATOM     23  C   UNL d   1     -54.114  24.748  33.305  0.00  0.00     0.108 A 
ATOM     24  C   UNL d   1     -54.360  23.957  33.326  0.00  0.00     0.142 A 
ATOM     25  O   UNL d   1     -53.847  23.373  33.584  0.00  0.00    -0.300 OA
ATOM     26  C   UNL d   1     -53.073  23.585  33.825  0.00  0.00     0.142 A 
ATOM     27  C   UNL d   1     -52.831  24.369  33.804  0.00  0.00     0.108 A 
ENDBRANCH   6  22
TORSDOF 3
ENDMDL
MODEL 3
REMARK VINA RESULT:      85.1      2.544      4.290
REMARK  3 active torsions:
REMARK  status: ('A' for Active; 'I' for Inactive)
REMARK    1  A    between atoms: C_11  and  C_2 
REMARK    2  A    between atoms: C_12  and  C_3 
REMARK    3  A    between atoms: N_7  and  C_6 
ROOT
ATOM      1  C   UNL d   1     -51.635  25.829  34.739  0.00  0.00     0.078 A 
ATOM      2  C   UNL d   1     -51.921  25.827  36.140  0.00  0.00     0.029 A 
ATOM      3  C   UNL d   1     -51.382  26.448  36.245  0.00  0.00     0.102 A 
ATOM      4  C   UNL d   1     -51.097  26.450  34.848  0.00  0.00     0.187 A 
ATOM      5  O   UNL d   1     -50.977  26.752  35.600  0.00  0.00    -0.289 OA
ATOM      6  C   UNL d   1     -51.759  25.520  33.978  0.00  0.00     0.153 A 
ATOM      7  N   UNL d   1     -50.690  26.756  34.201  0.00  0.00    -0.200 NA
ATOM      8  N   UNL d   1     -51.348  25.833  33.339  0.00  0.00    -0.206 NA
ATOM      9  C   UNL d   1     -50.808  26.454  33.445  0.00  0.00     0.202 A 
ENDROOT
BRANCH   2  10
ATOM     10  C   UNL d   1     -52.328  25.521  36.787  0.00  0.00     0.002 A 
ATOM     11  C   UNL d   1     -51.955  25.005  37.297  0.00  0.00     0.000 A 
ATOM     12  C   UNL d   1     -52.368  24.700  37.945  0.00  0.00     0.000 A 
ATOM     13  C   UNL d   1     -53.157  24.917  38.079  0.00  0.00     0.000 A 
ATOM     14  C   UNL d   1     -53.529  25.440  37.560  0.00  0.00     0.000 A 
ATOM     15  C   UNL d   1     -53.118  25.746  36.911  0.00  0.00     0.000 A 
ENDBRANCH   2  10
BRANCH   3  16
ATOM     16  C   UNL d   1     -51.256  26.757  36.997  0.00  0.00     0.023 A 
ATOM     17  C   UNL d   1     -50.548  26.604  37.379  0.00  0.00     0.002 A 
ATOM     18  C   UNL d   1     -50.421  26.912  38.131  0.00  0.00     0.000 A 
ATOM     19  C   UNL d   1     -51.006  27.371  38.489  0.00  0.00     0.000 A 
ATOM     20  C   UNL d   1     -51.715  27.519  38.094  0.00  0.00     0.000 A 
ATOM     21  C   UNL d   1     -51.831  27.209  37.349  0.00  0.00     0.002 A 
ENDBRANCH   3  16
BRANCH   6  22
ATOM     22  N   UNL d   1     -52.295  24.902  33.870  0.00  0.00    -0.285 N 
ATOM     23  C   UNL d   1     -53.077  25.056  33.673  0.00  0.00     0.108 A 
ATOM     24  C   UNL d   1     -53.615  24.435  33.564  0.00  0.00     0.142 A 
ATOM     25  O   UNL d   1     -53.370  23.659  33.651  0.00  0.00    -0.300 OA
ATOM     26  C   UNL d   1     -52.573  23.501  33.852  0.00  0.00     0.142 A 
ATOM     27  C   UNL d   1     -52.041  24.116  33.960  0.00  0.00     0.108 A 
ENDBRANCH   6  22
TORSDOF 3
ENDMDL
