MODEL 1
REMARK VINA RESULT:      -7.8      0.000      0.000
REMARK  8 active torsions:
REMARK  status: ('A' for Active; 'I' for Inactive)
REMARK    1  A    between atoms: N_2  and  C_1 
REMARK    2  A    between atoms: N_3  and  C_1 
REMARK    3  A    between atoms: C_6  and  C_1 
REMARK       I    between atoms: C_4  and  N_2 
REMARK       I    between atoms: C_5  and  N_3 
REMARK    4  A    between atoms: O_11  and  C_4 
REMARK    5  A    between atoms: O_12  and  C_5 
REMARK    6  A    between atoms: C_10  and  C_6 
REMARK    7  A    between atoms: C_15  and  O_11 
REMARK    8  A    between atoms: C_16  and  O_12 
ROOT
ATOM      1  C   UNL d   1      53.265  32.080  53.533  0.00  0.00     0.211 C 
ENDROOT
BRANCH   1   2
ATOM      2  N   UNL d   1      53.067  31.473  54.040  0.00  0.00    -0.163 NA
ATOM      3  C   UNL d   1      53.333  30.711  53.893  0.00  0.00     0.394 C 
ATOM      4  O   UNL d   1      53.805  30.537  53.237  0.00  0.00    -0.236 OA
BRANCH   3   5
ATOM      5  O   UNL d   1      53.133  30.096  54.406  0.00  0.00    -0.256 OA
BRANCH   5   6
ATOM      6  C   UNL d   1      53.362  29.313  54.232  0.00  0.00     0.128 C 
ATOM      7  C   UNL d   1      53.330  28.729  54.812  0.00  0.00     0.029 C 
ENDBRANCH   5   6
ENDBRANCH   3   5
ENDBRANCH   1   2
BRANCH   1   8
ATOM      8  N   UNL d   1      53.970  32.528  53.650  0.00  0.00    -0.163 NA
ATOM      9  C   UNL d   1      54.203  32.767  54.402  0.00  0.00     0.394 C 
ATOM     10  O   UNL d   1      53.733  32.558  55.037  0.00  0.00    -0.236 OA
BRANCH   9  11
ATOM     11  O   UNL d   1      54.904  33.212  54.516  0.00  0.00    -0.256 OA
BRANCH  11  12
ATOM     12  C   UNL d   1      54.944  33.541  55.099  0.00  0.00     0.128 C 
ATOM     13  C   UNL d   1      55.600  34.073  55.191  0.00  0.00     0.029 C 
ENDBRANCH  11  12
ENDBRANCH   9  11
ENDBRANCH   1   8
BRANCH   1  14
ATOM     14  C   UNL d   1      52.768  32.267  52.888  0.00  0.00     0.231 C 
ATOM     15  O   UNL d   1      52.831  31.843  52.182  0.00  0.00    -0.283 OA
BRANCH  14  16
ATOM     16  C   UNL d   1      52.198  32.889  52.948  0.00  0.00     0.042 A 
ATOM     17  C   UNL d   1      52.353  33.617  52.603  0.00  0.00     0.003 A 
ATOM     18  C   UNL d   1      51.810  34.230  52.652  0.00  0.00     0.000 A 
ATOM     19  C   UNL d   1      51.082  34.110  53.062  0.00  0.00     0.000 A 
ATOM     20  C   UNL d   1      50.939  33.384  53.401  0.00  0.00     0.000 A 
ATOM     21  C   UNL d   1      51.490  32.772  53.347  0.00  0.00     0.003 A 
ENDBRANCH  14  16
ENDBRANCH   1  14
TORSDOF 8
ENDMDL
MODEL 2
REMARK VINA RESULT:      -7.8      1.283      2.935
REMARK  8 active torsions:
REMARK  status: ('A' for Active; 'I' for Inactive)
REMARK    1  A    between atoms: N_2  and  C_1 
REMARK    2  A    between atoms: N_3  and  C_1 
REMARK    3  A    between atoms: C_6  and  C_1 
REMARK       I    between atoms: C_4  and  N_2 
REMARK       I    between atoms: C_5  and  N_3 
REMARK    4  A    between atoms: O_11  and  C_4 
REMARK    5  A    between atoms: O_12  and  C_5 
REMARK    6  A    between atoms: C_10  and  C_6 
REMARK    7  A    between atoms: C_15  and  O_11 
REMARK    8  A    between atoms: C_16  and  O_12 
ROOT
ATOM      1  C   UNL d   1      52.922  32.688  53.158  0.00  0.00     0.211 C 
ENDROOT
BRANCH   1   2
ATOM      2  N   UNL d   1      52.676  31.979  53.476  0.00  0.00    -0.163 NA
ATOM      3  C   UNL d   1      52.675  31.299  53.016  0.00  0.00     0.394 C 
ATOM      4  O   UNL d   1      52.921  31.311  52.226  0.00  0.00    -0.236 OA
BRANCH   3   5
ATOM      5  O   UNL d   1      52.426  30.581  53.338  0.00  0.00    -0.256 OA
BRANCH   5   6
ATOM      6  C   UNL d   1      52.845  29.879  53.172  0.00  0.00     0.128 C 
ATOM      7  C   UNL d   1      52.884  29.273  53.729  0.00  0.00     0.029 C 
ENDBRANCH   5   6
ENDBRANCH   3   5
ENDBRANCH   1   2
BRANCH   1   8
ATOM      8  N   UNL d   1      52.402  33.153  52.685  0.00  0.00    -0.163 NA
ATOM      9  C   UNL d   1      51.663  33.383  52.965  0.00  0.00     0.394 C 
ATOM     10  O   UNL d   1      51.443  33.147  53.716  0.00  0.00    -0.236 OA
BRANCH   9  11
ATOM     11  O   UNL d   1      51.147  33.846  52.493  0.00  0.00    -0.256 OA
BRANCH  11  12
ATOM     12  C   UNL d   1      50.618  34.104  52.814  0.00  0.00     0.128 C 
ATOM     13  C   UNL d   1      50.040  34.504  52.337  0.00  0.00     0.029 C 
ENDBRANCH  11  12
ENDBRANCH   9  11
ENDBRANCH   1   8
BRANCH   1  14
ATOM     14  C   UNL d   1      53.698  32.962  53.297  0.00  0.00     0.231 C 
ATOM     15  O   UNL d   1      54.246  32.986  52.680  0.00  0.00    -0.283 OA
BRANCH  14  16
ATOM     16  C   UNL d   1      53.933  33.219  54.068  0.00  0.00     0.042 A 
ATOM     17  C   UNL d   1      53.904  34.017  54.257  0.00  0.00     0.003 A 
ATOM     18  C   UNL d   1      54.129  34.282  55.001  0.00  0.00     0.000 A 
ATOM     19  C   UNL d   1      54.394  33.726  55.579  0.00  0.00     0.000 A 
ATOM     20  C   UNL d   1      54.418  32.937  55.380  0.00  0.00     0.000 A 
ATOM     21  C   UNL d   1      54.190  32.678  54.630  0.00  0.00     0.003 A 
ENDBRANCH  14  16
ENDBRANCH   1  14
TORSDOF 8
ENDMDL
MODEL 3
REMARK VINA RESULT:      -7.6      0.099      2.809
REMARK  8 active torsions:
REMARK  status: ('A' for Active; 'I' for Inactive)
REMARK    1  A    between atoms: N_2  and  C_1 
REMARK    2  A    between atoms: N_3  and  C_1 
REMARK    3  A    between atoms: C_6  and  C_1 
REMARK       I    between atoms: C_4  and  N_2 
REMARK       I    between atoms: C_5  and  N_3 
REMARK    4  A    between atoms: O_11  and  C_4 
REMARK    5  A    between atoms: O_12  and  C_5 
REMARK    6  A    between atoms: C_10  and  C_6 
REMARK    7  A    between atoms: C_15  and  O_11 
REMARK    8  A    between atoms: C_16  and  O_12 
ROOT
ATOM      1  C   UNL d   1      53.256  31.997  53.479  0.00  0.00     0.211 C 
ENDROOT
BRANCH   1   2
ATOM      2  N   UNL d   1      53.937  32.432  53.581  0.00  0.00    -0.163 NA
ATOM      3  C   UNL d   1      54.164  32.673  54.332  0.00  0.00     0.394 C 
ATOM      4  O   UNL d   1      53.715  32.485  55.000  0.00  0.00    -0.236 OA
BRANCH   3   5
ATOM      5  O   UNL d   1      54.855  33.113  54.435  0.00  0.00    -0.256 OA
BRANCH   5   6
ATOM      6  C   UNL d   1      54.947  33.596  55.110  0.00  0.00     0.128 C 
ATOM      7  C   UNL d   1      55.582  34.117  55.167  0.00  0.00     0.029 C 
ENDBRANCH   5   6
ENDBRANCH   3   5
ENDBRANCH   1   2
BRANCH   1   8
ATOM      8  N   UNL d   1      53.068  31.359  53.997  0.00  0.00    -0.163 NA
ATOM      9  C   UNL d   1      53.331  30.595  53.843  0.00  0.00     0.394 C 
ATOM     10  O   UNL d   1      53.780  30.467  53.173  0.00  0.00    -0.236 OA
BRANCH   9  11
ATOM     11  O   UNL d   1      53.143  29.962  54.360  0.00  0.00    -0.256 OA
BRANCH  11  12
ATOM     12  C   UNL d   1      53.369  29.360  54.171  0.00  0.00     0.128 C 
ATOM     13  C   UNL d   1      53.337  28.740  54.751  0.00  0.00     0.029 C 
ENDBRANCH  11  12
ENDBRANCH   9  11
ENDBRANCH   1   8
BRANCH   1  14
ATOM     14  C   UNL d   1      52.731  32.180  52.856  0.00  0.00     0.231 C 
ATOM     15  O   UNL d   1      52.756  31.747  52.153  0.00  0.00    -0.283 OA
BRANCH  14  16
ATOM     16  C   UNL d   1      52.170  32.808  52.934  0.00  0.00     0.042 A 
ATOM     17  C   UNL d   1      52.329  33.540  52.600  0.00  0.00     0.003 A 
ATOM     18  C   UNL d   1      51.794  34.159  52.667  0.00  0.00     0.000 A 
ATOM     19  C   UNL d   1      51.070  34.041  53.085  0.00  0.00     0.000 A 
ATOM     20  C   UNL d   1      50.923  33.310  53.411  0.00  0.00     0.000 A 
ATOM     21  C   UNL d   1      51.466  32.692  53.340  0.00  0.00     0.003 A 
ENDBRANCH  14  16
ENDBRANCH   1  14
TORSDOF 8
ENDMDL
MODEL 4
REMARK VINA RESULT:      -7.5      1.198      3.713
REMARK  8 active torsions:
REMARK  status: ('A' for Active; 'I' for Inactive)
REMARK    1  A    between atoms: N_2  and  C_1 
REMARK    2  A    between atoms: N_3  and  C_1 
REMARK    3  A    between atoms: C_6  and  C_1 
REMARK       I    between atoms: C_4  and  N_2 
REMARK       I    between atoms: C_5  and  N_3 
REMARK    4  A    between atoms: O_11  and  C_4 
REMARK    5  A    between atoms: O_12  and  C_5 
REMARK    6  A    between atoms: C_10  and  C_6 
REMARK    7  A    between atoms: C_15  and  O_11 
REMARK    8  A    between atoms: C_16  and  O_12 
ROOT
ATOM      1  C   UNL d   1      53.110  32.540  53.186  0.00  0.00     0.211 C 
ENDROOT
BRANCH   1   2
ATOM      2  N   UNL d   1      52.641  33.020  52.724  0.00  0.00    -0.163 NA
ATOM      3  C   UNL d   1      51.921  33.291  53.011  0.00  0.00     0.394 C 
ATOM      4  O   UNL d   1      51.653  33.089  53.767  0.00  0.00    -0.236 OA
BRANCH   3   5
ATOM      5  O   UNL d   1      51.445  33.777  52.543  0.00  0.00    -0.256 OA
BRANCH   5   6
ATOM      6  C   UNL d   1      50.779  34.155  52.875  0.00  0.00     0.128 C 
ATOM      7  C   UNL d   1      50.192  34.469  52.389  0.00  0.00     0.029 C 
ENDBRANCH   5   6
ENDBRANCH   3   5
ENDBRANCH   1   2
BRANCH   1   8
ATOM      8  N   UNL d   1      52.812  31.817  53.502  0.00  0.00    -0.163 NA
ATOM      9  C   UNL d   1      52.766  31.138  53.040  0.00  0.00     0.394 C 
ATOM     10  O   UNL d   1      53.018  31.180  52.264  0.00  0.00    -0.236 OA
BRANCH   9  11
ATOM     11  O   UNL d   1      52.468  30.420  53.356  0.00  0.00    -0.256 OA
BRANCH  11  12
ATOM     12  C   UNL d   1      52.779  29.864  53.147  0.00  0.00     0.128 C 
ATOM     13  C   UNL d   1      52.787  29.207  53.685  0.00  0.00     0.029 C 
ENDBRANCH  11  12
ENDBRANCH   9  11
ENDBRANCH   1   8
BRANCH   1  14
ATOM     14  C   UNL d   1      53.898  32.760  53.353  0.00  0.00     0.231 C 
ATOM     15  O   UNL d   1      54.476  32.708  52.765  0.00  0.00    -0.283 OA
BRANCH  14  16
ATOM     16  C   UNL d   1      54.116  33.037  54.122  0.00  0.00     0.042 A 
ATOM     17  C   UNL d   1      54.365  33.813  54.220  0.00  0.00     0.003 A 
ATOM     18  C   UNL d   1      54.580  34.096  54.959  0.00  0.00     0.000 A 
ATOM     19  C   UNL d   1      54.543  33.584  55.629  0.00  0.00     0.000 A 
ATOM     20  C   UNL d   1      54.294  32.816  55.520  0.00  0.00     0.000 A 
ATOM     21  C   UNL d   1      54.080  32.538  54.773  0.00  0.00     0.003 A 
ENDBRANCH  14  16
ENDBRANCH   1  14
TORSDOF 8
ENDMDL
MODEL 5
REMARK VINA RESULT:      -7.4      0.910      3.194
REMARK  8 active torsions:
REMARK  status: ('A' for Active; 'I' for Inactive)
REMARK    1  A    between atoms: N_2  and  C_1 
REMARK    2  A    between atoms: N_3  and  C_1 
REMARK    3  A    between atoms: C_6  and  C_1 
REMARK       I    between atoms: C_4  and  N_2 
REMARK       I    between atoms: C_5  and  N_3 
REMARK    4  A    between atoms: O_11  and  C_4 
REMARK    5  A    between atoms: O_12  and  C_5 
REMARK    6  A    between atoms: C_10  and  C_6 
REMARK    7  A    between atoms: C_15  and  O_11 
REMARK    8  A    between atoms: C_16  and  O_12 
ROOT
ATOM      1  C   UNL d   1      53.043  32.133  53.291  0.00  0.00     0.211 C 
ENDROOT
BRANCH   1   2
ATOM      2  N   UNL d   1      52.343  32.486  53.514  0.00  0.00    -0.163 NA
ATOM      3  C   UNL d   1      51.986  33.040  53.024  0.00  0.00     0.394 C 
ATOM      4  O   UNL d   1      52.321  33.254  52.299  0.00  0.00    -0.236 OA
BRANCH   3   5
ATOM      5  O   UNL d   1      51.277  33.397  53.250  0.00  0.00    -0.256 OA
BRANCH   5   6
ATOM      6  C   UNL d   1      50.939  33.994  52.774  0.00  0.00     0.128 C 
ATOM      7  C   UNL d   1      50.221  34.338  52.983  0.00  0.00     0.029 C 
ENDBRANCH   5   6
ENDBRANCH   3   5
ENDBRANCH   1   2
BRANCH   1   8
ATOM      8  N   UNL d   1      53.784  32.489  53.476  0.00  0.00    -0.163 NA
ATOM      9  C   UNL d   1      53.934  32.796  54.224  0.00  0.00     0.394 C 
ATOM     10  O   UNL d   1      53.345  32.748  54.788  0.00  0.00    -0.236 OA
BRANCH   9  11
ATOM     11  O   UNL d   1      54.673  33.150  54.405  0.00  0.00    -0.256 OA
BRANCH  11  12
ATOM     12  C   UNL d   1      54.722  33.412  55.021  0.00  0.00     0.128 C 
ATOM     13  C   UNL d   1      55.401  33.898  55.174  0.00  0.00     0.029 C 
ENDBRANCH  11  12
ENDBRANCH   9  11
ENDBRANCH   1   8
BRANCH   1  14
ATOM     14  C   UNL d   1      53.033  31.409  52.874  0.00  0.00     0.231 C 
ATOM     15  O   UNL d   1      53.042  31.408  52.048  0.00  0.00    -0.283 OA
BRANCH  14  16
ATOM     16  C   UNL d   1      53.014  30.672  53.289  0.00  0.00     0.042 A 
ATOM     17  C   UNL d   1      52.292  30.316  53.452  0.00  0.00     0.003 A 
ATOM     18  C   UNL d   1      52.257  29.601  53.853  0.00  0.00     0.000 A 
ATOM     19  C   UNL d   1      52.972  29.227  54.101  0.00  0.00     0.000 A 
ATOM     20  C   UNL d   1      53.681  29.589  53.933  0.00  0.00     0.000 A 
ATOM     21  C   UNL d   1      53.709  30.308  53.529  0.00  0.00     0.003 A 
ENDBRANCH  14  16
ENDBRANCH   1  14
TORSDOF 8
ENDMDL
MODEL 6
REMARK VINA RESULT:      -7.2      0.906      3.582
REMARK  8 active torsions:
REMARK  status: ('A' for Active; 'I' for Inactive)
REMARK    1  A    between atoms: N_2  and  C_1 
REMARK    2  A    between atoms: N_3  and  C_1 
REMARK    3  A    between atoms: C_6  and  C_1 
REMARK       I    between atoms: C_4  and  N_2 
REMARK       I    between atoms: C_5  and  N_3 
REMARK    4  A    between atoms: O_11  and  C_4 
REMARK    5  A    between atoms: O_12  and  C_5 
REMARK    6  A    between atoms: C_10  and  C_6 
REMARK    7  A    between atoms: C_15  and  O_11 
REMARK    8  A    between atoms: C_16  and  O_12 
ROOT
ATOM      1  C   UNL d   1      53.045  32.116  53.247  0.00  0.00     0.211 C 
ENDROOT
BRANCH   1   2
ATOM      2  N   UNL d   1      53.769  32.451  53.414  0.00  0.00    -0.163 NA
ATOM      3  C   UNL d   1      53.918  32.758  54.160  0.00  0.00     0.394 C 
ATOM      4  O   UNL d   1      53.348  32.736  54.758  0.00  0.00    -0.236 OA
BRANCH   3   5
ATOM      5  O   UNL d   1      54.651  33.098  54.329  0.00  0.00    -0.256 OA
BRANCH   5   6
ATOM      6  C   UNL d   1      54.788  33.449  55.074  0.00  0.00     0.128 C 
ATOM      7  C   UNL d   1      55.437  33.944  55.189  0.00  0.00     0.029 C 
ENDBRANCH   5   6
ENDBRANCH   3   5
ENDBRANCH   1   2
BRANCH   1   8
ATOM      8  N   UNL d   1      52.329  32.498  53.474  0.00  0.00    -0.163 NA
ATOM      9  C   UNL d   1      51.973  33.059  52.988  0.00  0.00     0.394 C 
ATOM     10  O   UNL d   1      52.333  33.239  52.277  0.00  0.00    -0.236 OA
BRANCH   9  11
ATOM     11  O   UNL d   1      51.261  33.438  53.216  0.00  0.00    -0.256 OA
BRANCH  11  12
ATOM     12  C   UNL d   1      51.041  33.912  52.796  0.00  0.00     0.128 C 
ATOM     13  C   UNL d   1      50.286  34.258  52.974  0.00  0.00     0.029 C 
ENDBRANCH  11  12
ENDBRANCH   9  11
ENDBRANCH   1   8
BRANCH   1  14
ATOM     14  C   UNL d   1      53.004  31.384  52.846  0.00  0.00     0.231 C 
ATOM     15  O   UNL d   1      52.965  31.365  52.021  0.00  0.00    -0.283 OA
BRANCH  14  16
ATOM     16  C   UNL d   1      53.004  30.656  53.276  0.00  0.00     0.042 A 
ATOM     17  C   UNL d   1      52.291  30.298  53.470  0.00  0.00     0.003 A 
ATOM     18  C   UNL d   1      52.273  29.591  53.887  0.00  0.00     0.000 A 
ATOM     19  C   UNL d   1      52.998  29.227  54.119  0.00  0.00     0.000 A 
ATOM     20  C   UNL d   1      53.699  29.590  53.921  0.00  0.00     0.000 A 
ATOM     21  C   UNL d   1      53.709  30.301  53.502  0.00  0.00     0.003 A 
ENDBRANCH  14  16
ENDBRANCH   1  14
TORSDOF 8
ENDMDL
