MODEL 1
REMARK VINA RESULT:      -7.6      0.000      0.000
REMARK  4 active torsions:
REMARK  status: ('A' for Active; 'I' for Inactive)
REMARK    1  A    between atoms: N_10  and  C_5 
REMARK    2  A    between atoms: C_12  and  N_6 
REMARK    3  A    between atoms: C_19  and  N_11 
REMARK    4  A    between atoms: C_20  and  C_12 
ROOT
ATOM      1  C   UNL d   1      52.532  31.798  53.088  0.00  0.00     0.191 A 
ATOM      2  C   UNL d   1      53.016  32.473  53.120  0.00  0.00     0.173 A 
ATOM      3  N   UNL d   1      51.756  32.066  52.987  0.00  0.00    -0.042 NA
ATOM      4  N   UNL d   1      52.878  31.022  53.157  0.00  0.00    -0.240 N 
ATOM      5  C   UNL d   1      51.758  32.921  52.956  0.00  0.00     0.722 A 
ATOM      6  N   UNL d   1      52.545  33.126  53.041  0.00  0.00    -0.133 N 
ATOM      7  N   UNL d   1      54.139  31.609  53.284  0.00  0.00    -0.223 N 
ATOM      8  C   UNL d   1      53.664  30.914  53.253  0.00  0.00     0.343 A 
ATOM      9  C   UNL d   1      53.822  32.361  53.219  0.00  0.00     0.288 A 
ATOM     10  O   UNL d   1      54.003  30.153  53.321  0.00  0.00    -0.245 OA
ATOM     11  O   UNL d   1      54.319  33.024  53.253  0.00  0.00    -0.265 OA
ATOM     12  C   UNL d   1      52.396  30.367  53.124  0.00  0.00     0.105 C 
ATOM     13  C   UNL d   1      54.976  31.549  53.385  0.00  0.00     0.107 C 
ENDROOT
BRANCH   5  14
ATOM     14  N   UNL d   1      51.117  33.464  52.860  0.00  0.00    -0.136 N 
ATOM     15  C   UNL d   1      50.530  33.509  53.457  0.00  0.00     0.117 A 
ATOM     16  C   UNL d   1      49.893  34.047  53.363  0.00  0.00     0.100 A 
ATOM     17  N   UNL d   1      49.845  34.535  52.678  0.00  0.00    -0.301 N 
ATOM     18  C   UNL d   1      50.441  34.477  52.090  0.00  0.00     0.100 A 
ATOM     19  C   UNL d   1      51.079  33.944  52.176  0.00  0.00     0.117 A 
BRANCH  17  20
ATOM     20  C   UNL d   1      49.187  35.041  52.656  0.00  0.00     0.064 A 
ATOM     21  C   UNL d   1      49.011  35.524  53.308  0.00  0.00     0.018 A 
ATOM     22  C   UNL d   1      48.355  36.024  53.277  0.00  0.00     0.002 A 
ATOM     23  C   UNL d   1      47.875  36.044  52.600  0.00  0.00     0.000 A 
ATOM     24  C   UNL d   1      48.053  35.560  51.945  0.00  0.00     0.002 A 
ATOM     25  C   UNL d   1      48.708  35.059  51.974  0.00  0.00     0.018 A 
ENDBRANCH  17  20
ENDBRANCH   5  14
BRANCH   6  26
ATOM     26  C   UNL d   1      53.004  33.789  53.070  0.00  0.00     0.098 C 
BRANCH  26  27
ATOM     27  C   UNL d   1      53.005  34.244  53.731  0.00  0.00     0.018 A 
ATOM     28  C   UNL d   1      53.047  35.027  53.665  0.00  0.00     0.002 A 
ATOM     29  C   UNL d   1      53.048  35.486  54.322  0.00  0.00     0.000 A 
ATOM     30  C   UNL d   1      53.083  36.284  54.463  0.00  0.00     0.000 C 
ATOM     31  C   UNL d   1      53.007  35.152  55.052  0.00  0.00     0.000 A 
ATOM     32  C   UNL d   1      52.965  34.342  55.109  0.00  0.00     0.000 A 
ATOM     33  C   UNL d   1      52.964  33.894  54.458  0.00  0.00     0.002 A 
ENDBRANCH  26  27
ENDBRANCH   6  26
TORSDOF 4
ENDMDL
MODEL 2
REMARK VINA RESULT:      -5.2      1.219      2.838
REMARK  4 active torsions:
REMARK  status: ('A' for Active; 'I' for Inactive)
REMARK    1  A    between atoms: N_10  and  C_5 
REMARK    2  A    between atoms: C_12  and  N_6 
REMARK    3  A    between atoms: C_19  and  N_11 
REMARK    4  A    between atoms: C_20  and  C_12 
ROOT
ATOM      1  C   UNL d   1      53.301  34.288  54.351  0.00  0.00     0.191 A 
ATOM      2  C   UNL d   1      53.459  33.642  53.851  0.00  0.00     0.173 A 
ATOM      3  N   UNL d   1      52.582  34.611  54.102  0.00  0.00    -0.042 NA
ATOM      4  N   UNL d   1      53.849  34.490  54.972  0.00  0.00    -0.240 N 
ATOM      5  C   UNL d   1      52.288  34.159  53.437  0.00  0.00     0.722 A 
ATOM      6  N   UNL d   1      52.853  33.581  53.319  0.00  0.00    -0.133 N 
ATOM      7  N   UNL d   1      54.665  33.425  54.581  0.00  0.00    -0.223 N 
ATOM      8  C   UNL d   1      54.521  34.076  55.097  0.00  0.00     0.343 A 
ATOM      9  C   UNL d   1      54.149  33.219  53.980  0.00  0.00     0.288 A 
ATOM     10  O   UNL d   1      55.058  34.274  55.706  0.00  0.00    -0.245 OA
ATOM     11  O   UNL d   1      54.322  32.572  53.491  0.00  0.00    -0.265 OA
ATOM     12  C   UNL d   1      53.686  35.123  55.456  0.00  0.00     0.105 C 
ATOM     13  C   UNL d   1      55.362  32.956  54.672  0.00  0.00     0.107 C 
ENDROOT
BRANCH   5  14
ATOM     14  N   UNL d   1      51.583  34.258  52.982  0.00  0.00    -0.136 N 
ATOM     15  C   UNL d   1      50.842  34.245  53.372  0.00  0.00     0.117 A 
ATOM     16  C   UNL d   1      50.140  34.343  52.922  0.00  0.00     0.100 A 
ATOM     17  N   UNL d   1      50.182  34.452  52.087  0.00  0.00    -0.301 N 
ATOM     18  C   UNL d   1      50.933  34.461  51.711  0.00  0.00     0.100 A 
ATOM     19  C   UNL d   1      51.636  34.365  52.153  0.00  0.00     0.117 A 
BRANCH  17  20
ATOM     20  C   UNL d   1      49.448  34.541  51.710  0.00  0.00     0.064 A 
ATOM     21  C   UNL d   1      49.261  34.078  51.046  0.00  0.00     0.018 A 
ATOM     22  C   UNL d   1      48.530  34.174  50.678  0.00  0.00     0.002 A 
ATOM     23  C   UNL d   1      47.983  34.729  50.968  0.00  0.00     0.000 A 
ATOM     24  C   UNL d   1      48.171  35.194  51.634  0.00  0.00     0.002 A 
ATOM     25  C   UNL d   1      48.903  35.099  52.003  0.00  0.00     0.018 A 
ENDBRANCH  17  20
ENDBRANCH   5  14
BRANCH   6  26
ATOM     26  C   UNL d   1      52.995  32.956  52.827  0.00  0.00     0.098 C 
BRANCH  26  27
ATOM     27  C   UNL d   1      52.658  32.244  52.980  0.00  0.00     0.018 A 
ATOM     28  C   UNL d   1      52.944  31.597  52.636  0.00  0.00     0.002 A 
ATOM     29  C   UNL d   1      52.612  30.883  52.785  0.00  0.00     0.000 A 
ATOM     30  C   UNL d   1      52.753  30.123  52.539  0.00  0.00     0.000 C 
ATOM     31  C   UNL d   1      51.986  30.822  53.286  0.00  0.00     0.000 A 
ATOM     32  C   UNL d   1      51.699  31.497  53.637  0.00  0.00     0.000 A 
ATOM     33  C   UNL d   1      52.030  32.198  53.486  0.00  0.00     0.002 A 
ENDBRANCH  26  27
ENDBRANCH   6  26
TORSDOF 4
ENDMDL
