MODEL 1
REMARK VINA RESULT:      28.8      0.000      0.000
REMARK  5 active torsions:
REMARK  status: ('A' for Active; 'I' for Inactive)
REMARK    1  A    between atoms: C_6  and  C_1 
REMARK    2  A    between atoms: C_7  and  C_2 
REMARK    3  A    between atoms: O_12  and  C_6 
REMARK    4  A    between atoms: O_14  and  C_11 
REMARK    5  A    between atoms: C_17  and  O_12 
ROOT
ATOM      1  C   UNL d   1      46.250 -18.736  42.359  0.00  0.00     0.088 A 
ATOM      2  C   UNL d   1      46.129 -19.510  42.616  0.00  0.00     0.105 A 
ATOM      3  C   UNL d   1      46.330 -18.733  41.541  0.00  0.00     0.032 A 
ATOM      4  O   UNL d   1      46.135 -19.993  41.938  0.00  0.00    -0.307 OA
ATOM      5  C   UNL d   1      46.259 -19.511  41.281  0.00  0.00     0.100 A 
ATOM      6  C   UNL d   1      46.457 -18.130  41.005  0.00  0.00     0.026 A 
ATOM      7  C   UNL d   1      46.318 -19.680  40.472  0.00  0.00     0.027 A 
ATOM      8  C   UNL d   1      46.516 -18.300  40.196  0.00  0.00     0.094 A 
ATOM      9  C   UNL d   1      46.445 -19.078  39.936  0.00  0.00     0.026 A 
ENDROOT
BRANCH   2  10
ATOM     10  C   UNL d   1      46.020 -19.773  43.387  0.00  0.00     0.023 A 
ATOM     11  C   UNL d   1      45.274 -20.062  43.637  0.00  0.00     0.002 A 
ATOM     12  C   UNL d   1      45.178 -20.326  44.424  0.00  0.00     0.000 A 
ATOM     13  C   UNL d   1      45.829 -20.299  44.954  0.00  0.00     0.000 A 
ATOM     14  C   UNL d   1      46.551 -20.015  44.697  0.00  0.00     0.000 A 
ATOM     15  C   UNL d   1      46.645 -19.755  43.922  0.00  0.00     0.002 A 
ENDBRANCH   2  10
BRANCH   1  16
ATOM     16  C   UNL d   1      46.224 -18.359  43.098  0.00  0.00     0.302 C 
ATOM     17  O   UNL d   1      46.570 -18.712  43.753  0.00  0.00    -0.259 OA
BRANCH  16  18
ATOM     18  O   UNL d   1      45.849 -17.625  43.186  0.00  0.00    -0.271 OA
BRANCH  18  19
ATOM     19  C   UNL d   1      46.049 -17.115  43.814  0.00  0.00     0.126 C 
ATOM     20  C   UNL d   1      45.955 -16.292  43.727  0.00  0.00     0.029 C 
ENDBRANCH  18  19
ENDBRANCH  16  18
ENDBRANCH   1  16
BRANCH   8  21
ATOM     21  O   UNL d   1      46.645 -17.682  39.656  0.00  0.00    -0.328 OA
ATOM     22  C   UNL d   1      46.022 -17.428  39.149  0.00  0.00     0.181 C 
ENDBRANCH   8  21
TORSDOF 5
ENDMDL
MODEL 2
REMARK VINA RESULT:      30.8      4.616      7.327
REMARK  5 active torsions:
REMARK  status: ('A' for Active; 'I' for Inactive)
REMARK    1  A    between atoms: C_6  and  C_1 
REMARK    2  A    between atoms: C_7  and  C_2 
REMARK    3  A    between atoms: O_12  and  C_6 
REMARK    4  A    between atoms: O_14  and  C_11 
REMARK    5  A    between atoms: C_17  and  O_12 
ROOT
ATOM      1  C   UNL d   1      43.928 -15.904  36.955  0.00  0.00     0.088 A 
ATOM      2  C   UNL d   1      44.269 -15.159  36.856  0.00  0.00     0.105 A 
ATOM      3  C   UNL d   1      43.129 -15.862  36.769  0.00  0.00     0.032 A 
ATOM      4  O   UNL d   1      43.662 -14.649  36.602  0.00  0.00    -0.307 OA
ATOM      5  C   UNL d   1      42.964 -15.085  36.551  0.00  0.00     0.100 A 
ATOM      6  C   UNL d   1      42.536 -16.423  36.770  0.00  0.00     0.026 A 
ATOM      7  C   UNL d   1      42.193 -14.874  36.331  0.00  0.00     0.027 A 
ATOM      8  C   UNL d   1      41.765 -16.212  36.550  0.00  0.00     0.094 A 
ATOM      9  C   UNL d   1      41.600 -15.435  36.332  0.00  0.00     0.026 A 
ENDROOT
BRANCH   2  10
ATOM     10  C   UNL d   1      45.052 -14.944  36.979  0.00  0.00     0.023 A 
ATOM     11  C   UNL d   1      45.256 -14.420  37.600  0.00  0.00     0.002 A 
ATOM     12  C   UNL d   1      46.057 -14.209  37.713  0.00  0.00     0.000 A 
ATOM     13  C   UNL d   1      46.647 -14.525  37.205  0.00  0.00     0.000 A 
ATOM     14  C   UNL d   1      46.432 -15.036  36.603  0.00  0.00     0.000 A 
ATOM     15  C   UNL d   1      45.645 -15.243  36.491  0.00  0.00     0.002 A 
ENDBRANCH   2  10
BRANCH   1  16
ATOM     16  C   UNL d   1      44.607 -16.314  37.201  0.00  0.00     0.302 C 
ATOM     17  O   UNL d   1      45.200 -16.489  36.662  0.00  0.00    -0.259 OA
BRANCH  16  18
ATOM     18  O   UNL d   1      44.695 -16.550  37.990  0.00  0.00    -0.271 OA
BRANCH  18  19
ATOM     19  C   UNL d   1      45.054 -17.278  38.182  0.00  0.00     0.126 C 
ATOM     20  C   UNL d   1      45.463 -17.363  38.902  0.00  0.00     0.029 C 
ENDBRANCH  18  19
ENDBRANCH  16  18
ENDBRANCH   1  16
BRANCH   8  21
ATOM     21  O   UNL d   1      41.166 -16.788  36.553  0.00  0.00    -0.328 OA
ATOM     22  C   UNL d   1      40.378 -16.576  36.763  0.00  0.00     0.181 C 
ENDBRANCH   8  21
TORSDOF 5
ENDMDL
