MODEL 1
REMARK VINA RESULT:      32.5      0.000      0.000
REMARK  4 active torsions:
REMARK  status: ('A' for Active; 'I' for Inactive)
REMARK    1  A    between atoms: C_8  and  C_1 
REMARK    2  A    between atoms: C_6  and  C_2 
REMARK    3  A    between atoms: O_17  and  C_8 
REMARK    4  A    between atoms: C_20  and  O_17 
ROOT
ATOM      1  C   UNL d   1     -58.514 -98.758 -44.196  0.00  0.00     0.099 A 
ATOM      2  C   UNL d   1     -57.817 -98.760 -43.780  0.00  0.00     0.093 A 
ATOM      3  C   UNL d   1     -59.235 -98.757 -43.796  0.00  0.00     0.093 A 
ATOM      4  C   UNL d   1     -58.528 -98.759 -42.561  0.00  0.00     0.369 A 
ATOM      5  N   UNL d   1     -59.239 -98.757 -42.980  0.00  0.00    -0.191 NA
ATOM      6  N   UNL d   1     -57.827 -98.760 -42.962  0.00  0.00    -0.191 NA
ATOM      7  O   UNL d   1     -58.519 -98.759 -41.725  0.00  0.00    -0.242 OA
ATOM      8  C   UNL d   1     -59.960 -98.756 -44.218  0.00  0.00     0.021 C 
ENDROOT
BRANCH   2   9
ATOM      9  C   UNL d   1     -56.894 -98.761 -44.245  0.00  0.00     0.029 A 
ATOM     10  C   UNL d   1     -56.260 -98.768 -43.734  0.00  0.00     0.060 A 
ATOM     11  C   UNL d   1     -55.500 -98.769 -44.123  0.00  0.00     0.023 A 
ATOM     12 CL   UNL d   1     -56.297 -98.773 -42.954  0.00  0.00    -0.082 Cl
ATOM     13  C   UNL d   1     -55.471 -98.763 -44.961  0.00  0.00     0.059 A 
ATOM     14  C   UNL d   1     -56.147 -98.757 -45.400  0.00  0.00     0.011 A 
ATOM     15 CL   UNL d   1     -54.734 -98.764 -45.353  0.00  0.00    -0.082 Cl
ATOM     16  C   UNL d   1     -56.894 -98.756 -45.034  0.00  0.00     0.003 A 
ENDBRANCH   2   9
BRANCH   1  17
ATOM     17  C   UNL d   1     -58.485 -98.759 -45.020  0.00  0.00     0.303 C 
ATOM     18  O   UNL d   1     -57.778 -98.762 -45.428  0.00  0.00    -0.259 OA
BRANCH  17  19
ATOM     19  O   UNL d   1     -59.207 -98.755 -45.473  0.00  0.00    -0.271 OA
BRANCH  19  20
ATOM     20  C   UNL d   1     -59.154 -98.817 -46.317  0.00  0.00     0.126 C 
ATOM     21  C   UNL d   1     -59.836 -98.929 -46.766  0.00  0.00     0.029 C 
ENDBRANCH  19  20
ENDBRANCH  17  19
ENDBRANCH   1  17
TORSDOF 4
ENDMDL
