MODEL 1
REMARK VINA RESULT:      12.5      0.000      0.000
REMARK  3 active torsions:
REMARK  status: ('A' for Active; 'I' for Inactive)
REMARK    1  A    between atoms: C_6  and  C_3 
REMARK    2  A    between atoms: C_9  and  C_6 
REMARK    3  A    between atoms: O_15  and  C_10 
ROOT
ATOM      1  C   UNL d   1     -55.097-102.749 -37.849  0.00  0.00     0.001 A 
ATOM      2  C   UNL d   1     -55.960-102.756 -39.264  0.00  0.00     0.094 A 
ATOM      3  C   UNL d   1     -55.912-102.627 -37.825  0.00  0.00     0.002 A 
ATOM      4  C   UNL d   1     -54.711-102.873 -38.567  0.00  0.00     0.002 A 
ATOM      5  C   UNL d   1     -56.346-102.632 -38.545  0.00  0.00     0.024 A 
ATOM      6  C   UNL d   1     -55.122-102.879 -39.258  0.00  0.00     0.024 A 
ENDROOT
BRANCH   1   7
ATOM      7  C   UNL d   1     -54.712-102.736 -37.118  0.00  0.00     0.011 C 
BRANCH   7   8
ATOM      8  C   UNL d   1     -54.754-102.097 -36.579  0.00  0.00     0.092 A 
ATOM      9  C   UNL d   1     -54.837-102.119 -35.786  0.00  0.00     0.288 A 
ATOM     10  N   UNL d   1     -54.849-101.371 -35.504  0.00  0.00    -0.163 NA
ATOM     11  O   UNL d   1     -54.901-102.844 -35.323  0.00  0.00    -0.265 OA
ATOM     12  C   UNL d   1     -54.768-100.874 -36.178  0.00  0.00     0.313 A 
ATOM     13  S   UNL d   1     -54.712-101.358 -36.819  0.00  0.00    -0.021 SA
ATOM     14  O   UNL d   1     -54.751-100.030 -36.159  0.00  0.00    -0.258 OA
ENDBRANCH   7   8
ENDBRANCH   1   7
BRANCH   2  15
ATOM     15  O   UNL d   1     -56.398-102.759 -39.965  0.00  0.00    -0.328 OA
ATOM     16  C   UNL d   1     -56.018-102.795 -40.677  0.00  0.00     0.181 C 
ENDBRANCH   2  15
TORSDOF 3
ENDMDL
