MODEL 1
REMARK VINA RESULT:      -6.2      0.000      0.000
REMARK  5 active torsions:
REMARK  status: ('A' for Active; 'I' for Inactive)
REMARK    1  A    between atoms: N_2  and  C_1 
REMARK    2  A    between atoms: N_3  and  C_1 
REMARK       I    between atoms: C_4  and  N_2 
REMARK    3  A    between atoms: C_7  and  N_3 
REMARK    4  A    between atoms: C_8  and  C_4 
REMARK    5  A    between atoms: C_9  and  C_8 
ROOT
ATOM      1  C   UNL d   1     -48.654  13.834  22.680  0.00  0.00     0.209 C 
ATOM      2  S   UNL d   1     -48.564  13.501  21.913  0.00  0.00    -0.038 SA
ENDROOT
BRANCH   1   3
ATOM      3  N   UNL d   1     -48.050  14.232  23.003  0.00  0.00    -0.180 NA
ATOM      4  C   UNL d   1     -47.289  13.971  22.931  0.00  0.00     0.281 C 
ATOM      5  O   UNL d   1     -46.656  14.394  23.274  0.00  0.00    -0.265 OA
BRANCH   4   6
ATOM      6  C   UNL d   1     -47.125  13.285  22.520  0.00  0.00     0.063 C 
BRANCH   6   7
ATOM      7  C   UNL d   1     -46.363  12.969  22.523  0.00  0.00     0.005 A 
ATOM      8  C   UNL d   1     -46.199  12.324  23.003  0.00  0.00     0.000 A 
ATOM      9  C   UNL d   1     -45.431  11.992  23.018  0.00  0.00     0.000 A 
ATOM     10  C   UNL d   1     -44.844  12.326  22.542  0.00  0.00     0.000 A 
ATOM     11  C   UNL d   1     -45.001  12.973  22.059  0.00  0.00     0.000 A 
ATOM     12  C   UNL d   1     -45.772  13.311  22.040  0.00  0.00     0.000 A 
ENDBRANCH   6   7
ENDBRANCH   4   6
ENDBRANCH   1   3
BRANCH   1  13
ATOM     13  N   UNL d   1     -49.355  13.742  23.072  0.00  0.00    -0.281 N 
ATOM     14  C   UNL d   1     -49.572  13.023  23.542  0.00  0.00     0.101 C 
BRANCH  13  15
ATOM     15  C   UNL d   1     -49.913  14.316  23.058  0.00  0.00     0.066 A 
ATOM     16  C   UNL d   1     -50.445  14.396  22.432  0.00  0.00     0.018 A 
ATOM     17  C   UNL d   1     -51.014  14.989  22.428  0.00  0.00     0.002 A 
ATOM     18  C   UNL d   1     -51.064  15.533  23.071  0.00  0.00     0.000 A 
ATOM     19  C   UNL d   1     -50.532  15.453  23.697  0.00  0.00     0.002 A 
ATOM     20  C   UNL d   1     -49.958  14.843  23.686  0.00  0.00     0.018 A 
ENDBRANCH  13  15
ENDBRANCH   1  13
TORSDOF 5
ENDMDL
MODEL 2
REMARK VINA RESULT:      -5.9      1.380      4.621
REMARK  5 active torsions:
REMARK  status: ('A' for Active; 'I' for Inactive)
REMARK    1  A    between atoms: N_2  and  C_1 
REMARK    2  A    between atoms: N_3  and  C_1 
REMARK       I    between atoms: C_4  and  N_2 
REMARK    3  A    between atoms: C_7  and  N_3 
REMARK    4  A    between atoms: C_8  and  C_4 
REMARK    5  A    between atoms: C_9  and  C_8 
ROOT
ATOM      1  C   UNL d   1     -47.211  12.882  22.663  0.00  0.00     0.209 C 
ATOM      2  S   UNL d   1     -47.612  12.527  23.311  0.00  0.00    -0.038 SA
ENDROOT
BRANCH   1   3
ATOM      3  N   UNL d   1     -47.520  12.825  21.937  0.00  0.00    -0.180 NA
ATOM      4  C   UNL d   1     -48.302  12.979  21.800  0.00  0.00     0.281 C 
ATOM      5  O   UNL d   1     -48.624  12.917  21.032  0.00  0.00    -0.265 OA
BRANCH   4   6
ATOM      6  C   UNL d   1     -48.792  13.199  22.414  0.00  0.00     0.063 C 
BRANCH   6   7
ATOM      7  C   UNL d   1     -49.552  13.483  22.260  0.00  0.00     0.005 A 
ATOM      8  C   UNL d   1     -49.679  14.293  22.231  0.00  0.00     0.000 A 
ATOM      9  C   UNL d   1     -50.443  14.596  22.075  0.00  0.00     0.000 A 
ATOM     10  C   UNL d   1     -51.064  14.065  21.952  0.00  0.00     0.000 A 
ATOM     11  C   UNL d   1     -50.944  13.252  21.979  0.00  0.00     0.000 A 
ATOM     12  C   UNL d   1     -50.177  12.941  22.135  0.00  0.00     0.000 A 
ENDBRANCH   6   7
ENDBRANCH   4   6
ENDBRANCH   1   3
BRANCH   1  13
ATOM     13  N   UNL d   1     -46.517  13.275  22.794  0.00  0.00    -0.281 N 
ATOM     14  C   UNL d   1     -46.462  14.085  23.149  0.00  0.00     0.101 C 
BRANCH  13  15
ATOM     15  C   UNL d   1     -45.813  12.942  22.605  0.00  0.00     0.066 A 
ATOM     16  C   UNL d   1     -45.549  12.243  22.955  0.00  0.00     0.018 A 
ATOM     17  C   UNL d   1     -44.825  11.911  22.753  0.00  0.00     0.002 A 
ATOM     18  C   UNL d   1     -44.334  12.283  22.177  0.00  0.00     0.000 A 
ATOM     19  C   UNL d   1     -44.597  12.982  21.826  0.00  0.00     0.002 A 
ATOM     20  C   UNL d   1     -45.338  13.309  22.043  0.00  0.00     0.018 A 
ENDBRANCH  13  15
ENDBRANCH   1  13
TORSDOF 5
ENDMDL
MODEL 3
REMARK VINA RESULT:      -5.8      1.119      1.428
REMARK  5 active torsions:
REMARK  status: ('A' for Active; 'I' for Inactive)
REMARK    1  A    between atoms: N_2  and  C_1 
REMARK    2  A    between atoms: N_3  and  C_1 
REMARK       I    between atoms: C_4  and  N_2 
REMARK    3  A    between atoms: C_7  and  N_3 
REMARK    4  A    between atoms: C_8  and  C_4 
REMARK    5  A    between atoms: C_9  and  C_8 
ROOT
ATOM      1  C   UNL d   1     -49.356  12.483  22.673  0.00  0.00     0.209 C 
ATOM      2  S   UNL d   1     -49.119  12.578  21.872  0.00  0.00    -0.038 SA
ENDROOT
BRANCH   1   3
ATOM      3  N   UNL d   1     -48.821  12.253  23.210  0.00  0.00    -0.180 NA
ATOM      4  C   UNL d   1     -48.038  12.434  23.128  0.00  0.00     0.281 C 
ATOM      5  O   UNL d   1     -47.479  12.189  23.698  0.00  0.00    -0.265 OA
BRANCH   4   6
ATOM      6  C   UNL d   1     -47.780  12.862  22.483  0.00  0.00     0.063 C 
BRANCH   6   7
ATOM      7  C   UNL d   1     -47.034  13.215  22.489  0.00  0.00     0.005 A 
ATOM      8  C   UNL d   1     -46.950  13.970  22.798  0.00  0.00     0.000 A 
ATOM      9  C   UNL d   1     -46.201  14.342  22.811  0.00  0.00     0.000 A 
ATOM     10  C   UNL d   1     -45.549  13.934  22.509  0.00  0.00     0.000 A 
ATOM     11  C   UNL d   1     -45.625  13.177  22.198  0.00  0.00     0.000 A 
ATOM     12  C   UNL d   1     -46.377  12.798  22.181  0.00  0.00     0.000 A 
ENDBRANCH   6   7
ENDBRANCH   4   6
ENDBRANCH   1   3
BRANCH   1  13
ATOM     13  N   UNL d   1     -50.124  12.627  22.879  0.00  0.00    -0.281 N 
ATOM     14  C   UNL d   1     -50.688  12.006  23.163  0.00  0.00     0.101 C 
BRANCH  13  15
ATOM     15  C   UNL d   1     -50.430  13.366  22.836  0.00  0.00     0.066 A 
ATOM     16  C   UNL d   1     -50.666  13.703  22.120  0.00  0.00     0.018 A 
ATOM     17  C   UNL d   1     -50.978  14.462  22.089  0.00  0.00     0.002 A 
ATOM     18  C   UNL d   1     -51.064  14.916  22.795  0.00  0.00     0.000 A 
ATOM     19  C   UNL d   1     -50.828  14.579  23.510  0.00  0.00     0.002 A 
ATOM     20  C   UNL d   1     -50.511  13.804  23.527  0.00  0.00     0.018 A 
ENDBRANCH  13  15
ENDBRANCH   1  13
TORSDOF 5
ENDMDL
MODEL 4
REMARK VINA RESULT:      -5.4      8.884      9.826
REMARK  5 active torsions:
REMARK  status: ('A' for Active; 'I' for Inactive)
REMARK    1  A    between atoms: N_2  and  C_1 
REMARK    2  A    between atoms: N_3  and  C_1 
REMARK       I    between atoms: C_4  and  N_2 
REMARK    3  A    between atoms: C_7  and  N_3 
REMARK    4  A    between atoms: C_8  and  C_4 
REMARK    5  A    between atoms: C_9  and  C_8 
ROOT
ATOM      1  C   UNL d   1     -39.711  14.906  20.138  0.00  0.00     0.209 C 
ATOM      2  S   UNL d   1     -40.187  15.584  20.286  0.00  0.00    -0.038 SA
ENDROOT
BRANCH   1   3
ATOM      3  N   UNL d   1     -39.970  14.354  19.634  0.00  0.00    -0.180 NA
ATOM      4  C   UNL d   1     -40.258  14.552  18.905  0.00  0.00     0.281 C 
ATOM      5  O   UNL d   1     -40.530  13.965  18.377  0.00  0.00    -0.265 OA
BRANCH   4   6
ATOM      6  C   UNL d   1     -40.289  15.334  18.673  0.00  0.00     0.063 C 
BRANCH   6   7
ATOM      7  C   UNL d   1     -40.465  15.529  17.891  0.00  0.00     0.005 A 
ATOM      8  C   UNL d   1     -41.240  15.703  17.685  0.00  0.00     0.000 A 
ATOM      9  C   UNL d   1     -41.435  15.902  16.897  0.00  0.00     0.000 A 
ATOM     10  C   UNL d   1     -40.833  15.921  16.331  0.00  0.00     0.000 A 
ATOM     11  C   UNL d   1     -40.054  15.749  16.529  0.00  0.00     0.000 A 
ATOM     12  C   UNL d   1     -39.852  15.547  17.322  0.00  0.00     0.000 A 
ENDBRANCH   6   7
ENDBRANCH   4   6
ENDBRANCH   1   3
BRANCH   1  13
ATOM     13  N   UNL d   1     -39.000  14.833  20.514  0.00  0.00    -0.281 N 
ATOM     14  C   UNL d   1     -38.271  15.285  20.293  0.00  0.00     0.101 C 
BRANCH  13  15
ATOM     15  C   UNL d   1     -38.910  14.328  21.130  0.00  0.00     0.066 A 
ATOM     16  C   UNL d   1     -39.384  14.369  21.804  0.00  0.00     0.018 A 
ATOM     17  C   UNL d   1     -39.283  13.846  22.430  0.00  0.00     0.002 A 
ATOM     18  C   UNL d   1     -38.684  13.253  22.394  0.00  0.00     0.000 A 
ATOM     19  C   UNL d   1     -38.209  13.212  21.720  0.00  0.00     0.002 A 
ATOM     20  C   UNL d   1     -38.325  13.752  21.090  0.00  0.00     0.018 A 
ENDBRANCH  13  15
ENDBRANCH   1  13
TORSDOF 5
ENDMDL
MODEL 5
REMARK VINA RESULT:      -5.3      9.137      9.625
REMARK  5 active torsions:
REMARK  status: ('A' for Active; 'I' for Inactive)
REMARK    1  A    between atoms: N_2  and  C_1 
REMARK    2  A    between atoms: N_3  and  C_1 
REMARK       I    between atoms: C_4  and  N_2 
REMARK    3  A    between atoms: C_7  and  N_3 
REMARK    4  A    between atoms: C_8  and  C_4 
REMARK    5  A    between atoms: C_9  and  C_8 
ROOT
ATOM      1  C   UNL d   1     -39.859  14.574  19.108  0.00  0.00     0.209 C 
ATOM      2  S   UNL d   1     -40.527  14.298  19.537  0.00  0.00    -0.038 SA
ENDROOT
BRANCH   1   3
ATOM      3  N   UNL d   1     -39.314  15.012  19.479  0.00  0.00    -0.180 NA
ATOM      4  C   UNL d   1     -39.038  14.809  20.210  0.00  0.00     0.281 C 
ATOM      5  O   UNL d   1     -38.463  15.275  20.597  0.00  0.00    -0.265 OA
BRANCH   4   6
ATOM      6  C   UNL d   1     -39.318  14.140  20.585  0.00  0.00     0.063 C 
BRANCH   6   7
ATOM      7  C   UNL d   1     -38.990  13.897  21.302  0.00  0.00     0.005 A 
ATOM      8  C   UNL d   1     -39.288  14.203  22.003  0.00  0.00     0.000 A 
ATOM      9  C   UNL d   1     -38.967  13.967  22.738  0.00  0.00     0.000 A 
ATOM     10  C   UNL d   1     -38.346  13.420  22.745  0.00  0.00     0.000 A 
ATOM     11  C   UNL d   1     -38.044  13.109  22.047  0.00  0.00     0.000 A 
ATOM     12  C   UNL d   1     -38.363  13.344  21.304  0.00  0.00     0.000 A 
ENDBRANCH   6   7
ENDBRANCH   4   6
ENDBRANCH   1   3
BRANCH   1  13
ATOM     13  N   UNL d   1     -39.786  14.386  18.325  0.00  0.00    -0.281 N 
ATOM     14  C   UNL d   1     -39.409  13.643  18.024  0.00  0.00     0.101 C 
BRANCH  13  15
ATOM     15  C   UNL d   1     -40.061  14.879  17.756  0.00  0.00     0.066 A 
ATOM     16  C   UNL d   1     -40.867  14.970  17.605  0.00  0.00     0.018 A 
ATOM     17  C   UNL d   1     -41.137  15.478  17.019  0.00  0.00     0.002 A 
ATOM     18  C   UNL d   1     -40.588  15.921  16.556  0.00  0.00     0.000 A 
ATOM     19  C   UNL d   1     -39.782  15.831  16.707  0.00  0.00     0.002 A 
ATOM     20  C   UNL d   1     -39.522  15.308  17.308  0.00  0.00     0.018 A 
ENDBRANCH  13  15
ENDBRANCH   1  13
TORSDOF 5
ENDMDL
MODEL 6
REMARK VINA RESULT:      -5.1      7.735      9.807
REMARK  5 active torsions:
REMARK  status: ('A' for Active; 'I' for Inactive)
REMARK    1  A    between atoms: N_2  and  C_1 
REMARK    2  A    between atoms: N_3  and  C_1 
REMARK       I    between atoms: C_4  and  N_2 
REMARK    3  A    between atoms: C_7  and  N_3 
REMARK    4  A    between atoms: C_8  and  C_4 
REMARK    5  A    between atoms: C_9  and  C_8 
ROOT
ATOM      1  C   UNL d   1     -39.741  15.175  18.915  0.00  0.00     0.209 C 
ATOM      2  S   UNL d   1     -39.411  15.842  18.522  0.00  0.00    -0.038 SA
ENDROOT
BRANCH   1   3
ATOM      3  N   UNL d   1     -40.096  14.611  18.487  0.00  0.00    -0.180 NA
ATOM      4  C   UNL d   1     -39.746  14.297  17.830  0.00  0.00     0.281 C 
ATOM      5  O   UNL d   1     -40.125  13.702  17.383  0.00  0.00    -0.265 OA
BRANCH   4   6
ATOM      6  C   UNL d   1     -39.010  14.559  17.591  0.00  0.00     0.063 C 
BRANCH   6   7
ATOM      7  C   UNL d   1     -38.653  14.240  16.920  0.00  0.00     0.005 A 
ATOM      8  C   UNL d   1     -38.498  14.728  16.278  0.00  0.00     0.000 A 
ATOM      9  C   UNL d   1     -38.136  14.420  15.590  0.00  0.00     0.000 A 
ATOM     10  C   UNL d   1     -37.940  13.617  15.568  0.00  0.00     0.000 A 
ATOM     11  C   UNL d   1     -38.092  13.123  16.207  0.00  0.00     0.000 A 
ATOM     12  C   UNL d   1     -38.456  13.427  16.903  0.00  0.00     0.000 A 
ENDBRANCH   6   7
ENDBRANCH   4   6
ENDBRANCH   1   3
BRANCH   1  13
ATOM     13  N   UNL d   1     -39.689  15.123  19.719  0.00  0.00    -0.281 N 
ATOM     14  C   UNL d   1     -38.930  15.011  20.163  0.00  0.00     0.101 C 
BRANCH  13  15
ATOM     15  C   UNL d   1     -40.343  15.171  20.179  0.00  0.00     0.066 A 
ATOM     16  C   UNL d   1     -40.736  15.885  20.310  0.00  0.00     0.018 A 
ATOM     17  C   UNL d   1     -41.406  15.922  20.783  0.00  0.00     0.002 A 
ATOM     18  C   UNL d   1     -41.709  15.223  21.147  0.00  0.00     0.000 A 
ATOM     19  C   UNL d   1     -41.316  14.509  21.016  0.00  0.00     0.002 A 
ATOM     20  C   UNL d   1     -40.633  14.487  20.531  0.00  0.00     0.018 A 
ENDBRANCH  13  15
ENDBRANCH   1  13
TORSDOF 5
ENDMDL
