MODEL 1
REMARK VINA RESULT:      -7.0      0.000      0.000
REMARK  2 active torsions:
REMARK  status: ('A' for Active; 'I' for Inactive)
REMARK    1  A    between atoms: N_10  and  C_3 
REMARK    2  A    between atoms: C_12  and  C_5 
ROOT
ATOM      1  N   UNL d   1     -39.827  14.970  19.438  0.00  0.00    -0.196 N 
ATOM      2  C   UNL d   1     -39.403  14.659  20.080  0.00  0.00     0.167 A 
ATOM      3  C   UNL d   1     -39.706  14.656  18.689  0.00  0.00     0.152 A 
ATOM      4  N   UNL d   1     -40.464  15.880  20.306  0.00  0.00    -0.163 NA
ATOM      5  C   UNL d   1     -39.508  14.955  20.826  0.00  0.00     0.055 A 
ATOM      6  N   UNL d   1     -38.867  14.040  19.959  0.00  0.00    -0.227 NA
ATOM      7  C   UNL d   1     -39.178  14.045  18.567  0.00  0.00     0.052 A 
ATOM      8  C   UNL d   1     -40.042  15.570  20.944  0.00  0.00     0.104 A 
ATOM      9  C   UNL d   1     -38.756  13.736  19.205  0.00  0.00     0.086 A 
ATOM     10  C   UNL d   1     -39.070  13.743  17.803  0.00  0.00     0.004 A 
ATOM     11  C   UNL d   1     -40.156  15.874  21.683  0.00  0.00     0.023 C 
ATOM     12  C   UNL d   1     -38.223  13.120  19.087  0.00  0.00     0.019 A 
ATOM     13  C   UNL d   1     -38.527  13.117  17.687  0.00  0.00     0.000 A 
ATOM     14  C   UNL d   1     -38.106  12.808  18.325  0.00  0.00     0.002 A 
ENDROOT
BRANCH   3  15
ATOM     15  N   UNL d   1     -40.134  14.969  18.035  0.00  0.00    -0.286 N 
ATOM     16  C   UNL d   1     -39.811  15.605  17.593  0.00  0.00     0.101 A 
ATOM     17  C   UNL d   1     -40.244  15.922  16.932  0.00  0.00     0.100 A 
ATOM     18  N   UNL d   1     -40.989  15.601  16.723  0.00  0.00    -0.299 N 
ATOM     19  C   UNL d   1     -41.315  14.962  17.166  0.00  0.00     0.100 A 
ATOM     20  C   UNL d   1     -41.414  15.922  16.064  0.00  0.00     0.100 C 
ATOM     21  C   UNL d   1     -40.889  14.640  17.828  0.00  0.00     0.101 A 
ENDBRANCH   3  15
BRANCH   5  22
ATOM     22  C   UNL d   1     -39.087  14.645  21.464  0.00  0.00     0.004 A 
ATOM     23  C   UNL d   1     -39.402  14.026  21.888  0.00  0.00     0.000 A 
ATOM     24  C   UNL d   1     -38.980  13.716  22.526  0.00  0.00     0.000 A 
ATOM     25  C   UNL d   1     -38.251  14.031  22.730  0.00  0.00     0.000 A 
ATOM     26  C   UNL d   1     -37.943  14.655  22.296  0.00  0.00     0.000 A 
ATOM     27  C   UNL d   1     -38.364  14.964  21.658  0.00  0.00     0.000 A 
ENDBRANCH   5  22
TORSDOF 2
ENDMDL
MODEL 2
REMARK VINA RESULT:      -6.3      1.037      4.639
REMARK  2 active torsions:
REMARK  status: ('A' for Active; 'I' for Inactive)
REMARK    1  A    between atoms: N_10  and  C_3 
REMARK    2  A    between atoms: C_12  and  C_5 
ROOT
ATOM      1  N   UNL d   1     -38.984  14.419  19.995  0.00  0.00    -0.196 N 
ATOM      2  C   UNL d   1     -39.333  14.660  19.281  0.00  0.00     0.167 A 
ATOM      3  C   UNL d   1     -39.346  14.620  20.704  0.00  0.00     0.152 A 
ATOM      4  N   UNL d   1     -37.944  13.800  19.272  0.00  0.00    -0.163 NA
ATOM      5  C   UNL d   1     -38.991  14.472  18.572  0.00  0.00     0.055 A 
ATOM      6  N   UNL d   1     -40.037  15.095  19.293  0.00  0.00    -0.227 NA
ATOM      7  C   UNL d   1     -40.040  15.049  20.718  0.00  0.00     0.052 A 
ATOM      8  C   UNL d   1     -38.291  14.039  18.563  0.00  0.00     0.104 A 
ATOM      9  C   UNL d   1     -40.387  15.288  20.008  0.00  0.00     0.086 A 
ATOM     10  C   UNL d   1     -40.390  15.241  21.444  0.00  0.00     0.004 A 
ATOM     11  C   UNL d   1     -37.941  13.846  17.862  0.00  0.00     0.023 C 
ATOM     12  C   UNL d   1     -41.087  15.721  20.018  0.00  0.00     0.019 A 
ATOM     13  C   UNL d   1     -41.101  15.681  21.449  0.00  0.00     0.000 A 
ATOM     14  C   UNL d   1     -41.448  15.920  20.740  0.00  0.00     0.002 A 
ENDROOT
BRANCH   3  15
ATOM     15  N   UNL d   1     -38.995  14.378  21.431  0.00  0.00    -0.286 N 
ATOM     16  C   UNL d   1     -39.220  13.648  21.778  0.00  0.00     0.101 A 
ATOM     17  C   UNL d   1     -38.865  13.404  22.512  0.00  0.00     0.100 A 
ATOM     18  N   UNL d   1     -38.293  13.889  22.886  0.00  0.00    -0.299 N 
ATOM     19  C   UNL d   1     -38.066  14.622  22.539  0.00  0.00     0.100 A 
ATOM     20  C   UNL d   1     -37.945  13.638  23.616  0.00  0.00     0.100 C 
ATOM     21  C   UNL d   1     -38.416  14.874  21.805  0.00  0.00     0.101 A 
ENDBRANCH   3  15
BRANCH   5  22
ATOM     22  C   UNL d   1     -39.338  14.711  17.863  0.00  0.00     0.004 A 
ATOM     23  C   UNL d   1     -39.886  14.228  17.502  0.00  0.00     0.000 A 
ATOM     24  C   UNL d   1     -40.233  14.467  16.793  0.00  0.00     0.000 A 
ATOM     25  C   UNL d   1     -40.027  15.185  16.455  0.00  0.00     0.000 A 
ATOM     26  C   UNL d   1     -39.475  15.665  16.825  0.00  0.00     0.000 A 
ATOM     27  C   UNL d   1     -39.128  15.426  17.535  0.00  0.00     0.000 A 
ENDBRANCH   5  22
TORSDOF 2
ENDMDL
MODEL 3
REMARK VINA RESULT:      -6.2      8.357      9.593
REMARK  2 active torsions:
REMARK  status: ('A' for Active; 'I' for Inactive)
REMARK    1  A    between atoms: N_10  and  C_3 
REMARK    2  A    between atoms: C_12  and  C_5 
ROOT
ATOM      1  N   UNL d   1     -47.504  13.845  22.420  0.00  0.00    -0.196 N 
ATOM      2  C   UNL d   1     -48.299  13.919  22.647  0.00  0.00     0.167 A 
ATOM      3  C   UNL d   1     -47.109  13.142  22.574  0.00  0.00     0.152 A 
ATOM      4  N   UNL d   1     -47.536  15.156  21.904  0.00  0.00    -0.163 NA
ATOM      5  C   UNL d   1     -48.707  14.602  22.505  0.00  0.00     0.055 A 
ATOM      6  N   UNL d   1     -48.680  13.287  23.024  0.00  0.00    -0.227 NA
ATOM      7  C   UNL d   1     -47.482  12.518  22.945  0.00  0.00     0.052 A 
ATOM      8  C   UNL d   1     -48.326  15.229  22.130  0.00  0.00     0.104 A 
ATOM      9  C   UNL d   1     -48.272  12.592  23.171  0.00  0.00     0.086 A 
ATOM     10  C   UNL d   1     -47.064  11.818  23.091  0.00  0.00     0.004 A 
ATOM     11  C   UNL d   1     -48.721  15.916  21.982  0.00  0.00     0.023 C 
ATOM     12  C   UNL d   1     -48.653  11.965  23.546  0.00  0.00     0.019 A 
ATOM     13  C   UNL d   1     -47.455  11.184  23.472  0.00  0.00     0.000 A 
ATOM     14  C   UNL d   1     -48.245  11.257  23.698  0.00  0.00     0.002 A 
ENDROOT
BRANCH   3  15
ATOM     15  N   UNL d   1     -46.301  13.064  22.344  0.00  0.00    -0.286 N 
ATOM     16  C   UNL d   1     -46.108  12.644  21.644  0.00  0.00     0.101 A 
ATOM     17  C   UNL d   1     -45.293  12.565  21.412  0.00  0.00     0.100 A 
ATOM     18  N   UNL d   1     -44.686  12.904  21.880  0.00  0.00    -0.299 N 
ATOM     19  C   UNL d   1     -44.879  13.326  22.584  0.00  0.00     0.100 A 
ATOM     20  C   UNL d   1     -43.878  12.820  21.642  0.00  0.00     0.100 C 
ATOM     21  C   UNL d   1     -45.691  13.409  22.823  0.00  0.00     0.101 A 
ENDBRANCH   3  15
BRANCH   5  22
ATOM     22  C   UNL d   1     -49.497  14.676  22.731  0.00  0.00     0.004 A 
ATOM     23  C   UNL d   1     -50.084  14.459  22.210  0.00  0.00     0.000 A 
ATOM     24  C   UNL d   1     -50.874  14.532  22.437  0.00  0.00     0.000 A 
ATOM     25  C   UNL d   1     -51.064  14.821  23.180  0.00  0.00     0.000 A 
ATOM     26  C   UNL d   1     -50.466  15.036  23.698  0.00  0.00     0.000 A 
ATOM     27  C   UNL d   1     -49.676  14.963  23.472  0.00  0.00     0.000 A 
ENDBRANCH   5  22
TORSDOF 2
ENDMDL
MODEL 4
REMARK VINA RESULT:      -4.5      1.602      2.145
REMARK  2 active torsions:
REMARK  status: ('A' for Active; 'I' for Inactive)
REMARK    1  A    between atoms: N_10  and  C_3 
REMARK    2  A    between atoms: C_12  and  C_5 
ROOT
ATOM      1  N   UNL d   1     -39.498  14.700  18.038  0.00  0.00    -0.196 N 
ATOM      2  C   UNL d   1     -39.749  14.362  18.754  0.00  0.00     0.167 A 
ATOM      3  C   UNL d   1     -38.986  14.277  17.555  0.00  0.00     0.152 A 
ATOM      4  N   UNL d   1     -40.268  15.847  18.316  0.00  0.00    -0.163 NA
ATOM      5  C   UNL d   1     -40.253  14.762  19.244  0.00  0.00     0.055 A 
ATOM      6  N   UNL d   1     -39.483  13.609  18.969  0.00  0.00    -0.227 NA
ATOM      7  C   UNL d   1     -38.722  13.534  17.766  0.00  0.00     0.052 A 
ATOM      8  C   UNL d   1     -40.517  15.511  19.027  0.00  0.00     0.104 A 
ATOM      9  C   UNL d   1     -38.971  13.198  18.477  0.00  0.00     0.086 A 
ATOM     10  C   UNL d   1     -38.206  13.125  17.264  0.00  0.00     0.004 A 
ATOM     11  C   UNL d   1     -41.020  15.921  19.507  0.00  0.00     0.023 C 
ATOM     12  C   UNL d   1     -38.708  12.449  18.693  0.00  0.00     0.019 A 
ATOM     13  C   UNL d   1     -37.940  12.364  17.487  0.00  0.00     0.000 A 
ATOM     14  C   UNL d   1     -38.189  12.028  18.198  0.00  0.00     0.002 A 
ENDROOT
BRANCH   3  15
ATOM     15  N   UNL d   1     -38.729  14.617  16.828  0.00  0.00    -0.286 N 
ATOM     16  C   UNL d   1     -38.200  15.269  16.838  0.00  0.00     0.101 A 
ATOM     17  C   UNL d   1     -37.940  15.612  16.104  0.00  0.00     0.100 A 
ATOM     18  N   UNL d   1     -38.211  15.301  15.374  0.00  0.00    -0.299 N 
ATOM     19  C   UNL d   1     -38.742  14.647  15.362  0.00  0.00     0.100 A 
ATOM     20  C   UNL d   1     -37.947  15.649  14.648  0.00  0.00     0.100 C 
ATOM     21  C   UNL d   1     -39.006  14.298  16.092  0.00  0.00     0.101 A 
ENDBRANCH   3  15
BRANCH   5  22
ATOM     22  C   UNL d   1     -40.503  14.426  19.955  0.00  0.00     0.004 A 
ATOM     23  C   UNL d   1     -41.228  14.058  19.990  0.00  0.00     0.000 A 
ATOM     24  C   UNL d   1     -41.478  13.722  20.701  0.00  0.00     0.000 A 
ATOM     25  C   UNL d   1     -40.998  13.759  21.365  0.00  0.00     0.000 A 
ATOM     26  C   UNL d   1     -40.269  14.132  21.319  0.00  0.00     0.000 A 
ATOM     27  C   UNL d   1     -40.020  14.468  20.608  0.00  0.00     0.000 A 
ENDBRANCH   5  22
TORSDOF 2
ENDMDL
MODEL 5
REMARK VINA RESULT:      -4.2      1.409      3.926
REMARK  2 active torsions:
REMARK  status: ('A' for Active; 'I' for Inactive)
REMARK    1  A    between atoms: N_10  and  C_3 
REMARK    2  A    between atoms: C_12  and  C_5 
ROOT
ATOM      1  N   UNL d   1     -40.172  14.892  18.542  0.00  0.00    -0.196 N 
ATOM      2  C   UNL d   1     -39.582  14.699  17.991  0.00  0.00     0.167 A 
ATOM      3  C   UNL d   1     -40.043  14.730  19.337  0.00  0.00     0.152 A 
ATOM      4  N   UNL d   1     -40.977  15.392  17.499  0.00  0.00    -0.163 NA
ATOM      5  C   UNL d   1     -39.689  14.851  17.203  0.00  0.00     0.055 A 
ATOM      6  N   UNL d   1     -38.877  14.349  18.247  0.00  0.00    -0.227 NA
ATOM      7  C   UNL d   1     -39.349  14.384  19.592  0.00  0.00     0.052 A 
ATOM      8  C   UNL d   1     -40.391  15.200  16.951  0.00  0.00     0.104 A 
ATOM      9  C   UNL d   1     -38.763  14.193  19.044  0.00  0.00     0.086 A 
ATOM     10  C   UNL d   1     -39.240  14.229  20.398  0.00  0.00     0.004 A 
ATOM     11  C   UNL d   1     -40.509  15.356  16.169  0.00  0.00     0.023 C 
ATOM     12  C   UNL d   1     -38.061  13.844  19.296  0.00  0.00     0.019 A 
ATOM     13  C   UNL d   1     -38.526  13.875  20.651  0.00  0.00     0.000 A 
ATOM     14  C   UNL d   1     -37.940  13.683  20.103  0.00  0.00     0.002 A 
ENDROOT
BRANCH   3  15
ATOM     15  N   UNL d   1     -40.640  14.924  19.900  0.00  0.00    -0.286 N 
ATOM     16  C   UNL d   1     -40.689  15.707  20.200  0.00  0.00     0.101 A 
ATOM     17  C   UNL d   1     -41.291  15.903  20.768  0.00  0.00     0.100 A 
ATOM     18  N   UNL d   1     -41.833  15.318  21.027  0.00  0.00    -0.299 N 
ATOM     19  C   UNL d   1     -41.785  14.533  20.727  0.00  0.00     0.100 A 
ATOM     20  C   UNL d   1     -42.429  15.522  21.593  0.00  0.00     0.100 C 
ATOM     21  C   UNL d   1     -41.186  14.328  20.159  0.00  0.00     0.101 A 
ENDBRANCH   3  15
BRANCH   5  22
ATOM     22  C   UNL d   1     -39.103  14.659  16.655  0.00  0.00     0.004 A 
ATOM     23  C   UNL d   1     -39.068  13.904  16.355  0.00  0.00     0.000 A 
ATOM     24  C   UNL d   1     -38.482  13.712  15.807  0.00  0.00     0.000 A 
ATOM     25  C   UNL d   1     -37.940  14.279  15.568  0.00  0.00     0.000 A 
ATOM     26  C   UNL d   1     -37.983  15.037  15.876  0.00  0.00     0.000 A 
ATOM     27  C   UNL d   1     -38.569  15.229  16.425  0.00  0.00     0.000 A 
ENDBRANCH   5  22
TORSDOF 2
ENDMDL
