MODEL 1
REMARK VINA RESULT:      -2.7      0.000      0.000
REMARK  4 active torsions:
REMARK  status: ('A' for Active; 'I' for Inactive)
REMARK    1  A    between atoms: C_7  and  C_2 
REMARK    2  A    between atoms: C_9  and  C_4 
REMARK    3  A    between atoms: C_15  and  C_7 
REMARK    4  A    between atoms: N_8  and  C_9 
ROOT
ATOM      1  C   UNL d   1     -41.201-122.380 -51.720  0.00  0.00     0.108 A 
ATOM      2  C   UNL d   1     -41.203-122.659 -53.030  0.00  0.00     0.139 A 
ATOM      3  O   UNL d   1     -41.229-122.999 -52.272  0.00  0.00    -0.304 OA
ATOM      4  C   UNL d   1     -41.208-122.374 -50.897  0.00  0.00     0.079 A 
ATOM      5  C   UNL d   1     -41.158-121.666 -52.136  0.00  0.00     0.064 A 
ATOM      6  C   UNL d   1     -41.159-121.840 -52.942  0.00  0.00     0.220 A 
ATOM      7  C   UNL d   1     -41.123-120.951 -51.726  0.00  0.00     0.009 A 
ATOM      8  C   UNL d   1     -41.173-121.662 -50.495  0.00  0.00     0.199 A 
ATOM      9  O   UNL d   1     -41.123-121.287 -53.559  0.00  0.00    -0.284 OA
ATOM     10  C   UNL d   1     -41.130-120.948 -50.901  0.00  0.00     0.042 A 
ATOM     11  O   UNL d   1     -41.181-121.660 -49.670  0.00  0.00    -0.286 OA
ENDROOT
BRANCH   2  12
ATOM     12  C   UNL d   1     -41.219-123.074 -53.745  0.00  0.00     0.028 C 
BRANCH  12  13
ATOM     13  C   UNL d   1     -41.657-122.787 -54.385  0.00  0.00     0.002 A 
ATOM     14  C   UNL d   1     -41.267-122.458 -55.033  0.00  0.00     0.000 A 
ATOM     15  C   UNL d   1     -41.697-122.171 -55.673  0.00  0.00     0.000 A 
ATOM     16  C   UNL d   1     -42.527-122.212 -55.664  0.00  0.00     0.000 A 
ATOM     17  C   UNL d   1     -42.917-122.541 -55.016  0.00  0.00     0.000 A 
ATOM     18  C   UNL d   1     -42.961-121.925 -56.304  0.00  0.00     0.000 C 
ATOM     19  C   UNL d   1     -42.479-122.828 -54.377  0.00  0.00     0.000 A 
ENDBRANCH  12  13
ENDBRANCH   2  12
BRANCH   4  20
ATOM     20  C   UNL d   1     -41.251-123.079 -50.486  0.00  0.00     0.086 C 
BRANCH  20  21
ATOM     21  N   UNL d   1     -41.813-123.267 -49.901  0.00  0.00    -0.300 N 
ATOM     22  C   UNL d   1     -41.554-123.396 -49.134  0.00  0.00     0.100 A 
ATOM     23  C   UNL d   1     -42.102-123.581 -48.548  0.00  0.00     0.100 A 
ATOM     24  N   UNL d   1     -42.893-123.633 -48.745  0.00  0.00    -0.299 N 
ATOM     25  C   UNL d   1     -43.136-123.502 -49.515  0.00  0.00     0.100 A 
ATOM     26  C   UNL d   1     -43.439-123.817 -48.168  0.00  0.00     0.100 C 
ATOM     27  C   UNL d   1     -42.589-123.319 -50.088  0.00  0.00     0.100 A 
ENDBRANCH  20  21
ENDBRANCH   4  20
TORSDOF 4
ENDMDL
MODEL 2
REMARK VINA RESULT:      -2.2      1.404      4.801
REMARK  4 active torsions:
REMARK  status: ('A' for Active; 'I' for Inactive)
REMARK    1  A    between atoms: C_7  and  C_2 
REMARK    2  A    between atoms: C_9  and  C_4 
REMARK    3  A    between atoms: C_15  and  C_7 
REMARK    4  A    between atoms: N_8  and  C_9 
ROOT
ATOM      1  C   UNL d   1     -41.136-122.310 -51.946  0.00  0.00     0.108 A 
ATOM      2  C   UNL d   1     -41.140-122.985 -50.789  0.00  0.00     0.139 A 
ATOM      3  O   UNL d   1     -41.137-123.072 -51.617  0.00  0.00    -0.304 OA
ATOM      4  C   UNL d   1     -41.133-122.047 -52.726  0.00  0.00     0.079 A 
ATOM      5  C   UNL d   1     -41.137-121.761 -51.327  0.00  0.00     0.064 A 
ATOM      6  C   UNL d   1     -41.140-122.179 -50.616  0.00  0.00     0.220 A 
ATOM      7  C   UNL d   1     -41.136-120.953 -51.492  0.00  0.00     0.009 A 
ATOM      8  C   UNL d   1     -41.132-121.244 -52.884  0.00  0.00     0.199 A 
ATOM      9  O   UNL d   1     -41.142-121.846 -49.857  0.00  0.00    -0.284 OA
ATOM     10  C   UNL d   1     -41.134-120.692 -52.274  0.00  0.00     0.042 A 
ATOM     11  O   UNL d   1     -41.130-120.984 -53.667  0.00  0.00    -0.286 OA
ENDROOT
BRANCH   2  12
ATOM     12  C   UNL d   1     -41.142-123.604 -50.240  0.00  0.00     0.028 C 
BRANCH  12  13
ATOM     13  C   UNL d   1     -41.741-123.657 -49.673  0.00  0.00     0.002 A 
ATOM     14  C   UNL d   1     -41.549-123.617 -48.872  0.00  0.00     0.000 A 
ATOM     15  C   UNL d   1     -42.141-123.669 -48.302  0.00  0.00     0.000 A 
ATOM     16  C   UNL d   1     -42.933-123.761 -48.537  0.00  0.00     0.000 A 
ATOM     17  C   UNL d   1     -43.125-123.800 -49.338  0.00  0.00     0.000 A 
ATOM     18  C   UNL d   1     -43.529-123.813 -47.968  0.00  0.00     0.000 C 
ATOM     19  C   UNL d   1     -42.526-123.748 -49.905  0.00  0.00     0.000 A 
ENDBRANCH  12  13
ENDBRANCH   2  12
BRANCH   4  20
ATOM     20  C   UNL d   1     -41.132-122.589 -53.338  0.00  0.00     0.086 C 
BRANCH  20  21
ATOM     21  N   UNL d   1     -41.630-122.569 -54.005  0.00  0.00    -0.300 N 
ATOM     22  C   UNL d   1     -41.288-122.560 -54.750  0.00  0.00     0.100 A 
ATOM     23  C   UNL d   1     -41.772-122.540 -55.416  0.00  0.00     0.100 A 
ATOM     24  N   UNL d   1     -42.583-122.530 -55.319  0.00  0.00    -0.299 N 
ATOM     25  C   UNL d   1     -42.909-122.539 -54.569  0.00  0.00     0.100 A 
ATOM     26  C   UNL d   1     -43.066-122.510 -55.976  0.00  0.00     0.100 C 
ATOM     27  C   UNL d   1     -42.425-122.559 -53.916  0.00  0.00     0.100 A 
ENDBRANCH  20  21
ENDBRANCH   4  20
TORSDOF 4
ENDMDL
