MODEL 1
REMARK VINA RESULT:      18.3      0.000      0.000
REMARK  2 active torsions:
REMARK  status: ('A' for Active; 'I' for Inactive)
REMARK    1  A    between atoms: S_2  and  N_1 
REMARK    2  A    between atoms: N_6  and  S_2 
ROOT
ATOM      1  N   UNL d   1      46.236 -18.048  44.308  0.00  0.00    -0.199 N 
ATOM      2  C   UNL d   1      46.311 -18.469  43.608  0.00  0.00     0.095 A 
ATOM      3  C   UNL d   1      46.400 -18.575  44.939  0.00  0.00     0.194 A 
ATOM      4  N   UNL d   1      46.574 -19.314  44.608  0.00  0.00    -0.223 NA
ATOM      5  C   UNL d   1      46.519 -19.248  43.790  0.00  0.00     0.100 A 
ATOM      6  C   UNL d   1      46.215 -18.236  42.825  0.00  0.00     0.020 A 
ATOM      7  C   UNL d   1      46.629 -19.791  43.180  0.00  0.00     0.021 A 
ATOM      8  C   UNL d   1      46.325 -18.780  42.215  0.00  0.00     0.002 A 
ATOM      9  C   UNL d   1      46.534 -19.561  42.393  0.00  0.00     0.002 A 
ATOM     10  C   UNL d   1      46.229 -18.546  41.428  0.00  0.00     0.000 C 
ATOM     11  C   UNL d   1      46.645 -20.109  41.782  0.00  0.00     0.000 C 
ENDROOT
BRANCH   1  12
ATOM     12  S   UNL d   1      46.038 -17.261  44.382  0.00  0.00     0.339 S 
ATOM     13  O   UNL d   1      46.593 -17.059  43.809  0.00  0.00    -0.181 OA
ATOM     14  O   UNL d   1      45.482 -17.458  44.955  0.00  0.00    -0.181 OA
BRANCH  12  15
ATOM     15  N   UNL d   1      45.830 -16.469  44.465  0.00  0.00    -0.212 N 
ATOM     16  C   UNL d   1      46.357 -15.879  44.233  0.00  0.00     0.120 A 
ATOM     17  C   UNL d   1      46.150 -15.091  44.315  0.00  0.00     0.142 A 
ATOM     18  O   UNL d   1      45.425 -14.883  44.625  0.00  0.00    -0.300 OA
ATOM     19  C   UNL d   1      44.892 -15.466  44.860  0.00  0.00     0.142 A 
ATOM     20  C   UNL d   1      45.099 -16.267  44.778  0.00  0.00     0.120 A 
ENDBRANCH  12  15
ENDBRANCH   1  12
TORSDOF 2
ENDMDL
