MODEL 1
REMARK VINA RESULT:      51.6      0.000      0.000
REMARK  11 active torsions:
REMARK  status: ('A' for Active; 'I' for Inactive)
REMARK    1  A    between atoms: C_7  and  C_1 
REMARK    2  A    between atoms: C_8  and  C_2 
REMARK    3  A    between atoms: S_9  and  C_3 
REMARK    4  A    between atoms: C_11  and  C_4 
REMARK    5  A    between atoms: O_20  and  C_7 
REMARK    6  A    between atoms: C_15  and  S_9 
REMARK    7  A    between atoms: C_12  and  C_15 
REMARK    8  A    between atoms: O_24  and  C_12 
REMARK    9  A    between atoms: C_18  and  C_26 
REMARK   10  A    between atoms: C_26  and  O_20 
REMARK   11  A    between atoms: C_27  and  O_24 
ROOT
ATOM      1  C   UNL d   1      44.471 -16.196  37.487  0.00  0.00     0.081 A 
ATOM      2  C   UNL d   1      45.681 -16.433  38.222  0.00  0.00     0.045 A 
ATOM      3  C   UNL d   1      45.322 -17.121  38.571  0.00  0.00     0.112 A 
ATOM      4  C   UNL d   1      45.243 -15.983  37.684  0.00  0.00     0.010 A 
ATOM      5  C   UNL d   1      44.122 -16.865  37.827  0.00  0.00     0.087 A 
ATOM      6  N   UNL d   1      44.547 -17.318  38.362  0.00  0.00    -0.239 NA
ATOM      7  C   UNL d   1      43.349 -17.099  37.645  0.00  0.00     0.021 C 
ENDROOT
BRANCH   3   8
ATOM      8  S   UNL d   1      45.728 -17.619  39.131  0.00  0.00    -0.062 SA
BRANCH   8   9
ATOM      9  C   UNL d   1      45.332 -17.849  39.809  0.00  0.00     0.105 C 
BRANCH   9  10
ATOM     10  C   UNL d   1      45.771 -18.130  40.454  0.00  0.00     0.307 C 
ATOM     11  O   UNL d   1      46.589 -18.119  40.428  0.00  0.00    -0.258 OA
BRANCH  10  12
ATOM     12  O   UNL d   1      45.383 -18.414  41.110  0.00  0.00    -0.271 OA
BRANCH  12  13
ATOM     13  C   UNL d   1      45.781 -18.464  41.828  0.00  0.00     0.126 C 
ATOM     14  C   UNL d   1      46.601 -18.451  41.836  0.00  0.00     0.029 C 
ENDBRANCH  12  13
ENDBRANCH  10  12
ENDBRANCH   9  10
ENDBRANCH   8   9
ENDBRANCH   3   8
BRANCH   2  15
ATOM     15  C   UNL d   1      46.471 -16.194  38.407  0.00  0.00     0.124 C 
ATOM     16  N   UNL d   1      46.597 -15.532  38.864  0.00  0.00    -0.146 N 
ENDBRANCH   2  15
BRANCH   4  17
ATOM     17  C   UNL d   1      45.590 -15.318  37.346  0.00  0.00     0.000 A 
ATOM     18  C   UNL d   1      46.125 -15.417  36.723  0.00  0.00     0.000 A 
ATOM     19  C   UNL d   1      46.484 -14.773  36.370  0.00  0.00     0.000 A 
ATOM     20  C   UNL d   1      46.291 -13.973  36.663  0.00  0.00     0.000 A 
ATOM     21  C   UNL d   1      45.755 -13.893  37.285  0.00  0.00     0.000 A 
ATOM     22  C   UNL d   1      46.633 -13.301  36.332  0.00  0.00     0.000 C 
ATOM     23  C   UNL d   1      45.406 -14.563  37.625  0.00  0.00     0.000 A 
ENDBRANCH   4  17
BRANCH   1  24
ATOM     24  C   UNL d   1      44.038 -15.717  36.929  0.00  0.00     0.302 C 
ATOM     25  O   UNL d   1      44.433 -15.308  36.334  0.00  0.00    -0.259 OA
BRANCH  24  26
ATOM     26  O   UNL d   1      43.227 -15.672  36.998  0.00  0.00    -0.271 OA
BRANCH  26  27
ATOM     27  C   UNL d   1      42.844 -14.938  37.033  0.00  0.00     0.126 C 
BRANCH  27  28
ATOM     28  C   UNL d   1      42.031 -14.886  36.937  0.00  0.00     0.027 C 
ATOM     29  C   UNL d   1      41.653 -15.309  36.341  0.00  0.00     0.002 C 
ENDBRANCH  27  28
ENDBRANCH  26  27
ENDBRANCH  24  26
ENDBRANCH   1  24
TORSDOF 11
ENDMDL
MODEL 2
REMARK VINA RESULT:      52.4      4.625      6.414
REMARK  11 active torsions:
REMARK  status: ('A' for Active; 'I' for Inactive)
REMARK    1  A    between atoms: C_7  and  C_1 
REMARK    2  A    between atoms: C_8  and  C_2 
REMARK    3  A    between atoms: S_9  and  C_3 
REMARK    4  A    between atoms: C_11  and  C_4 
REMARK    5  A    between atoms: O_20  and  C_7 
REMARK    6  A    between atoms: C_15  and  S_9 
REMARK    7  A    between atoms: C_12  and  C_15 
REMARK    8  A    between atoms: O_24  and  C_12 
REMARK    9  A    between atoms: C_18  and  C_26 
REMARK   10  A    between atoms: C_26  and  O_20 
REMARK   11  A    between atoms: C_27  and  O_24 
ROOT
ATOM      1  C   UNL d   1      46.089 -18.937  43.670  0.00  0.00     0.081 A 
ATOM      2  C   UNL d   1      46.158 -17.506  43.597  0.00  0.00     0.045 A 
ATOM      3  C   UNL d   1      46.041 -17.468  44.439  0.00  0.00     0.112 A 
ATOM      4  C   UNL d   1      46.179 -18.245  43.229  0.00  0.00     0.010 A 
ATOM      5  C   UNL d   1      45.975 -18.900  44.489  0.00  0.00     0.087 A 
ATOM      6  N   UNL d   1      45.952 -18.171  44.863  0.00  0.00    -0.239 NA
ATOM      7  C   UNL d   1      45.882 -19.580  44.951  0.00  0.00     0.021 C 
ENDROOT
BRANCH   3   8
ATOM      8  S   UNL d   1      46.011 -16.731  44.868  0.00  0.00    -0.062 SA
BRANCH   8   9
ATOM      9  C   UNL d   1      46.524 -16.131  44.650  0.00  0.00     0.105 C 
BRANCH   9  10
ATOM     10  C   UNL d   1      46.209 -15.393  44.441  0.00  0.00     0.307 C 
ATOM     11  O   UNL d   1      46.491 -14.999  43.781  0.00  0.00    -0.258 OA
BRANCH  10  12
ATOM     12  O   UNL d   1      45.620 -15.065  44.896  0.00  0.00    -0.271 OA
BRANCH  12  13
ATOM     13  C   UNL d   1      45.559 -14.247  44.954  0.00  0.00     0.126 C 
ATOM     14  C   UNL d   1      44.964 -13.857  44.545  0.00  0.00     0.029 C 
ENDBRANCH  12  13
ENDBRANCH  10  12
ENDBRANCH   9  10
ENDBRANCH   8   9
ENDBRANCH   3   8
BRANCH   2  15
ATOM     15  C   UNL d   1      46.253 -16.810  43.124  0.00  0.00     0.124 C 
ATOM     16  N   UNL d   1      45.655 -16.259  43.090  0.00  0.00    -0.146 N 
ENDBRANCH   2  15
BRANCH   4  17
ATOM     17  C   UNL d   1      46.292 -18.282  42.415  0.00  0.00     0.000 A 
ATOM     18  C   UNL d   1      46.194 -17.595  41.965  0.00  0.00     0.000 A 
ATOM     19  C   UNL d   1      46.300 -17.605  41.155  0.00  0.00     0.000 A 
ATOM     20  C   UNL d   1      46.520 -18.356  40.769  0.00  0.00     0.000 A 
ATOM     21  C   UNL d   1      46.614 -19.032  41.234  0.00  0.00     0.000 A 
ATOM     22  C   UNL d   1      46.635 -18.404  39.956  0.00  0.00     0.000 C 
ATOM     23  C   UNL d   1      46.500 -18.995  42.054  0.00  0.00     0.000 A 
ENDBRANCH   4  17
BRANCH   1  24
ATOM     24  C   UNL d   1      46.114 -19.689  43.268  0.00  0.00     0.302 C 
ATOM     25  O   UNL d   1      46.640 -20.275  43.509  0.00  0.00    -0.259 OA
BRANCH  24  26
ATOM     26  O   UNL d   1      45.607 -19.816  42.642  0.00  0.00    -0.271 OA
BRANCH  26  27
ATOM     27  C   UNL d   1      44.955 -20.322  42.720  0.00  0.00     0.126 C 
BRANCH  27  28
ATOM     28  C   UNL d   1      44.231 -20.033  42.974  0.00  0.00     0.027 C 
ATOM     29  C   UNL d   1      43.671 -19.772  42.431  0.00  0.00     0.002 C 
ENDBRANCH  27  28
ENDBRANCH  26  27
ENDBRANCH  24  26
ENDBRANCH   1  24
TORSDOF 11
ENDMDL
MODEL 3
REMARK VINA RESULT:      53.8      2.397      6.328
REMARK  11 active torsions:
REMARK  status: ('A' for Active; 'I' for Inactive)
REMARK    1  A    between atoms: C_7  and  C_1 
REMARK    2  A    between atoms: C_8  and  C_2 
REMARK    3  A    between atoms: S_9  and  C_3 
REMARK    4  A    between atoms: C_11  and  C_4 
REMARK    5  A    between atoms: O_20  and  C_7 
REMARK    6  A    between atoms: C_15  and  S_9 
REMARK    7  A    between atoms: C_12  and  C_15 
REMARK    8  A    between atoms: O_24  and  C_12 
REMARK    9  A    between atoms: C_18  and  C_26 
REMARK   10  A    between atoms: C_26  and  O_20 
REMARK   11  A    between atoms: C_27  and  O_24 
ROOT
ATOM      1  C   UNL d   1      46.218 -17.305  42.720  0.00  0.00     0.081 A 
ATOM      2  C   UNL d   1      46.289 -18.377  41.768  0.00  0.00     0.045 A 
ATOM      3  C   UNL d   1      46.416 -17.806  41.150  0.00  0.00     0.112 A 
ATOM      4  C   UNL d   1      46.192 -18.111  42.544  0.00  0.00     0.010 A 
ATOM      5  C   UNL d   1      46.342 -16.749  42.118  0.00  0.00     0.087 A 
ATOM      6  N   UNL d   1      46.439 -17.003  41.345  0.00  0.00    -0.239 NA
ATOM      7  C   UNL d   1      46.372 -15.936  42.270  0.00  0.00     0.021 C 
ENDROOT
BRANCH   3   8
ATOM      8  S   UNL d   1      46.521 -18.026  40.333  0.00  0.00    -0.062 SA
BRANCH   8   9
ATOM      9  C   UNL d   1      46.277 -17.503  39.752  0.00  0.00     0.105 C 
BRANCH   9  10
ATOM     10  C   UNL d   1      45.526 -17.600  39.415  0.00  0.00     0.307 C 
ATOM     11  O   UNL d   1      44.871 -17.697  39.896  0.00  0.00    -0.258 OA
BRANCH  10  12
ATOM     12  O   UNL d   1      45.446 -17.600  38.606  0.00  0.00    -0.271 OA
BRANCH  12  13
ATOM     13  C   UNL d   1      44.757 -17.309  38.265  0.00  0.00     0.126 C 
ATOM     14  C   UNL d   1      44.785 -16.620  37.821  0.00  0.00     0.029 C 
ENDBRANCH  12  13
ENDBRANCH  10  12
ENDBRANCH   9  10
ENDBRANCH   8   9
ENDBRANCH   3   8
BRANCH   2  15
ATOM     15  C   UNL d   1      46.258 -19.208  41.613  0.00  0.00     0.124 C 
ATOM     16  N   UNL d   1      46.226 -19.476  40.845  0.00  0.00    -0.146 N 
ENDBRANCH   2  15
BRANCH   4  17
ATOM     17  C   UNL d   1      46.069 -18.663  43.142  0.00  0.00     0.000 A 
ATOM     18  C   UNL d   1      45.628 -19.342  42.976  0.00  0.00     0.000 A 
ATOM     19  C   UNL d   1      45.491 -19.906  43.552  0.00  0.00     0.000 A 
ATOM     20  C   UNL d   1      45.821 -19.778  44.350  0.00  0.00     0.000 A 
ATOM     21  C   UNL d   1      46.259 -19.095  44.497  0.00  0.00     0.000 A 
ATOM     22  C   UNL d   1      45.704 -20.324  44.955  0.00  0.00     0.000 C 
ATOM     23  C   UNL d   1      46.383 -18.540  43.896  0.00  0.00     0.000 A 
ENDBRANCH   4  17
BRANCH   1  24
ATOM     24  C   UNL d   1      46.116 -17.054  43.528  0.00  0.00     0.302 C 
ATOM     25  O   UNL d   1      46.455 -17.480  44.145  0.00  0.00    -0.259 OA
BRANCH  24  26
ATOM     26  O   UNL d   1      45.676 -16.383  43.677  0.00  0.00    -0.271 OA
BRANCH  26  27
ATOM     27  C   UNL d   1      45.930 -15.824  44.233  0.00  0.00     0.126 C 
BRANCH  27  28
ATOM     28  C   UNL d   1      45.419 -15.553  44.815  0.00  0.00     0.027 C 
ATOM     29  C   UNL d   1      44.662 -15.296  44.620  0.00  0.00     0.002 C 
ENDBRANCH  27  28
ENDBRANCH  26  27
ENDBRANCH  24  26
ENDBRANCH   1  24
TORSDOF 11
ENDMDL
