MODEL 1
REMARK VINA RESULT:      12.7      0.000      0.000
REMARK  7 active torsions:
REMARK  status: ('A' for Active; 'I' for Inactive)
REMARK    1  A    between atoms: C_2  and  C_1 
REMARK    2  A    between atoms: O_12  and  C_1 
REMARK       I    between atoms: C_3  and  N_4 
REMARK    3  A    between atoms: C_11  and  C_3 
REMARK    4  A    between atoms: N_4  and  C_7 
REMARK    5  A    between atoms: C_5  and  C_13 
REMARK    6  A    between atoms: O_14  and  C_5 
REMARK    7  A    between atoms: C_13  and  C_11 
ROOT
ATOM      1  C   UNL d   1      45.105 -12.625  43.309  0.00  0.00     0.063 A 
ATOM      2  C   UNL d   1      45.621 -13.237  43.506  0.00  0.00     0.023 A 
ATOM      3  C   UNL d   1      45.902 -13.330  44.276  0.00  0.00     0.059 A 
ATOM      4  C   UNL d   1      44.859 -12.083  43.900  0.00  0.00     0.006 A 
ATOM      5  C   UNL d   1      45.143 -12.177  44.675  0.00  0.00     0.002 A 
ATOM      6  C   UNL d   1      45.662 -12.801  44.851  0.00  0.00     0.017 A 
ENDROOT
BRANCH   3   7
ATOM      7  N   UNL d   1      46.431 -13.960  44.467  0.00  0.00    -0.321 N 
ATOM      8  C   UNL d   1      46.126 -14.673  44.747  0.00  0.00     0.258 C 
ATOM      9  O   UNL d   1      46.646 -15.294  44.936  0.00  0.00    -0.267 OA
ATOM     10  H   UNL d   1      47.244 -13.852  44.370  0.00  0.00     0.169 HD
BRANCH   8  11
ATOM     11  C   UNL d   1      45.314 -14.793  44.849  0.00  0.00     0.067 C 
BRANCH  11  12
ATOM     12  C   UNL d   1      44.981 -15.535  44.823  0.00  0.00     0.072 C 
BRANCH  12  13
ATOM     13  C   UNL d   1      44.169 -15.621  44.870  0.00  0.00     0.178 C 
ATOM     14  O   UNL d   1      43.853 -16.380  44.939  0.00  0.00    -0.646 OA
BRANCH  13  15
ATOM     15  O   UNL d   1      43.678 -14.970  44.849  0.00  0.00    -0.773 OA
ATOM     16  H   UNL d   1      43.426 -14.672  44.142  0.00  0.00     0.167 HD
ENDBRANCH  13  15
ENDBRANCH  12  13
ENDBRANCH  11  12
ENDBRANCH   8  11
ENDBRANCH   3   7
BRANCH   1  17
ATOM     17  C   UNL d   1      44.832 -12.546  42.534  0.00  0.00     0.178 C 
ATOM     18  O   UNL d   1      44.036 -12.709  42.369  0.00  0.00    -0.646 OA
BRANCH  17  19
ATOM     19  O   UNL d   1      45.338 -12.311  41.944  0.00  0.00    -0.773 OA
ATOM     20  H   UNL d   1      46.119 -12.100  42.112  0.00  0.00     0.167 HD
ENDBRANCH  17  19
ENDBRANCH   1  17
TORSDOF 7
ENDMDL
MODEL 2
REMARK VINA RESULT:      15.7      6.498      7.477
REMARK  7 active torsions:
REMARK  status: ('A' for Active; 'I' for Inactive)
REMARK    1  A    between atoms: C_2  and  C_1 
REMARK    2  A    between atoms: O_12  and  C_1 
REMARK       I    between atoms: C_3  and  N_4 
REMARK    3  A    between atoms: C_11  and  C_3 
REMARK    4  A    between atoms: N_4  and  C_7 
REMARK    5  A    between atoms: C_5  and  C_13 
REMARK    6  A    between atoms: O_14  and  C_5 
REMARK    7  A    between atoms: C_13  and  C_11 
ROOT
ATOM      1  C   UNL d   1      45.837 -14.050  37.347  0.00  0.00     0.063 A 
ATOM      2  C   UNL d   1      45.461 -14.758  37.540  0.00  0.00     0.023 A 
ATOM      3  C   UNL d   1      45.633 -15.458  37.139  0.00  0.00     0.059 A 
ATOM      4  C   UNL d   1      46.408 -14.037  36.733  0.00  0.00     0.006 A 
ATOM      5  C   UNL d   1      46.581 -14.743  36.330  0.00  0.00     0.002 A 
ATOM      6  C   UNL d   1      46.190 -15.445  36.541  0.00  0.00     0.017 A 
ENDROOT
BRANCH   3   7
ATOM      7  N   UNL d   1      45.241 -16.178  37.344  0.00  0.00    -0.321 N 
ATOM      8  C   UNL d   1      44.464 -16.301  37.097  0.00  0.00     0.258 C 
ATOM      9  O   UNL d   1      44.078 -17.010  37.299  0.00  0.00    -0.267 OA
ATOM     10  H   UNL d   1      45.643 -16.747  37.789  0.00  0.00     0.169 HD
BRANCH   8  11
ATOM     11  C   UNL d   1      44.052 -15.739  36.652  0.00  0.00     0.067 C 
BRANCH  11  12
ATOM     12  C   UNL d   1      43.322 -15.895  36.330  0.00  0.00     0.072 C 
BRANCH  12  13
ATOM     13  C   UNL d   1      42.651 -15.554  36.649  0.00  0.00     0.178 C 
ATOM     14  O   UNL d   1      42.735 -14.901  37.147  0.00  0.00    -0.646 OA
BRANCH  13  15
ATOM     15  O   UNL d   1      41.910 -15.850  36.480  0.00  0.00    -0.773 OA
ATOM     16  H   UNL d   1      41.297 -15.350  36.325  0.00  0.00     0.167 HD
ENDBRANCH  13  15
ENDBRANCH  12  13
ENDBRANCH  11  12
ENDBRANCH   8  11
ENDBRANCH   3   7
BRANCH   1  17
ATOM     17  C   UNL d   1      45.654 -13.358  37.757  0.00  0.00     0.178 C 
ATOM     18  O   UNL d   1      45.851 -12.626  37.421  0.00  0.00    -0.646 OA
BRANCH  17  19
ATOM     19  O   UNL d   1      45.286 -13.395  38.480  0.00  0.00    -0.773 OA
ATOM     20  H   UNL d   1      45.613 -13.028  39.144  0.00  0.00     0.167 HD
ENDBRANCH  17  19
ENDBRANCH   1  17
TORSDOF 7
ENDMDL
