MODEL 1
REMARK VINA RESULT:      -2.6      0.000      0.000
REMARK  5 active torsions:
REMARK  status: ('A' for Active; 'I' for Inactive)
REMARK    1  A    between atoms: C_12  and  N_1 
REMARK    2  A    between atoms: N_7  and  C_5 
REMARK    3  A    between atoms: C_10  and  N_7 
REMARK    4  A    between atoms: O_14  and  C_13 
REMARK    5  A    between atoms: C_19  and  O_14 
ROOT
ATOM      1  N   UNL d   1      31.765  17.919 -24.405  0.00  0.00    -0.212 N 
ATOM      2  C   UNL d   1      32.258  18.083 -23.763  0.00  0.00     0.170 A 
ATOM      3  C   UNL d   1      32.402  18.896 -23.754  0.00  0.00     0.093 A 
ATOM      4  N   UNL d   1      31.604  18.634 -24.794  0.00  0.00    -0.162 NA
ATOM      5  C   UNL d   1      32.884  19.227 -23.166  0.00  0.00     0.169 A 
ATOM      6  C   UNL d   1      32.000  19.235 -24.387  0.00  0.00     0.127 A 
ATOM      7  N   UNL d   1      32.593  17.591 -23.185  0.00  0.00    -0.205 NA
ATOM      8  N   UNL d   1      33.219  18.734 -22.588  0.00  0.00    -0.205 NA
ATOM      9  C   UNL d   1      33.071  17.923 -22.603  0.00  0.00     0.202 A 
ENDROOT
BRANCH   5  10
ATOM     10  N   UNL d   1      33.030  20.031 -23.150  0.00  0.00    -0.225 NA
BRANCH  10  11
ATOM     11  C   UNL d   1      33.080  20.425 -22.438  0.00  0.00     0.106 A 
ATOM     12  C   UNL d   1      33.179  21.248 -22.416  0.00  0.00     0.118 A 
ATOM     13  C   UNL d   1      33.228  21.644 -21.706  0.00  0.00     0.026 A 
ATOM     14  C   UNL d   1      33.178  21.213 -20.990  0.00  0.00     0.002 A 
ATOM     15  C   UNL d   1      33.081  20.409 -21.003  0.00  0.00     0.002 A 
ATOM     16  C   UNL d   1      33.031  20.007 -21.728  0.00  0.00     0.021 A 
BRANCH  12  17
ATOM     17  O   UNL d   1      33.227  21.666 -23.126  0.00  0.00    -0.304 OA
BRANCH  17  18
ATOM     18  C   UNL d   1      33.138  22.491 -23.127  0.00  0.00     0.123 C 
ATOM     19  C   UNL d   1      33.220  22.910 -23.829  0.00  0.00     0.029 C 
ENDBRANCH  17  18
ENDBRANCH  12  17
ENDBRANCH  10  11
ENDBRANCH   5  10
BRANCH   1  20
ATOM     20  C   UNL d   1      31.482  17.173 -24.623  0.00  0.00     0.085 A 
ATOM     21  C   UNL d   1      30.667  17.023 -24.608  0.00  0.00     0.019 A 
ATOM     22  C   UNL d   1      30.384  16.282 -24.824  0.00  0.00     0.002 A 
ATOM     23  C   UNL d   1      30.914  15.685 -25.058  0.00  0.00     0.000 A 
ATOM     24  C   UNL d   1      31.720  15.835 -25.072  0.00  0.00     0.002 A 
ATOM     25  C   UNL d   1      32.013  16.576 -24.856  0.00  0.00     0.019 A 
ENDBRANCH   1  20
TORSDOF 5
ENDMDL
MODEL 2
REMARK VINA RESULT:      -2.1      2.970      5.857
REMARK  5 active torsions:
REMARK  status: ('A' for Active; 'I' for Inactive)
REMARK    1  A    between atoms: C_12  and  N_1 
REMARK    2  A    between atoms: N_7  and  C_5 
REMARK    3  A    between atoms: C_10  and  N_7 
REMARK    4  A    between atoms: O_14  and  C_13 
REMARK    5  A    between atoms: C_19  and  O_14 
ROOT
ATOM      1  N   UNL d   1      32.778  22.986 -19.536  0.00  0.00    -0.212 N 
ATOM      2  C   UNL d   1      32.591  22.341 -20.017  0.00  0.00     0.170 A 
ATOM      3  C   UNL d   1      32.870  22.502 -20.777  0.00  0.00     0.093 A 
ATOM      4  N   UNL d   1      33.175  23.546 -20.001  0.00  0.00    -0.162 NA
ATOM      5  C   UNL d   1      32.761  21.949 -21.385  0.00  0.00     0.169 A 
ATOM      6  C   UNL d   1      33.229  23.242 -20.768  0.00  0.00     0.127 A 
ATOM      7  N   UNL d   1      32.200  21.627 -19.854  0.00  0.00    -0.205 NA
ATOM      8  N   UNL d   1      32.370  21.235 -21.223  0.00  0.00    -0.205 NA
ATOM      9  C   UNL d   1      32.094  21.081 -20.461  0.00  0.00     0.202 A 
ENDROOT
BRANCH   5  10
ATOM     10  N   UNL d   1      33.035  22.100 -22.140  0.00  0.00    -0.225 NA
BRANCH  10  11
ATOM     11  C   UNL d   1      33.101  21.494 -22.682  0.00  0.00     0.106 A 
ATOM     12  C   UNL d   1      33.101  21.652 -23.496  0.00  0.00     0.118 A 
ATOM     13  C   UNL d   1      33.167  21.048 -24.039  0.00  0.00     0.026 A 
ATOM     14  C   UNL d   1      33.237  20.259 -23.769  0.00  0.00     0.002 A 
ATOM     15  C   UNL d   1      33.239  20.096 -22.976  0.00  0.00     0.002 A 
ATOM     16  C   UNL d   1      33.171  20.713 -22.424  0.00  0.00     0.021 A 
BRANCH  12  17
ATOM     17  O   UNL d   1      33.031  22.433 -23.754  0.00  0.00    -0.304 OA
BRANCH  17  18
ATOM     18  C   UNL d   1      33.167  22.619 -24.551  0.00  0.00     0.123 C 
ATOM     19  C   UNL d   1      33.224  23.405 -24.783  0.00  0.00     0.029 C 
ENDBRANCH  17  18
ENDBRANCH  12  17
ENDBRANCH  10  11
ENDBRANCH   5  10
BRANCH   1  20
ATOM     20  C   UNL d   1      32.602  23.060 -18.731  0.00  0.00     0.085 A 
ATOM     21  C   UNL d   1      33.127  22.757 -18.166  0.00  0.00     0.019 A 
ATOM     22  C   UNL d   1      32.953  22.831 -17.366  0.00  0.00     0.002 A 
ATOM     23  C   UNL d   1      32.252  23.208 -17.124  0.00  0.00     0.000 A 
ATOM     24  C   UNL d   1      31.734  23.507 -17.685  0.00  0.00     0.002 A 
ATOM     25  C   UNL d   1      31.901  23.438 -18.490  0.00  0.00     0.019 A 
ENDBRANCH   1  20
TORSDOF 5
ENDMDL
MODEL 3
REMARK VINA RESULT:      -1.3      1.705      2.610
REMARK  5 active torsions:
REMARK  status: ('A' for Active; 'I' for Inactive)
REMARK    1  A    between atoms: C_12  and  N_1 
REMARK    2  A    between atoms: N_7  and  C_5 
REMARK    3  A    between atoms: C_10  and  N_7 
REMARK    4  A    between atoms: O_14  and  C_13 
REMARK    5  A    between atoms: C_19  and  O_14 
ROOT
ATOM      1  N   UNL d   1      29.632  16.952 -24.320  0.00  0.00    -0.212 N 
ATOM      2  C   UNL d   1      30.381  16.811 -24.003  0.00  0.00     0.170 A 
ATOM      3  C   UNL d   1      30.886  17.408 -24.266  0.00  0.00     0.093 A 
ATOM      4  N   UNL d   1      29.676  17.641 -24.782  0.00  0.00    -0.162 NA
ATOM      5  C   UNL d   1      31.683  17.412 -24.034  0.00  0.00     0.169 A 
ATOM      6  C   UNL d   1      30.453  17.919 -24.744  0.00  0.00     0.127 A 
ATOM      7  N   UNL d   1      30.664  16.210 -23.505  0.00  0.00    -0.205 NA
ATOM      8  N   UNL d   1      31.966  16.811 -23.537  0.00  0.00    -0.205 NA
ATOM      9  C   UNL d   1      31.455  16.217 -23.278  0.00  0.00     0.202 A 
ENDROOT
BRANCH   5  10
ATOM     10  N   UNL d   1      32.189  18.000 -24.290  0.00  0.00    -0.225 NA
BRANCH  10  11
ATOM     11  C   UNL d   1      32.538  18.504 -23.752  0.00  0.00     0.106 A 
ATOM     12  C   UNL d   1      32.887  19.213 -24.002  0.00  0.00     0.118 A 
ATOM     13  C   UNL d   1      33.236  19.718 -23.467  0.00  0.00     0.026 A 
ATOM     14  C   UNL d   1      33.241  19.517 -22.654  0.00  0.00     0.002 A 
ATOM     15  C   UNL d   1      32.902  18.827 -22.402  0.00  0.00     0.002 A 
ATOM     16  C   UNL d   1      32.546  18.313 -22.949  0.00  0.00     0.021 A 
BRANCH  12  17
ATOM     17  O   UNL d   1      32.879  19.405 -24.805  0.00  0.00    -0.304 OA
BRANCH  17  18
ATOM     18  C   UNL d   1      33.241  20.104 -25.067  0.00  0.00     0.123 C 
ATOM     19  C   UNL d   1      32.807  20.802 -25.096  0.00  0.00     0.029 C 
ENDBRANCH  17  18
ENDBRANCH  12  17
ENDBRANCH  10  11
ENDBRANCH   5  10
BRANCH   1  20
ATOM     20  C   UNL d   1      28.957  16.490 -24.200  0.00  0.00     0.085 A 
ATOM     21  C   UNL d   1      28.496  16.604 -23.521  0.00  0.00     0.019 A 
ATOM     22  C   UNL d   1      27.825  16.146 -23.401  0.00  0.00     0.002 A 
ATOM     23  C   UNL d   1      27.608  15.568 -23.960  0.00  0.00     0.000 A 
ATOM     24  C   UNL d   1      28.066  15.456 -24.631  0.00  0.00     0.002 A 
ATOM     25  C   UNL d   1      28.741  15.913 -24.759  0.00  0.00     0.019 A 
ENDBRANCH   1  20
TORSDOF 5
ENDMDL
MODEL 4
REMARK VINA RESULT:       0.3      2.017      5.274
REMARK  5 active torsions:
REMARK  status: ('A' for Active; 'I' for Inactive)
REMARK    1  A    between atoms: C_12  and  N_1 
REMARK    2  A    between atoms: N_7  and  C_5 
REMARK    3  A    between atoms: C_10  and  N_7 
REMARK    4  A    between atoms: O_14  and  C_13 
REMARK    5  A    between atoms: C_19  and  O_14 
ROOT
ATOM      1  N   UNL d   1      32.670  22.435 -20.652  0.00  0.00    -0.212 N 
ATOM      2  C   UNL d   1      32.844  21.634 -20.755  0.00  0.00     0.170 A 
ATOM      3  C   UNL d   1      32.951  21.499 -21.562  0.00  0.00     0.093 A 
ATOM      4  N   UNL d   1      32.670  22.795 -21.400  0.00  0.00    -0.162 NA
ATOM      5  C   UNL d   1      33.134  20.737 -21.836  0.00  0.00     0.169 A 
ATOM      6  C   UNL d   1      32.844  22.211 -21.959  0.00  0.00     0.127 A 
ATOM      7  N   UNL d   1      32.919  21.012 -20.211  0.00  0.00    -0.205 NA
ATOM      8  N   UNL d   1      33.208  20.115 -21.291  0.00  0.00    -0.205 NA
ATOM      9  C   UNL d   1      33.100  20.258 -20.486  0.00  0.00     0.202 A 
ENDROOT
BRANCH   5  10
ATOM     10  N   UNL d   1      33.241  20.595 -22.633  0.00  0.00    -0.225 NA
BRANCH  10  11
ATOM     11  C   UNL d   1      33.047  19.869 -22.950  0.00  0.00     0.106 A 
ATOM     12  C   UNL d   1      33.025  19.759 -23.772  0.00  0.00     0.118 A 
ATOM     13  C   UNL d   1      32.832  19.034 -24.091  0.00  0.00     0.026 A 
ATOM     14  C   UNL d   1      32.654  18.395 -23.581  0.00  0.00     0.002 A 
ATOM     15  C   UNL d   1      32.673  18.495 -22.778  0.00  0.00     0.002 A 
ATOM     16  C   UNL d   1      32.871  19.234 -22.454  0.00  0.00     0.021 A 
BRANCH  12  17
ATOM     17  O   UNL d   1      33.202  20.394 -24.268  0.00  0.00    -0.304 OA
BRANCH  17  18
ATOM     18  C   UNL d   1      32.718  20.554 -24.923  0.00  0.00     0.123 C 
ATOM     19  C   UNL d   1      32.510  21.330 -25.096  0.00  0.00     0.029 C 
ENDBRANCH  17  18
ENDBRANCH  12  17
ENDBRANCH  10  11
ENDBRANCH   5  10
BRANCH   1  20
ATOM     20  C   UNL d   1      32.523  22.812 -19.931  0.00  0.00     0.085 A 
ATOM     21  C   UNL d   1      33.156  23.024 -19.441  0.00  0.00     0.019 A 
ATOM     22  C   UNL d   1      33.011  23.399 -18.724  0.00  0.00     0.002 A 
ATOM     23  C   UNL d   1      32.229  23.566 -18.492  0.00  0.00     0.000 A 
ATOM     24  C   UNL d   1      31.603  23.356 -18.979  0.00  0.00     0.002 A 
ATOM     25  C   UNL d   1      31.741  22.979 -19.699  0.00  0.00     0.019 A 
ENDBRANCH   1  20
TORSDOF 5
ENDMDL
