MODEL 1
REMARK VINA RESULT:      36.3      0.000      0.000
REMARK  3 active torsions:
REMARK  status: ('A' for Active; 'I' for Inactive)
REMARK    1  A    between atoms: C_6  and  N_1 
REMARK    2  A    between atoms: C_11  and  C_6 
REMARK    3  A    between atoms: C_9  and  C_11 
ROOT
ATOM      1  N   UNL d   1     -56.509 -98.994 -43.961  0.00  0.00    -0.240 N 
ATOM      2  C   UNL d   1     -56.979 -98.960 -44.633  0.00  0.00     0.267 A 
ATOM      3  C   UNL d   1     -57.007 -98.945 -43.307  0.00  0.00     0.267 A 
ATOM      4  C   UNL d   1     -57.763 -98.890 -44.397  0.00  0.00     0.061 A 
ATOM      5  C   UNL d   1     -57.780 -98.880 -43.573  0.00  0.00     0.061 A 
ATOM      6  O   UNL d   1     -56.677 -98.994 -45.428  0.00  0.00    -0.267 OA
ATOM      7  O   UNL d   1     -56.737 -98.961 -42.518  0.00  0.00    -0.267 OA
ATOM      8  C   UNL d   1     -58.482 -98.816 -43.192  0.00  0.00     0.005 A 
ATOM      9  C   UNL d   1     -58.448 -98.834 -44.828  0.00  0.00     0.005 A 
ATOM     10  C   UNL d   1     -59.178 -98.767 -44.428  0.00  0.00     0.000 A 
ATOM     11  C   UNL d   1     -59.195 -98.758 -43.603  0.00  0.00     0.000 A 
ENDROOT
BRANCH   1  12
ATOM     12  C   UNL d   1     -55.687 -99.066 -43.944  0.00  0.00     0.086 C 
BRANCH  12  13
ATOM     13  C   UNL d   1     -55.327 -99.690 -43.532  0.00  0.00     0.019 C 
BRANCH  13  14
ATOM     14  C   UNL d   1     -55.126-100.377 -43.941  0.00  0.00     0.002 A 
ATOM     15  C   UNL d   1     -55.126-100.391 -44.749  0.00  0.00     0.000 A 
ATOM     16  C   UNL d   1     -54.921-101.090 -45.162  0.00  0.00     0.000 A 
ATOM     17  C   UNL d   1     -54.716-101.775 -44.739  0.00  0.00     0.000 A 
ATOM     18  C   UNL d   1     -54.717-101.755 -43.932  0.00  0.00     0.000 A 
ATOM     19  C   UNL d   1     -54.921-101.060 -43.515  0.00  0.00     0.000 A 
ENDBRANCH  13  14
ENDBRANCH  12  13
ENDBRANCH   1  12
TORSDOF 3
ENDMDL
MODEL 2
REMARK VINA RESULT:      38.7      4.789      6.155
REMARK  3 active torsions:
REMARK  status: ('A' for Active; 'I' for Inactive)
REMARK    1  A    between atoms: C_6  and  N_1 
REMARK    2  A    between atoms: C_11  and  C_6 
REMARK    3  A    between atoms: C_9  and  C_11 
ROOT
ATOM      1  N   UNL d   1     -54.770-101.336 -38.956  0.00  0.00    -0.240 N 
ATOM      2  C   UNL d   1     -54.797-100.915 -38.252  0.00  0.00     0.267 A 
ATOM      3  C   UNL d   1     -54.776-102.137 -38.766  0.00  0.00     0.267 A 
ATOM      4  C   UNL d   1     -54.821-101.451 -37.629  0.00  0.00     0.061 A 
ATOM      5  C   UNL d   1     -54.807-102.211 -37.949  0.00  0.00     0.061 A 
ATOM      6  O   UNL d   1     -54.800-100.065 -38.205  0.00  0.00    -0.267 OA
ATOM      7  O   UNL d   1     -54.753-102.747 -39.334  0.00  0.00    -0.267 OA
ATOM      8  C   UNL d   1     -54.825-102.846 -37.462  0.00  0.00     0.005 A 
ATOM      9  C   UNL d   1     -54.852-101.338 -36.827  0.00  0.00     0.005 A 
ATOM     10  C   UNL d   1     -54.870-102.002 -36.322  0.00  0.00     0.000 A 
ATOM     11  C   UNL d   1     -54.857-102.762 -36.642  0.00  0.00     0.000 A 
ENDROOT
BRANCH   1  12
ATOM     12  C   UNL d   1     -54.741-101.016 -39.716  0.00  0.00     0.086 C 
BRANCH  12  13
ATOM     13  C   UNL d   1     -54.840-101.501 -40.381  0.00  0.00     0.019 C 
BRANCH  13  14
ATOM     14  C   UNL d   1     -54.798-101.165 -41.132  0.00  0.00     0.002 A 
ATOM     15  C   UNL d   1     -54.798-100.363 -41.226  0.00  0.00     0.000 A 
ATOM     16  C   UNL d   1     -54.755-100.023 -41.991  0.00  0.00     0.000 A 
ATOM     17  C   UNL d   1     -54.712-100.515 -42.660  0.00  0.00     0.000 A 
ATOM     18  C   UNL d   1     -54.713-101.316 -42.560  0.00  0.00     0.000 A 
ATOM     19  C   UNL d   1     -54.755-101.659 -41.800  0.00  0.00     0.000 A 
ENDBRANCH  13  14
ENDBRANCH  12  13
ENDBRANCH   1  12
TORSDOF 3
ENDMDL
