MODEL 1
REMARK VINA RESULT:      -9.7      0.000      0.000
REMARK  3 active torsions:
REMARK  status: ('A' for Active; 'I' for Inactive)
REMARK    1  A    between atoms: C_11  and  C_6 
REMARK    2  A    between atoms: O_20  and  C_11 
REMARK    3  A    between atoms: C_22  and  O_20 
ROOT
ATOM      1  C   UNL d   1      52.914  32.589  53.502  0.00  0.00     0.155 A 
ATOM      2  C   UNL d   1      53.452  32.389  54.095  0.00  0.00     0.091 A 
ATOM      3  N   UNL d   1      52.671  33.370  53.413  0.00  0.00    -0.210 NA
ATOM      4  N   UNL d   1      53.503  33.752  54.508  0.00  0.00    -0.258 N 
ATOM      5  N   UNL d   1      52.620  32.007  52.999  0.00  0.00    -0.272 N 
ATOM      6  C   UNL d   1      53.401  31.018  53.679  0.00  0.00     0.100 A 
ATOM      7  C   UNL d   1      52.965  33.944  53.914  0.00  0.00     0.152 A 
ATOM      8  C   UNL d   1      53.747  32.970  54.598  0.00  0.00     0.269 A 
ATOM      9  C   UNL d   1      52.863  31.218  53.086  0.00  0.00     0.176 A 
ATOM     10  C   UNL d   1      53.698  31.606  54.187  0.00  0.00     0.016 A 
ATOM     11  C   UNL d   1      52.722  34.733  53.827  0.00  0.00     0.035 A 
ATOM     12  C   UNL d   1      53.798  34.333  55.012  0.00  0.00     0.084 A 
ATOM     13  N   UNL d   1      52.568  30.633  52.582  0.00  0.00    -0.128 N 
ATOM     14  O   UNL d   1      54.285  32.770  55.191  0.00  0.00    -0.266 OA
ATOM     15  C   UNL d   1      53.554  35.106  54.919  0.00  0.00     0.019 A 
ATOM     16  C   UNL d   1      53.015  35.306  54.327  0.00  0.00     0.005 A 
ATOM     17  C   UNL d   1      52.082  32.207  52.407  0.00  0.00     0.102 C 
ATOM     18  C   UNL d   1      52.184  34.932  53.234  0.00  0.00     0.003 C 
ENDROOT
BRANCH   6  19
ATOM     19  C   UNL d   1      53.644  30.233  53.767  0.00  0.00     0.303 C 
ATOM     20  O   UNL d   1      54.240  29.929  53.284  0.00  0.00    -0.259 OA
BRANCH  19  21
ATOM     21  O   UNL d   1      53.292  29.755  54.339  0.00  0.00    -0.271 OA
BRANCH  21  22
ATOM     22  C   UNL d   1      53.609  29.014  54.504  0.00  0.00     0.126 C 
ATOM     23  C   UNL d   1      53.312  28.572  55.133  0.00  0.00     0.029 C 
ENDBRANCH  21  22
ENDBRANCH  19  21
ENDBRANCH   6  19
TORSDOF 3
ENDMDL
MODEL 2
REMARK VINA RESULT:      -8.3      1.281      1.911
REMARK  3 active torsions:
REMARK  status: ('A' for Active; 'I' for Inactive)
REMARK    1  A    between atoms: C_11  and  C_6 
REMARK    2  A    between atoms: O_20  and  C_11 
REMARK    3  A    between atoms: C_22  and  O_20 
ROOT
ATOM      1  C   UNL d   1      52.975  32.639  53.315  0.00  0.00     0.155 A 
ATOM      2  C   UNL d   1      52.316  32.144  53.286  0.00  0.00     0.091 A 
ATOM      3  N   UNL d   1      52.881  33.455  53.263  0.00  0.00    -0.210 NA
ATOM      4  N   UNL d   1      51.468  33.282  53.152  0.00  0.00    -0.258 N 
ATOM      5  N   UNL d   1      53.729  32.317  53.397  0.00  0.00    -0.272 N 
ATOM      6  C   UNL d   1      53.169  31.000  53.421  0.00  0.00     0.100 A 
ATOM      7  C   UNL d   1      52.132  33.770  53.182  0.00  0.00     0.152 A 
ATOM      8  C   UNL d   1      51.562  32.465  53.204  0.00  0.00     0.269 A 
ATOM      9  C   UNL d   1      53.828  31.495  53.450  0.00  0.00     0.176 A 
ATOM     10  C   UNL d   1      52.407  31.325  53.338  0.00  0.00     0.016 A 
ATOM     11  C   UNL d   1      52.033  34.592  53.129  0.00  0.00     0.035 A 
ATOM     12  C   UNL d   1      50.714  33.602  53.070  0.00  0.00     0.084 A 
ATOM     13  N   UNL d   1      54.584  31.170  53.533  0.00  0.00    -0.128 N 
ATOM     14  O   UNL d   1      50.903  31.970  53.175  0.00  0.00    -0.266 OA
ATOM     15  C   UNL d   1      50.626  34.412  53.018  0.00  0.00     0.019 A 
ATOM     16  C   UNL d   1      51.285  34.907  53.048  0.00  0.00     0.005 A 
ATOM     17  C   UNL d   1      54.388  32.812  53.427  0.00  0.00     0.102 C 
ATOM     18  C   UNL d   1      52.693  35.087  53.158  0.00  0.00     0.003 C 
ENDROOT
BRANCH   6  19
ATOM     19  C   UNL d   1      53.265  30.180  53.474  0.00  0.00     0.303 C 
ATOM     20  O   UNL d   1      53.337  29.729  52.787  0.00  0.00    -0.259 OA
BRANCH  19  21
ATOM     21  O   UNL d   1      53.289  29.816  54.212  0.00  0.00    -0.271 OA
BRANCH  21  22
ATOM     22  C   UNL d   1      53.243  28.996  54.265  0.00  0.00     0.126 C 
ATOM     23  C   UNL d   1      53.332  28.627  54.997  0.00  0.00     0.029 C 
ENDBRANCH  21  22
ENDBRANCH  19  21
ENDBRANCH   6  19
TORSDOF 3
ENDMDL
MODEL 3
REMARK VINA RESULT:      -8.1      2.307      3.894
REMARK  3 active torsions:
REMARK  status: ('A' for Active; 'I' for Inactive)
REMARK    1  A    between atoms: C_11  and  C_6 
REMARK    2  A    between atoms: O_20  and  C_11 
REMARK    3  A    between atoms: C_22  and  O_20 
ROOT
ATOM      1  C   UNL d   1      52.250  33.310  53.642  0.00  0.00     0.155 A 
ATOM      2  C   UNL d   1      52.207  34.132  53.692  0.00  0.00     0.091 A 
ATOM      3  N   UNL d   1      52.891  32.910  53.968  0.00  0.00    -0.210 NA
ATOM      4  N   UNL d   1      53.447  34.154  54.394  0.00  0.00    -0.258 N 
ATOM      5  N   UNL d   1      51.651  32.888  53.266  0.00  0.00    -0.272 N 
ATOM      6  C   UNL d   1      50.960  34.109  52.985  0.00  0.00     0.100 A 
ATOM      7  C   UNL d   1      53.483  33.332  54.340  0.00  0.00     0.152 A 
ATOM      8  C   UNL d   1      52.805  34.555  54.067  0.00  0.00     0.269 A 
ATOM      9  C   UNL d   1      51.002  33.287  52.936  0.00  0.00     0.176 A 
ATOM     10  C   UNL d   1      51.565  34.536  53.365  0.00  0.00     0.016 A 
ATOM     11  C   UNL d   1      54.131  32.932  54.670  0.00  0.00     0.035 A 
ATOM     12  C   UNL d   1      54.045  34.577  54.769  0.00  0.00     0.084 A 
ATOM     13  N   UNL d   1      50.401  32.865  52.558  0.00  0.00    -0.128 N 
ATOM     14  O   UNL d   1      52.762  35.377  54.117  0.00  0.00    -0.266 OA
ATOM     15  C   UNL d   1      54.679  34.176  55.091  0.00  0.00     0.019 A 
ATOM     16  C   UNL d   1      54.722  33.354  55.042  0.00  0.00     0.005 A 
ATOM     17  C   UNL d   1      51.694  32.065  53.217  0.00  0.00     0.102 C 
ATOM     18  C   UNL d   1      54.173  32.110  54.621  0.00  0.00     0.003 C 
ENDROOT
BRANCH   6  19
ATOM     19  C   UNL d   1      50.315  34.510  52.657  0.00  0.00     0.303 C 
ATOM     20  O   UNL d   1      50.236  34.562  51.837  0.00  0.00    -0.259 OA
BRANCH  19  21
ATOM     21  O   UNL d   1      49.752  34.857  53.149  0.00  0.00    -0.271 OA
BRANCH  21  22
ATOM     22  C   UNL d   1      49.133  35.288  52.822  0.00  0.00     0.126 C 
ATOM     23  C   UNL d   1      48.594  35.669  53.315  0.00  0.00     0.029 C 
ENDBRANCH  21  22
ENDBRANCH  19  21
ENDBRANCH   6  19
TORSDOF 3
ENDMDL
MODEL 4
REMARK VINA RESULT:      -7.7      2.281      4.312
REMARK  3 active torsions:
REMARK  status: ('A' for Active; 'I' for Inactive)
REMARK    1  A    between atoms: C_11  and  C_6 
REMARK    2  A    between atoms: O_20  and  C_11 
REMARK    3  A    between atoms: C_22  and  O_20 
ROOT
ATOM      1  C   UNL d   1      52.436  33.539  53.369  0.00  0.00     0.155 A 
ATOM      2  C   UNL d   1      51.863  33.009  53.103  0.00  0.00     0.091 A 
ATOM      3  N   UNL d   1      53.181  33.265  53.587  0.00  0.00    -0.210 NA
ATOM      4  N   UNL d   1      52.780  31.932  53.271  0.00  0.00    -0.258 N 
ATOM      5  N   UNL d   1      52.263  34.342  53.418  0.00  0.00    -0.272 N 
ATOM      6  C   UNL d   1      50.939  34.093  52.933  0.00  0.00     0.100 A 
ATOM      7  C   UNL d   1      53.348  32.468  53.537  0.00  0.00     0.152 A 
ATOM      8  C   UNL d   1      52.034  32.205  53.053  0.00  0.00     0.269 A 
ATOM      9  C   UNL d   1      51.512  34.623  53.200  0.00  0.00     0.176 A 
ATOM     10  C   UNL d   1      51.114  33.280  52.884  0.00  0.00     0.016 A 
ATOM     11  C   UNL d   1      54.098  32.188  53.755  0.00  0.00     0.035 A 
ATOM     12  C   UNL d   1      52.952  31.128  53.222  0.00  0.00     0.084 A 
ATOM     13  N   UNL d   1      51.337  35.429  53.248  0.00  0.00    -0.128 N 
ATOM     14  O   UNL d   1      51.461  31.675  52.787  0.00  0.00    -0.266 OA
ATOM     15  C   UNL d   1      53.692  30.862  53.439  0.00  0.00     0.019 A 
ATOM     16  C   UNL d   1      54.265  31.392  53.705  0.00  0.00     0.005 A 
ATOM     17  C   UNL d   1      52.836  34.873  53.685  0.00  0.00     0.102 C 
ATOM     18  C   UNL d   1      54.671  32.719  54.022  0.00  0.00     0.003 C 
ENDROOT
BRANCH   6  19
ATOM     19  C   UNL d   1      50.191  34.368  52.715  0.00  0.00     0.303 C 
ATOM     20  O   UNL d   1      49.667  34.640  53.292  0.00  0.00    -0.259 OA
BRANCH  19  21
ATOM     21  O   UNL d   1      49.969  34.371  51.921  0.00  0.00    -0.271 OA
BRANCH  21  22
ATOM     22  C   UNL d   1      49.186  34.520  51.716  0.00  0.00     0.126 C 
ATOM     23  C   UNL d   1      48.964  34.524  50.923  0.00  0.00     0.029 C 
ENDBRANCH  21  22
ENDBRANCH  19  21
ENDBRANCH   6  19
TORSDOF 3
ENDMDL
MODEL 5
REMARK VINA RESULT:      -7.4      1.383      4.027
REMARK  3 active torsions:
REMARK  status: ('A' for Active; 'I' for Inactive)
REMARK    1  A    between atoms: C_11  and  C_6 
REMARK    2  A    between atoms: O_20  and  C_11 
REMARK    3  A    between atoms: C_22  and  O_20 
ROOT
ATOM      1  C   UNL d   1      52.323  32.314  53.263  0.00  0.00     0.155 A 
ATOM      2  C   UNL d   1      53.078  32.591  53.447  0.00  0.00     0.091 A 
ATOM      3  N   UNL d   1      52.182  31.506  53.208  0.00  0.00    -0.210 NA
ATOM      4  N   UNL d   1      53.552  31.250  53.522  0.00  0.00    -0.258 N 
ATOM      5  N   UNL d   1      51.709  32.848  53.133  0.00  0.00    -0.272 N 
ATOM      6  C   UNL d   1      52.601  33.942  53.371  0.00  0.00     0.100 A 
ATOM      7  C   UNL d   1      52.794  30.980  53.338  0.00  0.00     0.152 A 
ATOM      8  C   UNL d   1      53.693  32.060  53.576  0.00  0.00     0.269 A 
ATOM      9  C   UNL d   1      51.846  33.665  53.187  0.00  0.00     0.176 A 
ATOM     10  C   UNL d   1      53.222  33.403  53.502  0.00  0.00     0.016 A 
ATOM     11  C   UNL d   1      52.656  30.164  53.284  0.00  0.00     0.035 A 
ATOM     12  C   UNL d   1      54.166  30.718  53.652  0.00  0.00     0.084 A 
ATOM     13  N   UNL d   1      51.231  34.201  53.057  0.00  0.00    -0.128 N 
ATOM     14  O   UNL d   1      54.448  32.336  53.760  0.00  0.00    -0.266 OA
ATOM     15  C   UNL d   1      54.022  29.916  53.597  0.00  0.00     0.019 A 
ATOM     16  C   UNL d   1      53.267  29.639  53.413  0.00  0.00     0.005 A 
ATOM     17  C   UNL d   1      50.954  32.571  52.949  0.00  0.00     0.102 C 
ATOM     18  C   UNL d   1      51.901  29.887  53.100  0.00  0.00     0.003 C 
ENDROOT
BRANCH   6  19
ATOM     19  C   UNL d   1      52.741  34.754  53.425  0.00  0.00     0.303 C 
ATOM     20  O   UNL d   1      52.867  35.198  52.741  0.00  0.00    -0.259 OA
BRANCH  19  21
ATOM     21  O   UNL d   1      52.754  35.121  54.163  0.00  0.00    -0.271 OA
BRANCH  21  22
ATOM     22  C   UNL d   1      53.167  35.827  54.262  0.00  0.00     0.126 C 
ATOM     23  C   UNL d   1      53.127  36.227  54.981  0.00  0.00     0.029 C 
ENDBRANCH  21  22
ENDBRANCH  19  21
ENDBRANCH   6  19
TORSDOF 3
ENDMDL
