MODEL 1
REMARK VINA RESULT:      -4.0      0.000      0.000
REMARK  1 active torsions:
REMARK  status: ('A' for Active; 'I' for Inactive)
REMARK    1  A    between atoms: C_8  and  C_2 
ROOT
ATOM      1  N   UNL d   1     -41.516-121.497 -50.769  0.00  0.00    -0.191 NA
ATOM      2  C   UNL d   1     -41.558-122.299 -50.859  0.00  0.00     0.087 A 
ATOM      3  C   UNL d   1     -41.339-121.021 -51.434  0.00  0.00     0.369 A 
ATOM      4  N   UNL d   1     -41.206-121.355 -52.176  0.00  0.00    -0.191 NA
ATOM      5  C   UNL d   1     -41.432-122.661 -51.581  0.00  0.00     0.036 A 
ATOM      6  C   UNL d   1     -41.255-122.185 -52.246  0.00  0.00     0.088 A 
ATOM      7  O   UNL d   1     -41.290-120.195 -51.366  0.00  0.00    -0.242 OA
ATOM      8  C   UNL d   1     -41.474-123.464 -51.671  0.00  0.00     0.003 A 
ATOM      9  C   UNL d   1     -41.123-122.520 -52.988  0.00  0.00     0.019 A 
ATOM     10  C   UNL d   1     -41.349-123.817 -52.388  0.00  0.00     0.000 A 
ATOM     11  C   UNL d   1     -41.172-123.341 -53.052  0.00  0.00     0.002 A 
ENDROOT
BRANCH   2  12
ATOM     12  C   UNL d   1     -41.736-122.777 -50.194  0.00  0.00     0.018 A 
ATOM     13  C   UNL d   1     -41.130-123.081 -49.754  0.00  0.00     0.002 A 
ATOM     14  C   UNL d   1     -41.309-123.564 -49.080  0.00  0.00     0.000 A 
ATOM     15  C   UNL d   1     -42.083-123.708 -48.894  0.00  0.00     0.000 A 
ATOM     16  C   UNL d   1     -42.699-123.402 -49.336  0.00  0.00     0.000 A 
ATOM     17  C   UNL d   1     -42.519-122.920 -50.009  0.00  0.00     0.002 A 
ENDBRANCH   2  12
TORSDOF 1
ENDMDL
MODEL 2
REMARK VINA RESULT:      -3.6      1.792      3.512
REMARK  1 active torsions:
REMARK  status: ('A' for Active; 'I' for Inactive)
REMARK    1  A    between atoms: C_8  and  C_2 
ROOT
ATOM      1  N   UNL d   1     -43.306-123.264 -50.148  0.00  0.00    -0.191 NA
ATOM      2  C   UNL d   1     -42.537-123.088 -49.973  0.00  0.00     0.087 A 
ATOM      3  C   UNL d   1     -43.785-123.626 -49.564  0.00  0.00     0.369 A 
ATOM      4  N   UNL d   1     -43.485-123.804 -48.816  0.00  0.00    -0.191 NA
ATOM      5  C   UNL d   1     -42.211-123.251 -49.241  0.00  0.00     0.036 A 
ATOM      6  C   UNL d   1     -42.689-123.613 -48.658  0.00  0.00     0.088 A 
ATOM      7  O   UNL d   1     -44.578-123.817 -49.720  0.00  0.00    -0.242 OA
ATOM      8  C   UNL d   1     -41.441-123.074 -49.066  0.00  0.00     0.003 A 
ATOM      9  C   UNL d   1     -42.389-123.791 -47.910  0.00  0.00     0.019 A 
ATOM     10  C   UNL d   1     -41.123-123.238 -48.342  0.00  0.00     0.000 A 
ATOM     11  C   UNL d   1     -41.601-123.600 -47.758  0.00  0.00     0.002 A 
ENDROOT
BRANCH   2  12
ATOM     12  C   UNL d   1     -42.058-122.726 -50.557  0.00  0.00     0.018 A 
ATOM     13  C   UNL d   1     -41.637-123.192 -51.066  0.00  0.00     0.002 A 
ATOM     14  C   UNL d   1     -41.152-122.826 -51.657  0.00  0.00     0.000 A 
ATOM     15  C   UNL d   1     -41.123-122.019 -51.698  0.00  0.00     0.000 A 
ATOM     16  C   UNL d   1     -41.547-121.543 -51.187  0.00  0.00     0.000 A 
ATOM     17  C   UNL d   1     -42.032-121.910 -50.595  0.00  0.00     0.002 A 
ENDBRANCH   2  12
TORSDOF 1
ENDMDL
MODEL 3
REMARK VINA RESULT:      -3.6      1.140      3.153
REMARK  1 active torsions:
REMARK  status: ('A' for Active; 'I' for Inactive)
REMARK    1  A    between atoms: C_8  and  C_2 
ROOT
ATOM      1  N   UNL d   1     -41.397-121.093 -52.604  0.00  0.00    -0.191 NA
ATOM      2  C   UNL d   1     -41.483-121.878 -52.779  0.00  0.00     0.087 A 
ATOM      3  C   UNL d   1     -41.216-120.868 -51.818  0.00  0.00     0.369 A 
ATOM      4  N   UNL d   1     -41.124-121.432 -51.223  0.00  0.00    -0.191 NA
ATOM      5  C   UNL d   1     -41.398-122.460 -52.212  0.00  0.00     0.036 A 
ATOM      6  C   UNL d   1     -41.217-122.235 -51.426  0.00  0.00     0.088 A 
ATOM      7  O   UNL d   1     -41.124-120.069 -51.613  0.00  0.00    -0.242 OA
ATOM      8  C   UNL d   1     -41.483-123.245 -52.387  0.00  0.00     0.003 A 
ATOM      9  C   UNL d   1     -41.125-122.799 -50.831  0.00  0.00     0.019 A 
ATOM     10  C   UNL d   1     -41.398-123.817 -51.823  0.00  0.00     0.000 A 
ATOM     11  C   UNL d   1     -41.217-123.592 -51.037  0.00  0.00     0.002 A 
ENDROOT
BRANCH   2  12
ATOM     12  C   UNL d   1     -41.664-122.103 -53.565  0.00  0.00     0.018 A 
ATOM     13  C   UNL d   1     -41.140-122.564 -53.973  0.00  0.00     0.002 A 
ATOM     14  C   UNL d   1     -41.323-122.793 -54.769  0.00  0.00     0.000 A 
ATOM     15  C   UNL d   1     -42.017-122.543 -55.101  0.00  0.00     0.000 A 
ATOM     16  C   UNL d   1     -42.549-122.077 -54.692  0.00  0.00     0.000 A 
ATOM     17  C   UNL d   1     -42.366-121.849 -53.896  0.00  0.00     0.002 A 
ENDBRANCH   2  12
TORSDOF 1
ENDMDL
MODEL 4
REMARK VINA RESULT:      -1.9      1.342      3.097
REMARK  1 active torsions:
REMARK  status: ('A' for Active; 'I' for Inactive)
REMARK    1  A    between atoms: C_8  and  C_2 
ROOT
ATOM      1  N   UNL d   1     -43.161-122.493 -50.686  0.00  0.00    -0.191 NA
ATOM      2  C   UNL d   1     -42.443-122.863 -50.650  0.00  0.00     0.087 A 
ATOM      3  C   UNL d   1     -43.607-122.400 -49.984  0.00  0.00     0.369 A 
ATOM      4  N   UNL d   1     -43.327-122.679 -49.260  0.00  0.00    -0.191 NA
ATOM      5  C   UNL d   1     -42.138-123.150 -49.948  0.00  0.00     0.036 A 
ATOM      6  C   UNL d   1     -42.585-123.057 -49.246  0.00  0.00     0.088 A 
ATOM      7  O   UNL d   1     -44.347-122.024 -49.996  0.00  0.00    -0.242 OA
ATOM      8  C   UNL d   1     -41.420-123.520 -49.912  0.00  0.00     0.003 A 
ATOM      9  C   UNL d   1     -42.305-123.336 -48.522  0.00  0.00     0.019 A 
ATOM     10  C   UNL d   1     -41.123-123.803 -49.215  0.00  0.00     0.000 A 
ATOM     11  C   UNL d   1     -41.569-123.709 -48.513  0.00  0.00     0.002 A 
ENDROOT
BRANCH   2  12
ATOM     12  C   UNL d   1     -41.996-122.957 -51.352  0.00  0.00     0.018 A 
ATOM     13  C   UNL d   1     -41.581-122.326 -51.642  0.00  0.00     0.002 A 
ATOM     14  C   UNL d   1     -41.128-122.421 -52.353  0.00  0.00     0.000 A 
ATOM     15  C   UNL d   1     -41.123-123.139 -52.724  0.00  0.00     0.000 A 
ATOM     16  C   UNL d   1     -41.540-123.779 -52.435  0.00  0.00     0.000 A 
ATOM     17  C   UNL d   1     -41.993-123.685 -51.724  0.00  0.00     0.002 A 
ENDBRANCH   2  12
TORSDOF 1
ENDMDL
MODEL 5
REMARK VINA RESULT:      -1.1      1.672      3.547
REMARK  1 active torsions:
REMARK  status: ('A' for Active; 'I' for Inactive)
REMARK    1  A    between atoms: C_8  and  C_2 
ROOT
ATOM      1  N   UNL d   1     -41.918-123.104 -52.217  0.00  0.00    -0.191 NA
ATOM      2  C   UNL d   1     -41.743-122.415 -52.603  0.00  0.00     0.087 A 
ATOM      3  C   UNL d   1     -41.886-123.122 -51.381  0.00  0.00     0.369 A 
ATOM      4  N   UNL d   1     -41.679-122.451 -50.947  0.00  0.00    -0.191 NA
ATOM      5  C   UNL d   1     -41.535-121.734 -52.202  0.00  0.00     0.036 A 
ATOM      6  C   UNL d   1     -41.503-121.752 -51.366  0.00  0.00     0.088 A 
ATOM      7  O   UNL d   1     -42.061-123.817 -50.962  0.00  0.00    -0.242 OA
ATOM      8  C   UNL d   1     -41.360-121.046 -52.588  0.00  0.00     0.003 A 
ATOM      9  C   UNL d   1     -41.296-121.082 -50.932  0.00  0.00     0.019 A 
ATOM     10  C   UNL d   1     -41.155-120.374 -52.187  0.00  0.00     0.000 A 
ATOM     11  C   UNL d   1     -41.123-120.393 -51.351  0.00  0.00     0.002 A 
ENDROOT
BRANCH   2  12
ATOM     12  C   UNL d   1     -41.775-122.397 -53.441  0.00  0.00     0.018 A 
ATOM     13  C   UNL d   1     -41.160-122.705 -53.865  0.00  0.00     0.002 A 
ATOM     14  C   UNL d   1     -41.193-122.687 -54.713  0.00  0.00     0.000 A 
ATOM     15  C   UNL d   1     -41.838-122.361 -55.075  0.00  0.00     0.000 A 
ATOM     16  C   UNL d   1     -42.462-122.048 -54.650  0.00  0.00     0.000 A 
ATOM     17  C   UNL d   1     -42.429-122.067 -53.803  0.00  0.00     0.002 A 
ENDBRANCH   2  12
TORSDOF 1
ENDMDL
