MODEL 1
REMARK VINA RESULT:      -8.4      0.000      0.000
REMARK  6 active torsions:
REMARK  status: ('A' for Active; 'I' for Inactive)
REMARK    1  A    between atoms: S_2  and  C_1 
REMARK    2  A    between atoms: N_3  and  S_2 
REMARK    3  A    between atoms: C_17  and  N_3 
REMARK    4  A    between atoms: C_4  and  C_12 
REMARK    5  A    between atoms: O_20  and  C_4 
REMARK    6  A    between atoms: C_23  and  O_20 
ROOT
ATOM      1  S   UNL d   1     -48.780  12.722  22.885  0.00  0.00     0.153 S 
ATOM      2  O   UNL d   1     -48.620  12.180  22.310  0.00  0.00    -0.232 OA
ENDROOT
BRANCH   1   3
ATOM      3  C   UNL d   1     -49.457  12.799  22.685  0.00  0.00     0.108 A 
ATOM      4  C   UNL d   1     -49.462  12.426  23.321  0.00  0.00     0.023 A 
ATOM      5  C   UNL d   1     -50.283  12.260  23.521  0.00  0.00     0.024 A 
ATOM      6  C   UNL d   1     -51.009  12.368  23.262  0.00  0.00     0.009 A 
ATOM      7  C   UNL d   1     -49.766  12.549  23.080  0.00  0.00    -0.027 A 
ATOM      8  C   UNL d   1     -51.005  12.794  22.537  0.00  0.00     0.024 A 
ATOM      9  C   UNL d   1     -50.346  12.947  22.342  0.00  0.00     0.023 A 
ATOM     10  C   UNL d   1     -50.447  13.119  22.039  0.00  0.00    -0.027 A 
ATOM     11  C   UNL d   1     -49.734  13.013  22.293  0.00  0.00    -0.012 A 
ATOM     12  C   UNL d   1     -48.905  13.190  22.073  0.00  0.00    -0.013 A 
ENDBRANCH   1   3
BRANCH   1  13
ATOM     13  N   UNL d   1     -48.180  12.952  23.416  0.00  0.00    -0.185 NA
BRANCH  13  14
ATOM     14  C   UNL d   1     -47.405  12.645  23.327  0.00  0.00     0.091 A 
ATOM     15  C   UNL d   1     -47.206  11.906  23.696  0.00  0.00     0.020 A 
ATOM     16  C   UNL d   1     -46.479  11.618  23.612  0.00  0.00     0.007 A 
ATOM     17  C   UNL d   1     -45.913  12.026  23.171  0.00  0.00     0.064 A 
ATOM     18  C   UNL d   1     -46.094  12.745  22.807  0.00  0.00     0.007 A 
ATOM     19  C   UNL d   1     -46.849  13.044  22.894  0.00  0.00     0.020 A 
BRANCH  17  20
ATOM     20  C   UNL d   1     -45.131  11.703  23.088  0.00  0.00     0.300 C 
ATOM     21  O   UNL d   1     -44.581  12.098  22.622  0.00  0.00    -0.259 OA
BRANCH  20  22
ATOM     22  O   UNL d   1     -44.950  11.004  23.479  0.00  0.00    -0.271 OA
BRANCH  22  23
ATOM     23  C   UNL d   1     -44.190  10.687  23.370  0.00  0.00     0.126 C 
ATOM     24  C   UNL d   1     -44.022   9.941  23.698  0.00  0.00     0.029 C 
ENDBRANCH  22  23
ENDBRANCH  20  22
ENDBRANCH  17  20
ENDBRANCH  13  14
ENDBRANCH   1  13
TORSDOF 6
ENDMDL
MODEL 2
REMARK VINA RESULT:      -8.4      1.746      2.161
REMARK  6 active torsions:
REMARK  status: ('A' for Active; 'I' for Inactive)
REMARK    1  A    between atoms: S_2  and  C_1 
REMARK    2  A    between atoms: N_3  and  S_2 
REMARK    3  A    between atoms: C_17  and  N_3 
REMARK    4  A    between atoms: C_4  and  C_12 
REMARK    5  A    between atoms: O_20  and  C_4 
REMARK    6  A    between atoms: C_23  and  O_20 
ROOT
ATOM      1  S   UNL d   1     -49.014  14.299  22.889  0.00  0.00     0.153 S 
ATOM      2  O   UNL d   1     -48.902  13.720  23.438  0.00  0.00    -0.232 OA
ENDROOT
BRANCH   1   3
ATOM      3  C   UNL d   1     -49.691  14.405  23.074  0.00  0.00     0.108 A 
ATOM      4  C   UNL d   1     -49.334  15.038  23.198  0.00  0.00     0.023 A 
ATOM      5  C   UNL d   1     -49.903  15.604  23.508  0.00  0.00     0.024 A 
ATOM      6  C   UNL d   1     -50.655  15.674  23.698  0.00  0.00     0.009 A 
ATOM      7  C   UNL d   1     -49.723  14.935  23.252  0.00  0.00    -0.027 A 
ATOM      8  C   UNL d   1     -51.064  14.953  23.557  0.00  0.00     0.024 A 
ATOM      9  C   UNL d   1     -50.627  14.464  23.302  0.00  0.00     0.023 A 
ATOM     10  C   UNL d   1     -50.883  14.209  23.277  0.00  0.00    -0.027 A 
ATOM     11  C   UNL d   1     -50.145  14.140  23.090  0.00  0.00    -0.012 A 
ATOM     12  C   UNL d   1     -49.580  13.551  22.774  0.00  0.00    -0.013 A 
ENDBRANCH   1   3
BRANCH   1  13
ATOM     13  N   UNL d   1     -48.386  14.521  22.387  0.00  0.00    -0.185 NA
BRANCH  13  14
ATOM     14  C   UNL d   1     -47.661  14.102  22.418  0.00  0.00     0.091 A 
ATOM     15  C   UNL d   1     -47.042  14.382  22.928  0.00  0.00     0.020 A 
ATOM     16  C   UNL d   1     -46.361  13.988  22.957  0.00  0.00     0.007 A 
ATOM     17  C   UNL d   1     -46.246  13.312  22.500  0.00  0.00     0.064 A 
ATOM     18  C   UNL d   1     -46.840  13.029  22.000  0.00  0.00     0.007 A 
ATOM     19  C   UNL d   1     -47.547  13.438  21.970  0.00  0.00     0.020 A 
BRANCH  17  20
ATOM     20  C   UNL d   1     -45.505  12.897  22.541  0.00  0.00     0.300 C 
ATOM     21  O   UNL d   1     -45.341  12.432  23.199  0.00  0.00    -0.259 OA
BRANCH  20  22
ATOM     22  O   UNL d   1     -44.976  12.973  21.918  0.00  0.00    -0.271 OA
BRANCH  22  23
ATOM     23  C   UNL d   1     -44.226  12.625  22.005  0.00  0.00     0.126 C 
ATOM     24  C   UNL d   1     -43.612  12.881  21.506  0.00  0.00     0.029 C 
ENDBRANCH  22  23
ENDBRANCH  20  22
ENDBRANCH  17  20
ENDBRANCH  13  14
ENDBRANCH   1  13
TORSDOF 6
ENDMDL
MODEL 3
REMARK VINA RESULT:      -6.6      8.785      9.723
REMARK  6 active torsions:
REMARK  status: ('A' for Active; 'I' for Inactive)
REMARK    1  A    between atoms: S_2  and  C_1 
REMARK    2  A    between atoms: N_3  and  S_2 
REMARK    3  A    between atoms: C_17  and  N_3 
REMARK    4  A    between atoms: C_4  and  C_12 
REMARK    5  A    between atoms: O_20  and  C_4 
REMARK    6  A    between atoms: C_23  and  O_20 
ROOT
ATOM      1  S   UNL d   1     -39.765  14.899  21.017  0.00  0.00     0.153 S 
ATOM      2  O   UNL d   1     -39.098  15.053  20.592  0.00  0.00    -0.232 OA
ENDROOT
BRANCH   1   3
ATOM      3  C   UNL d   1     -39.419  14.879  21.637  0.00  0.00     0.108 A 
ATOM      4  C   UNL d   1     -39.519  14.180  21.426  0.00  0.00     0.023 A 
ATOM      5  C   UNL d   1     -39.171  13.672  22.026  0.00  0.00     0.024 A 
ATOM      6  C   UNL d   1     -38.792  13.699  22.706  0.00  0.00     0.009 A 
ATOM      7  C   UNL d   1     -39.340  14.337  21.754  0.00  0.00    -0.027 A 
ATOM      8  C   UNL d   1     -38.676  14.496  22.949  0.00  0.00     0.024 A 
ATOM      9  C   UNL d   1     -38.951  14.942  22.478  0.00  0.00     0.023 A 
ATOM     10  C   UNL d   1     -38.855  15.238  22.663  0.00  0.00    -0.027 A 
ATOM     11  C   UNL d   1     -39.227  15.212  21.996  0.00  0.00    -0.012 A 
ATOM     12  C   UNL d   1     -39.576  15.745  21.395  0.00  0.00    -0.013 A 
ENDBRANCH   1   3
BRANCH   1  13
ATOM     13  N   UNL d   1     -40.499  14.830  20.627  0.00  0.00    -0.185 NA
BRANCH  13  14
ATOM     14  C   UNL d   1     -40.551  14.997  19.807  0.00  0.00     0.091 A 
ATOM     15  C   UNL d   1     -40.549  14.353  19.253  0.00  0.00     0.020 A 
ATOM     16  C   UNL d   1     -40.598  14.509  18.483  0.00  0.00     0.007 A 
ATOM     17  C   UNL d   1     -40.650  15.287  18.214  0.00  0.00     0.064 A 
ATOM     18  C   UNL d   1     -40.652  15.922  18.743  0.00  0.00     0.007 A 
ATOM     19  C   UNL d   1     -40.602  15.759  19.542  0.00  0.00     0.020 A 
BRANCH  17  20
ATOM     20  C   UNL d   1     -40.702  15.441  17.380  0.00  0.00     0.300 C 
ATOM     21  O   UNL d   1     -40.024  15.658  16.968  0.00  0.00    -0.259 OA
BRANCH  20  22
ATOM     22  O   UNL d   1     -41.432  15.369  17.011  0.00  0.00    -0.271 OA
BRANCH  22  23
ATOM     23  C   UNL d   1     -41.600  15.887  16.383  0.00  0.00     0.126 C 
ATOM     24  C   UNL d   1     -42.286  15.753  15.933  0.00  0.00     0.029 C 
ENDBRANCH  22  23
ENDBRANCH  20  22
ENDBRANCH  17  20
ENDBRANCH  13  14
ENDBRANCH   1  13
TORSDOF 6
ENDMDL
MODEL 4
REMARK VINA RESULT:      -6.4      8.850      9.491
REMARK  6 active torsions:
REMARK  status: ('A' for Active; 'I' for Inactive)
REMARK    1  A    between atoms: S_2  and  C_1 
REMARK    2  A    between atoms: N_3  and  S_2 
REMARK    3  A    between atoms: C_17  and  N_3 
REMARK    4  A    between atoms: C_4  and  C_12 
REMARK    5  A    between atoms: O_20  and  C_4 
REMARK    6  A    between atoms: C_23  and  O_20 
ROOT
ATOM      1  S   UNL d   1     -40.112  15.327  18.821  0.00  0.00     0.153 S 
ATOM      2  O   UNL d   1     -40.241  14.570  19.066  0.00  0.00    -0.232 OA
ENDROOT
BRANCH   1   3
ATOM      3  C   UNL d   1     -40.210  15.168  18.135  0.00  0.00     0.108 A 
ATOM      4  C   UNL d   1     -40.708  15.684  18.309  0.00  0.00     0.023 A 
ATOM      5  C   UNL d   1     -41.171  15.850  17.603  0.00  0.00     0.024 A 
ATOM      6  C   UNL d   1     -41.242  15.644  16.855  0.00  0.00     0.009 A 
ATOM      7  C   UNL d   1     -40.634  15.490  17.960  0.00  0.00    -0.027 A 
ATOM      8  C   UNL d   1     -40.675  15.055  16.655  0.00  0.00     0.024 A 
ATOM      9  C   UNL d   1     -40.276  14.894  17.213  0.00  0.00     0.023 A 
ATOM     10  C   UNL d   1     -40.078  14.649  17.034  0.00  0.00    -0.027 A 
ATOM     11  C   UNL d   1     -40.009  14.851  17.768  0.00  0.00    -0.012 A 
ATOM     12  C   UNL d   1     -39.527  14.669  18.476  0.00  0.00    -0.013 A 
ENDBRANCH   1   3
BRANCH   1  13
ATOM     13  N   UNL d   1     -39.939  15.920  19.380  0.00  0.00    -0.185 NA
BRANCH  13  14
ATOM     14  C   UNL d   1     -39.738  15.706  20.165  0.00  0.00     0.091 A 
ATOM     15  C   UNL d   1     -38.923  15.730  20.406  0.00  0.00     0.020 A 
ATOM     16  C   UNL d   1     -38.735  15.528  21.143  0.00  0.00     0.007 A 
ATOM     17  C   UNL d   1     -39.318  15.296  21.678  0.00  0.00     0.064 A 
ATOM     18  C   UNL d   1     -40.113  15.268  21.456  0.00  0.00     0.007 A 
ATOM     19  C   UNL d   1     -40.309  15.478  20.691  0.00  0.00     0.020 A 
BRANCH  17  20
ATOM     20  C   UNL d   1     -39.100  15.081  22.471  0.00  0.00     0.300 C 
ATOM     21  O   UNL d   1     -38.990  15.672  23.031  0.00  0.00    -0.259 OA
BRANCH  20  22
ATOM     22  O   UNL d   1     -39.005  14.286  22.651  0.00  0.00    -0.271 OA
BRANCH  22  23
ATOM     23  C   UNL d   1     -38.701  14.094  23.400  0.00  0.00     0.126 C 
ATOM     24  C   UNL d   1     -38.602  13.291  23.592  0.00  0.00     0.029 C 
ENDBRANCH  22  23
ENDBRANCH  20  22
ENDBRANCH  17  20
ENDBRANCH  13  14
ENDBRANCH   1  13
TORSDOF 6
ENDMDL
