MODEL 1
REMARK VINA RESULT:      -7.8      0.000      0.000
REMARK  2 active torsions:
REMARK  status: ('A' for Active; 'I' for Inactive)
REMARK    1  A    between atoms: CA_2  and  C_1 
REMARK    2  A    between atoms: C_3  and  CA_2 
ROOT
ATOM      1  C   UNL d   1      53.844  32.303  53.963  0.00  0.00     0.025 A 
ATOM      2  C   UNL d   1      54.451  32.713  53.570  0.00  0.00     0.003 A 
ATOM      3  C   UNL d   1      53.728  32.419  54.780  0.00  0.00     0.003 A 
ATOM      4  C   UNL d   1      54.818  33.349  54.803  0.00  0.00     0.058 A 
ATOM      5  C   UNL d   1      54.933  33.234  53.994  0.00  0.00     0.011 A 
ATOM      6  C   UNL d   1      54.219  32.945  55.195  0.00  0.00     0.011 A 
ATOM      7 CL   UNL d   1      55.303  33.870  55.218  0.00  0.00    -0.082 Cl
ENDROOT
BRANCH   1   8
ATOM      8  CA  UNL d   1      53.360  31.783  53.547  0.00  0.00     0.167 C 
ATOM      9  N   UNL d   1      53.489  30.970  53.591  0.00  0.00    -0.142 N 
BRANCH   8  10
ATOM     10  C   UNL d   1      52.744  32.082  53.086  0.00  0.00     0.231 C 
ATOM     11  O   UNL d   1      52.054  32.358  53.437  0.00  0.00    -0.643 OA
ATOM     12  OXT UNL d   1      52.822  32.104  52.264  0.00  0.00    -0.643 OA
ENDBRANCH   8  10
ENDBRANCH   1   8
TORSDOF 2
ENDMDL
MODEL 2
REMARK VINA RESULT:      -7.3      2.096      2.837
REMARK  2 active torsions:
REMARK  status: ('A' for Active; 'I' for Inactive)
REMARK    1  A    between atoms: CA_2  and  C_1 
REMARK    2  A    between atoms: C_3  and  CA_2 
ROOT
ATOM      1  C   UNL d   1      53.692  31.929  53.684  0.00  0.00     0.025 A 
ATOM      2  C   UNL d   1      53.937  31.173  53.928  0.00  0.00     0.003 A 
ATOM      3  C   UNL d   1      53.046  32.007  53.165  0.00  0.00     0.003 A 
ATOM      4  C   UNL d   1      52.894  30.582  53.139  0.00  0.00     0.058 A 
ATOM      5  C   UNL d   1      53.535  30.505  53.653  0.00  0.00     0.011 A 
ATOM      6  C   UNL d   1      52.649  31.329  52.895  0.00  0.00     0.011 A 
ATOM      7 CL   UNL d   1      52.499  29.912  52.870  0.00  0.00    -0.082 Cl
ENDROOT
BRANCH   1   8
ATOM      8  CA  UNL d   1      54.088  32.599  53.954  0.00  0.00     0.167 C 
ATOM      9  N   UNL d   1      54.727  32.903  53.530  0.00  0.00    -0.142 N 
BRANCH   8  10
ATOM     10  C   UNL d   1      53.841  32.963  54.651  0.00  0.00     0.231 C 
ATOM     11  O   UNL d   1      53.272  33.557  54.636  0.00  0.00    -0.643 OA
ATOM     12  OXT UNL d   1      54.167  32.729  55.373  0.00  0.00    -0.643 OA
ENDBRANCH   8  10
ENDBRANCH   1   8
TORSDOF 2
ENDMDL
MODEL 3
REMARK VINA RESULT:      -7.1      2.335      2.818
REMARK  2 active torsions:
REMARK  status: ('A' for Active; 'I' for Inactive)
REMARK    1  A    between atoms: CA_2  and  C_1 
REMARK    2  A    between atoms: C_3  and  CA_2 
ROOT
ATOM      1  C   UNL d   1      53.496  33.432  53.757  0.00  0.00     0.025 A 
ATOM      2  C   UNL d   1      52.912  32.902  53.495  0.00  0.00     0.003 A 
ATOM      3  C   UNL d   1      53.366  34.253  53.701  0.00  0.00     0.003 A 
ATOM      4  C   UNL d   1      52.077  34.009  53.123  0.00  0.00     0.058 A 
ATOM      5  C   UNL d   1      52.206  33.196  53.179  0.00  0.00     0.011 A 
ATOM      6  C   UNL d   1      52.653  34.536  53.382  0.00  0.00     0.011 A 
ATOM      7 CL   UNL d   1      51.372  34.294  52.808  0.00  0.00    -0.082 Cl
ENDROOT
BRANCH   1   8
ATOM      8  CA  UNL d   1      54.202  33.146  54.073  0.00  0.00     0.167 C 
ATOM      9  N   UNL d   1      54.762  32.792  53.583  0.00  0.00    -0.142 N 
BRANCH   8  10
ATOM     10  C   UNL d   1      54.343  33.218  54.882  0.00  0.00     0.231 C 
ATOM     11  O   UNL d   1      54.065  32.650  55.409  0.00  0.00    -0.643 OA
ATOM     12  OXT UNL d   1      54.767  33.866  55.168  0.00  0.00    -0.643 OA
ENDBRANCH   8  10
ENDBRANCH   1   8
TORSDOF 2
ENDMDL
