MODEL 1
REMARK VINA RESULT:      -8.8      0.000      0.000
REMARK  6 active torsions:
REMARK  status: ('A' for Active; 'I' for Inactive)
REMARK    1  A    between atoms: C_12  and  N_1 
REMARK    2  A    between atoms: C_9  and  C_23 
REMARK       I    between atoms: N_10  and  C_9 
REMARK    3  A    between atoms: C_13  and  N_10 
REMARK    4  A    between atoms: C_22  and  C_12 
REMARK    5  A    between atoms: O_21  and  C_15 
REMARK    6  A    between atoms: C_23  and  C_22 
ROOT
ATOM      1  C   UNL d   1      51.954  33.693  52.605  0.00  0.00     0.085 C 
ENDROOT
BRANCH   1   2
ATOM      2  N   UNL d   1      52.515  33.447  53.164  0.00  0.00    -0.249 N 
ATOM      3  C   UNL d   1      52.645  32.638  53.265  0.00  0.00     0.208 A 
ATOM      4  N   UNL d   1      53.204  32.379  53.822  0.00  0.00    -0.218 NA
ATOM      5  S   UNL d   1      52.210  32.100  52.803  0.00  0.00    -0.038 SA
ATOM      6  C   UNL d   1      53.629  32.916  54.273  0.00  0.00     0.088 A 
ATOM      7  C   UNL d   1      53.498  33.730  54.173  0.00  0.00     0.074 A 
ATOM      8  C   UNL d   1      54.181  32.660  54.824  0.00  0.00     0.019 A 
ATOM      9  C   UNL d   1      52.945  33.992  53.622  0.00  0.00     0.268 A 
ATOM     10  C   UNL d   1      53.922  34.273  54.624  0.00  0.00     0.006 A 
ATOM     11  O   UNL d   1      52.815  34.801  53.522  0.00  0.00    -0.267 OA
ATOM     12  C   UNL d   1      54.476  34.011  55.176  0.00  0.00     0.000 A 
ATOM     13  C   UNL d   1      54.606  33.203  55.276  0.00  0.00     0.002 A 
ENDBRANCH   1   2
BRANCH   1  14
ATOM     14  C   UNL d   1      51.207  33.950  52.860  0.00  0.00     0.024 C 
BRANCH  14  15
ATOM     15  C   UNL d   1      50.609  34.100  52.303  0.00  0.00     0.064 C 
BRANCH  15  16
ATOM     16  C   UNL d   1      49.917  34.502  52.535  0.00  0.00     0.279 C 
ATOM     17  N   UNL d   1      49.443  34.861  51.976  0.00  0.00    -0.208 NA
ATOM     18  O   UNL d   1      49.708  34.536  53.346  0.00  0.00    -0.265 OA
BRANCH  17  19
ATOM     19  C   UNL d   1      48.746  35.266  52.210  0.00  0.00     0.085 A 
ATOM     20  C   UNL d   1      48.722  35.702  52.912  0.00  0.00     0.021 A 
ATOM     21  C   UNL d   1      48.031  36.096  53.131  0.00  0.00     0.026 A 
ATOM     22  C   UNL d   1      47.360  36.053  52.646  0.00  0.00     0.094 A 
ATOM     23  C   UNL d   1      47.382  35.618  51.945  0.00  0.00     0.026 A 
ATOM     24  C   UNL d   1      48.085  35.222  51.728  0.00  0.00     0.021 A 
BRANCH  22  25
ATOM     25  O   UNL d   1      46.665  36.443  52.858  0.00  0.00    -0.328 OA
ATOM     26  C   UNL d   1      46.556  36.682  53.638  0.00  0.00     0.181 C 
ENDBRANCH  22  25
ENDBRANCH  17  19
ENDBRANCH  15  16
ENDBRANCH  14  15
ENDBRANCH   1  14
TORSDOF 6
ENDMDL
MODEL 2
REMARK VINA RESULT:      -8.7      1.592      2.200
REMARK  6 active torsions:
REMARK  status: ('A' for Active; 'I' for Inactive)
REMARK    1  A    between atoms: C_12  and  N_1 
REMARK    2  A    between atoms: C_9  and  C_23 
REMARK       I    between atoms: N_10  and  C_9 
REMARK    3  A    between atoms: C_13  and  N_10 
REMARK    4  A    between atoms: C_22  and  C_12 
REMARK    5  A    between atoms: O_21  and  C_15 
REMARK    6  A    between atoms: C_23  and  C_22 
ROOT
ATOM      1  C   UNL d   1      52.622  33.242  52.965  0.00  0.00     0.085 C 
ENDROOT
BRANCH   1   2
ATOM      2  N   UNL d   1      52.890  32.526  53.287  0.00  0.00    -0.249 N 
ATOM      3  C   UNL d   1      53.333  32.547  53.983  0.00  0.00     0.208 A 
ATOM      4  N   UNL d   1      53.607  31.836  54.315  0.00  0.00    -0.218 NA
ATOM      5  S   UNL d   1      53.495  33.282  54.336  0.00  0.00    -0.038 SA
ATOM      6  C   UNL d   1      53.443  31.115  53.960  0.00  0.00     0.088 A 
ATOM      7  C   UNL d   1      52.997  31.095  53.260  0.00  0.00     0.074 A 
ATOM      8  C   UNL d   1      53.714  30.413  54.288  0.00  0.00     0.019 A 
ATOM      9  C   UNL d   1      52.723  31.795  52.927  0.00  0.00     0.268 A 
ATOM     10  C   UNL d   1      52.830  30.373  52.901  0.00  0.00     0.006 A 
ATOM     11  O   UNL d   1      52.280  31.775  52.232  0.00  0.00    -0.267 OA
ATOM     12  C   UNL d   1      53.105  29.670  53.234  0.00  0.00     0.000 A 
ATOM     13  C   UNL d   1      53.548  29.690  53.929  0.00  0.00     0.002 A 
ENDBRANCH   1   2
BRANCH   1  14
ATOM     14  C   UNL d   1      51.808  33.409  52.958  0.00  0.00     0.024 C 
BRANCH  14  15
ATOM     15  C   UNL d   1      51.538  34.136  52.661  0.00  0.00     0.064 C 
BRANCH  15  16
ATOM     16  C   UNL d   1      50.720  34.264  52.558  0.00  0.00     0.279 C 
ATOM     17  N   UNL d   1      50.443  34.627  51.882  0.00  0.00    -0.208 NA
ATOM     18  O   UNL d   1      50.183  34.019  53.153  0.00  0.00    -0.265 OA
BRANCH  17  19
ATOM     19  C   UNL d   1      49.620  34.756  51.779  0.00  0.00     0.085 A 
ATOM     20  C   UNL d   1      49.172  35.136  52.360  0.00  0.00     0.021 A 
ATOM     21  C   UNL d   1      48.364  35.257  52.248  0.00  0.00     0.026 A 
ATOM     22  C   UNL d   1      48.002  34.997  51.549  0.00  0.00     0.094 A 
ATOM     23  C   UNL d   1      48.447  34.617  50.967  0.00  0.00     0.026 A 
ATOM     24  C   UNL d   1      49.265  34.497  51.088  0.00  0.00     0.021 A 
BRANCH  22  25
ATOM     25  O   UNL d   1      47.194  35.114  51.429  0.00  0.00    -0.328 OA
ATOM     26  C   UNL d   1      46.838  35.800  51.707  0.00  0.00     0.181 C 
ENDBRANCH  22  25
ENDBRANCH  17  19
ENDBRANCH  15  16
ENDBRANCH  14  15
ENDBRANCH   1  14
TORSDOF 6
ENDMDL
MODEL 3
REMARK VINA RESULT:      -8.2      1.596      5.925
REMARK  6 active torsions:
REMARK  status: ('A' for Active; 'I' for Inactive)
REMARK    1  A    between atoms: C_12  and  N_1 
REMARK    2  A    between atoms: C_9  and  C_23 
REMARK       I    between atoms: N_10  and  C_9 
REMARK    3  A    between atoms: C_13  and  N_10 
REMARK    4  A    between atoms: C_22  and  C_12 
REMARK    5  A    between atoms: O_21  and  C_15 
REMARK    6  A    between atoms: C_23  and  C_22 
ROOT
ATOM      1  C   UNL d   1      49.033  35.494  52.419  0.00  0.00     0.085 C 
ENDROOT
BRANCH   1   2
ATOM      2  N   UNL d   1      48.291  35.694  52.731  0.00  0.00    -0.249 N 
ATOM      3  C   UNL d   1      47.621  35.575  52.265  0.00  0.00     0.208 A 
ATOM      4  N   UNL d   1      46.871  35.772  52.566  0.00  0.00    -0.218 NA
ATOM      5  S   UNL d   1      47.713  35.260  51.500  0.00  0.00    -0.038 SA
ATOM      6  C   UNL d   1      46.790  36.082  53.320  0.00  0.00     0.088 A 
ATOM      7  C   UNL d   1      47.464  36.202  53.790  0.00  0.00     0.074 A 
ATOM      8  C   UNL d   1      46.049  36.276  53.618  0.00  0.00     0.019 A 
ATOM      9  C   UNL d   1      48.208  36.009  53.496  0.00  0.00     0.268 A 
ATOM     10  C   UNL d   1      47.386  36.513  54.548  0.00  0.00     0.006 A 
ATOM     11  O   UNL d   1      48.878  36.128  53.963  0.00  0.00    -0.267 OA
ATOM     12  C   UNL d   1      46.641  36.707  54.843  0.00  0.00     0.000 A 
ATOM     13  C   UNL d   1      45.971  36.588  54.377  0.00  0.00     0.002 A 
ENDBRANCH   1   2
BRANCH   1  14
ATOM     14  C   UNL d   1      49.447  34.846  52.731  0.00  0.00     0.024 C 
BRANCH  14  15
ATOM     15  C   UNL d   1      50.111  34.548  52.331  0.00  0.00     0.064 C 
BRANCH  15  16
ATOM     16  C   UNL d   1      50.687  34.113  52.749  0.00  0.00     0.279 C 
ATOM     17  N   UNL d   1      51.481  34.262  52.630  0.00  0.00    -0.208 NA
ATOM     18  O   UNL d   1      50.448  33.522  53.292  0.00  0.00    -0.265 OA
BRANCH  17  19
ATOM     19  C   UNL d   1      52.061  33.825  53.050  0.00  0.00     0.085 A 
ATOM     20  C   UNL d   1      52.273  33.061  52.814  0.00  0.00     0.021 A 
ATOM     21  C   UNL d   1      52.844  32.641  53.235  0.00  0.00     0.026 A 
ATOM     22  C   UNL d   1      53.205  32.986  53.897  0.00  0.00     0.094 A 
ATOM     23  C   UNL d   1      52.995  33.747  54.135  0.00  0.00     0.026 A 
ATOM     24  C   UNL d   1      52.415  34.168  53.704  0.00  0.00     0.021 A 
BRANCH  22  25
ATOM     25  O   UNL d   1      53.777  32.572  54.324  0.00  0.00    -0.328 OA
ATOM     26  C   UNL d   1      54.084  32.900  55.013  0.00  0.00     0.181 C 
ENDBRANCH  22  25
ENDBRANCH  17  19
ENDBRANCH  15  16
ENDBRANCH  14  15
ENDBRANCH   1  14
TORSDOF 6
ENDMDL
MODEL 4
REMARK VINA RESULT:      -7.7      1.762      6.292
REMARK  6 active torsions:
REMARK  status: ('A' for Active; 'I' for Inactive)
REMARK    1  A    between atoms: C_12  and  N_1 
REMARK    2  A    between atoms: C_9  and  C_23 
REMARK       I    between atoms: N_10  and  C_9 
REMARK    3  A    between atoms: C_13  and  N_10 
REMARK    4  A    between atoms: C_22  and  C_12 
REMARK    5  A    between atoms: O_21  and  C_15 
REMARK    6  A    between atoms: C_23  and  C_22 
ROOT
ATOM      1  C   UNL d   1      48.847  35.641  52.413  0.00  0.00     0.085 C 
ENDROOT
BRANCH   1   2
ATOM      2  N   UNL d   1      48.025  35.743  52.467  0.00  0.00    -0.249 N 
ATOM      3  C   UNL d   1      47.710  36.055  53.163  0.00  0.00     0.208 A 
ATOM      4  N   UNL d   1      46.888  36.162  53.228  0.00  0.00    -0.218 NA
ATOM      5  S   UNL d   1      48.225  36.255  53.785  0.00  0.00    -0.038 SA
ATOM      6  C   UNL d   1      46.388  35.962  52.611  0.00  0.00     0.088 A 
ATOM      7  C   UNL d   1      46.705  35.648  51.911  0.00  0.00     0.074 A 
ATOM      8  C   UNL d   1      45.576  36.068  52.675  0.00  0.00     0.019 A 
ATOM      9  C   UNL d   1      47.518  35.540  51.840  0.00  0.00     0.268 A 
ATOM     10  C   UNL d   1      46.206  35.446  51.287  0.00  0.00     0.006 A 
ATOM     11  O   UNL d   1      47.833  35.228  51.145  0.00  0.00    -0.267 OA
ATOM     12  C   UNL d   1      45.391  35.554  51.357  0.00  0.00     0.000 A 
ATOM     13  C   UNL d   1      45.075  35.866  52.053  0.00  0.00     0.002 A 
ENDBRANCH   1   2
BRANCH   1  14
ATOM     14  C   UNL d   1      49.183  34.908  52.614  0.00  0.00     0.024 C 
BRANCH  14  15
ATOM     15  C   UNL d   1      49.879  34.656  52.237  0.00  0.00     0.064 C 
BRANCH  15  16
ATOM     16  C   UNL d   1      50.461  34.247  52.673  0.00  0.00     0.279 C 
ATOM     17  N   UNL d   1      51.253  34.396  52.541  0.00  0.00    -0.208 NA
ATOM     18  O   UNL d   1      50.231  33.682  53.247  0.00  0.00    -0.265 OA
BRANCH  17  19
ATOM     19  C   UNL d   1      51.839  33.985  52.979  0.00  0.00     0.085 A 
ATOM     20  C   UNL d   1      52.033  33.202  52.800  0.00  0.00     0.021 A 
ATOM     21  C   UNL d   1      52.611  32.808  53.238  0.00  0.00     0.026 A 
ATOM     22  C   UNL d   1      52.996  33.200  53.858  0.00  0.00     0.094 A 
ATOM     23  C   UNL d   1      52.804  33.982  54.038  0.00  0.00     0.026 A 
ATOM     24  C   UNL d   1      52.218  34.375  53.591  0.00  0.00     0.021 A 
BRANCH  22  25
ATOM     25  O   UNL d   1      53.576  32.814  54.301  0.00  0.00    -0.328 OA
ATOM     26  C   UNL d   1      54.352  32.800  54.029  0.00  0.00     0.181 C 
ENDBRANCH  22  25
ENDBRANCH  17  19
ENDBRANCH  15  16
ENDBRANCH  14  15
ENDBRANCH   1  14
TORSDOF 6
ENDMDL
MODEL 5
REMARK VINA RESULT:      -5.8     10.571     11.214
REMARK  6 active torsions:
REMARK  status: ('A' for Active; 'I' for Inactive)
REMARK    1  A    between atoms: C_12  and  N_1 
REMARK    2  A    between atoms: C_9  and  C_23 
REMARK       I    between atoms: N_10  and  C_9 
REMARK    3  A    between atoms: C_13  and  N_10 
REMARK    4  A    between atoms: C_22  and  C_12 
REMARK    5  A    between atoms: O_21  and  C_15 
REMARK    6  A    between atoms: C_23  and  C_22 
ROOT
ATOM      1  C   UNL d   1      44.329  25.754  57.813  0.00  0.00     0.085 C 
ENDROOT
BRANCH   1   2
ATOM      2  N   UNL d   1      44.468  25.092  57.333  0.00  0.00    -0.249 N 
ATOM      3  C   UNL d   1      44.560  24.355  57.692  0.00  0.00     0.208 A 
ATOM      4  N   UNL d   1      44.700  23.685  57.221  0.00  0.00    -0.218 NA
ATOM      5  S   UNL d   1      44.511  24.302  58.521  0.00  0.00    -0.038 SA
ATOM      6  C   UNL d   1      44.748  23.746  56.405  0.00  0.00     0.088 A 
ATOM      7  C   UNL d   1      44.655  24.488  56.044  0.00  0.00     0.074 A 
ATOM      8  C   UNL d   1      44.886  23.084  55.940  0.00  0.00     0.019 A 
ATOM      9  C   UNL d   1      44.517  25.155  56.505  0.00  0.00     0.268 A 
ATOM     10  C   UNL d   1      44.702  24.554  55.224  0.00  0.00     0.006 A 
ATOM     11  O   UNL d   1      44.424  25.892  56.146  0.00  0.00    -0.267 OA
ATOM     12  C   UNL d   1      44.841  23.886  54.761  0.00  0.00     0.000 A 
ATOM     13  C   UNL d   1      44.933  23.149  55.120  0.00  0.00     0.002 A 
ENDBRANCH   1   2
BRANCH   1  14
ATOM     14  C   UNL d   1      44.889  26.367  57.839  0.00  0.00     0.024 C 
BRANCH  14  15
ATOM     15  C   UNL d   1      44.874  26.915  58.463  0.00  0.00     0.064 C 
BRANCH  15  16
ATOM     16  C   UNL d   1      45.039  27.718  58.314  0.00  0.00     0.279 C 
ATOM     17  N   UNL d   1      44.490  28.293  58.502  0.00  0.00    -0.208 NA
ATOM     18  O   UNL d   1      45.772  27.935  57.970  0.00  0.00    -0.265 OA
BRANCH  17  19
ATOM     19  C   UNL d   1      44.656  29.101  58.352  0.00  0.00     0.085 A 
ATOM     20  C   UNL d   1      44.488  29.442  57.618  0.00  0.00     0.021 A 
ATOM     21  C   UNL d   1      44.656  30.238  57.482  0.00  0.00     0.026 A 
ATOM     22  C   UNL d   1      44.994  30.696  58.084  0.00  0.00     0.094 A 
ATOM     23  C   UNL d   1      45.163  30.359  58.818  0.00  0.00     0.026 A 
ATOM     24  C   UNL d   1      44.990  29.551  58.949  0.00  0.00     0.021 A 
BRANCH  22  25
ATOM     25  O   UNL d   1      45.165  31.493  57.957  0.00  0.00    -0.328 OA
ATOM     26  C   UNL d   1      44.744  31.912  57.388  0.00  0.00     0.181 C 
ENDBRANCH  22  25
ENDBRANCH  17  19
ENDBRANCH  15  16
ENDBRANCH  14  15
ENDBRANCH   1  14
TORSDOF 6
ENDMDL
