MODEL 1
REMARK VINA RESULT:      -4.3      0.000      0.000
REMARK  7 active torsions:
REMARK  status: ('A' for Active; 'I' for Inactive)
REMARK    1  A    between atoms: C_8  and  N_1 
REMARK    2  A    between atoms: C_7  and  C_3 
REMARK    3  A    between atoms: C_10  and  C_6 
REMARK    4  A    between atoms: C_11  and  C_7 
REMARK    5  A    between atoms: C_14  and  C_8 
REMARK    6  A    between atoms: C_12  and  C_14 
REMARK       I    between atoms: N_17  and  C_12 
REMARK    7  A    between atoms: C_20  and  N_17 
ROOT
ATOM      1  C   UNL d   1     -41.504  14.152  20.616  0.00  0.00     0.089 C 
ENDROOT
BRANCH   1   2
ATOM      2  N   UNL d   1     -40.845  14.215  20.126  0.00  0.00    -0.259 N 
ATOM      3  C   UNL d   1     -40.044  14.322  20.348  0.00  0.00     0.153 A 
ATOM      4  S   UNL d   1     -39.575  14.355  19.659  0.00  0.00    -0.053 SA
ATOM      5  S   UNL d   1     -39.768  14.384  21.137  0.00  0.00    -0.052 SA
ATOM      6  C   UNL d   1     -40.083  14.269  18.998  0.00  0.00     0.090 A 
ATOM      7  C   UNL d   1     -40.851  14.184  19.284  0.00  0.00     0.272 A 
ATOM      8  O   UNL d   1     -41.539  14.082  18.791  0.00  0.00    -0.266 OA
BRANCH   6   9
ATOM      9  C   UNL d   1     -39.836  14.271  18.211  0.00  0.00     0.036 C 
BRANCH   9  10
ATOM     10  C   UNL d   1     -39.280  13.699  17.966  0.00  0.00     0.101 A 
ATOM     11  O   UNL d   1     -39.259  12.874  18.061  0.00  0.00    -0.305 OA
ATOM     12  C   UNL d   1     -38.546  12.615  17.685  0.00  0.00     0.123 A 
ATOM     13  C   UNL d   1     -38.176  13.244  17.390  0.00  0.00     0.029 A 
ATOM     14  C   UNL d   1     -38.605  13.927  17.548  0.00  0.00     0.027 A 
ENDBRANCH   9  10
ENDBRANCH   6   9
ENDBRANCH   1   2
BRANCH   1  15
ATOM     15  C   UNL d   1     -41.883  13.399  20.748  0.00  0.00     0.082 C 
BRANCH  15  16
ATOM     16  C   UNL d   1     -42.564  13.359  21.203  0.00  0.00     0.281 C 
ATOM     17  N   UNL d   1     -43.051  12.693  21.151  0.00  0.00    -0.208 NA
ATOM     18  O   UNL d   1     -42.753  13.985  21.709  0.00  0.00    -0.265 OA
BRANCH  17  19
ATOM     19  C   UNL d   1     -43.735  12.653  21.608  0.00  0.00     0.088 A 
ATOM     20  C   UNL d   1     -43.791  12.094  22.195  0.00  0.00     0.061 A 
ATOM     21  C   UNL d   1     -44.455  12.036  22.659  0.00  0.00     0.203 A 
ATOM     22  O   UNL d   1     -44.497  11.449  23.265  0.00  0.00    -0.286 OA
ATOM     23  C   UNL d   1     -45.096  12.593  22.500  0.00  0.00     0.103 A 
ATOM     24  C   UNL d   1     -45.043  13.151  21.916  0.00  0.00     0.011 A 
ATOM     25  C   UNL d   1     -44.335  13.173  21.462  0.00  0.00     0.020 A 
BRANCH  23  26
ATOM     26  C   UNL d   1     -45.796  12.571  22.949  0.00  0.00     0.214 C 
ATOM     27  O   UNL d   1     -46.490  12.197  22.640  0.00  0.00    -0.644 OA
ATOM     28  O   UNL d   1     -45.841  12.907  23.698  0.00  0.00    -0.644 OA
ENDBRANCH  23  26
ENDBRANCH  17  19
ENDBRANCH  15  16
ENDBRANCH   1  15
TORSDOF 7
ENDMDL
MODEL 2
REMARK VINA RESULT:      -3.2      2.775      7.143
REMARK  7 active torsions:
REMARK  status: ('A' for Active; 'I' for Inactive)
REMARK    1  A    between atoms: C_8  and  N_1 
REMARK    2  A    between atoms: C_7  and  C_3 
REMARK    3  A    between atoms: C_10  and  C_6 
REMARK    4  A    between atoms: C_11  and  C_7 
REMARK    5  A    between atoms: C_14  and  C_8 
REMARK    6  A    between atoms: C_12  and  C_14 
REMARK       I    between atoms: N_17  and  C_12 
REMARK    7  A    between atoms: C_20  and  N_17 
ROOT
ATOM      1  C   UNL d   1     -45.233  12.874  22.832  0.00  0.00     0.089 C 
ENDROOT
BRANCH   1   2
ATOM      2  N   UNL d   1     -46.036  12.792  22.998  0.00  0.00    -0.259 N 
ATOM      3  C   UNL d   1     -46.644  13.360  22.904  0.00  0.00     0.153 A 
ATOM      4  S   UNL d   1     -47.368  13.024  23.145  0.00  0.00    -0.053 SA
ATOM      5  S   UNL d   1     -46.534  14.138  22.613  0.00  0.00    -0.052 SA
ATOM      6  C   UNL d   1     -47.216  12.238  23.394  0.00  0.00     0.090 A 
ATOM      7  C   UNL d   1     -46.409  12.101  23.304  0.00  0.00     0.272 A 
ATOM      8  O   UNL d   1     -46.022  11.366  23.495  0.00  0.00    -0.266 OA
BRANCH   6   9
ATOM      9  C   UNL d   1     -47.787  11.714  23.675  0.00  0.00     0.036 C 
BRANCH   9  10
ATOM     10  C   UNL d   1     -48.522  11.676  23.281  0.00  0.00     0.101 A 
ATOM     11  O   UNL d   1     -48.714  11.526  22.487  0.00  0.00    -0.305 OA
ATOM     12  C   UNL d   1     -49.558  11.565  22.442  0.00  0.00     0.123 A 
ATOM     13  C   UNL d   1     -49.841  11.726  23.159  0.00  0.00     0.029 A 
ATOM     14  C   UNL d   1     -49.224  11.801  23.698  0.00  0.00     0.027 A 
ENDBRANCH   9  10
ENDBRANCH   6   9
ENDBRANCH   1   2
BRANCH   1  15
ATOM     15  C   UNL d   1     -44.932  12.746  22.044  0.00  0.00     0.082 C 
BRANCH  15  16
ATOM     16  C   UNL d   1     -44.135  12.858  21.889  0.00  0.00     0.281 C 
ATOM     17  N   UNL d   1     -43.897  13.490  21.413  0.00  0.00    -0.208 NA
ATOM     18  O   UNL d   1     -43.580  12.336  22.210  0.00  0.00    -0.265 OA
BRANCH  17  19
ATOM     19  C   UNL d   1     -43.095  13.603  21.257  0.00  0.00     0.088 A 
ATOM     20  C   UNL d   1     -42.791  14.356  21.247  0.00  0.00     0.061 A 
ATOM     21  C   UNL d   1     -42.006  14.491  21.096  0.00  0.00     0.203 A 
ATOM     22  O   UNL d   1     -41.706  15.281  21.090  0.00  0.00    -0.286 OA
ATOM     23  C   UNL d   1     -41.509  13.800  20.946  0.00  0.00     0.103 A 
ATOM     24  C   UNL d   1     -41.809  13.048  20.955  0.00  0.00     0.011 A 
ATOM     25  C   UNL d   1     -42.630  12.958  21.117  0.00  0.00     0.020 A 
BRANCH  23  26
ATOM     26  C   UNL d   1     -40.697  13.888  20.787  0.00  0.00     0.214 C 
ATOM     27  O   UNL d   1     -40.128  13.797  21.407  0.00  0.00    -0.644 OA
ATOM     28  O   UNL d   1     -40.420  14.064  20.033  0.00  0.00    -0.644 OA
ENDBRANCH  23  26
ENDBRANCH  17  19
ENDBRANCH  15  16
ENDBRANCH   1  15
TORSDOF 7
ENDMDL
