MODEL 1
REMARK VINA RESULT:     -10.5      0.000      0.000
REMARK  5 active torsions:
REMARK  status: ('A' for Active; 'I' for Inactive)
REMARK    1  A    between atoms: O_8  and  C_7 
REMARK    2  A    between atoms: C_10  and  O_8 
REMARK    3  A    between atoms: C_9  and  C_10 
REMARK    4  A    between atoms: O_17  and  C_9 
REMARK    5  A    between atoms: C_21  and  O_17 
ROOT
ATOM      1  C   UNL d   1      53.263  33.765  54.143  0.00  0.00     0.009 A 
ATOM      2  C   UNL d   1      52.677  33.846  53.576  0.00  0.00     0.046 A 
ATOM      3  C   UNL d   1      53.538  34.429  54.550  0.00  0.00     0.064 A 
ATOM      4  C   UNL d   1      53.225  35.166  54.386  0.00  0.00     0.300 A 
ATOM      5  C   UNL d   1      52.365  34.583  53.411  0.00  0.00     0.105 A 
ATOM      6  O   UNL d   1      52.635  35.244  53.812  0.00  0.00    -0.273 OA
ATOM      7  C   UNL d   1      52.408  33.176  53.173  0.00  0.00     0.102 A 
ATOM      8  C   UNL d   1      51.769  34.658  52.832  0.00  0.00     0.025 A 
ATOM      9  C   UNL d   1      51.815  33.261  52.598  0.00  0.00     0.025 A 
ATOM     10  O   UNL d   1      53.502  35.842  54.797  0.00  0.00    -0.259 OA
ATOM     11  C   UNL d   1      51.502  33.998  52.433  0.00  0.00     0.004 A 
ATOM     12  C   UNL d   1      53.578  33.021  54.310  0.00  0.00     0.000 A 
ATOM     13  C   UNL d   1      54.126  34.350  55.121  0.00  0.00     0.005 A 
ATOM     14  C   UNL d   1      50.909  34.074  51.857  0.00  0.00     0.000 C 
ATOM     15  C   UNL d   1      54.171  32.929  54.883  0.00  0.00     0.000 A 
ATOM     16  C   UNL d   1      54.442  33.606  55.288  0.00  0.00     0.000 A 
ENDROOT
BRANCH   7  17
ATOM     17  O   UNL d   1      52.721  32.439  53.338  0.00  0.00    -0.302 OA
BRANCH  17  18
ATOM     18  C   UNL d   1      52.277  31.758  53.183  0.00  0.00     0.163 C 
ATOM     19  C   UNL d   1      51.446  31.786  53.240  0.00  0.00     0.032 C 
BRANCH  18  20
ATOM     20  C   UNL d   1      52.657  31.058  52.974  0.00  0.00     0.323 C 
ATOM     21  O   UNL d   1      53.008  30.986  52.239  0.00  0.00    -0.257 OA
BRANCH  20  22
ATOM     22  O   UNL d   1      52.677  30.436  53.517  0.00  0.00    -0.270 OA
BRANCH  22  23
ATOM     23  C   UNL d   1      53.156  29.772  53.362  0.00  0.00     0.126 C 
ATOM     24  C   UNL d   1      53.333  29.251  53.960  0.00  0.00     0.029 C 
ENDBRANCH  22  23
ENDBRANCH  20  22
ENDBRANCH  18  20
ENDBRANCH  17  18
ENDBRANCH   7  17
TORSDOF 5
ENDMDL
MODEL 2
REMARK VINA RESULT:     -10.1      0.703      2.398
REMARK  5 active torsions:
REMARK  status: ('A' for Active; 'I' for Inactive)
REMARK    1  A    between atoms: O_8  and  C_7 
REMARK    2  A    between atoms: C_10  and  O_8 
REMARK    3  A    between atoms: C_9  and  C_10 
REMARK    4  A    between atoms: O_17  and  C_9 
REMARK    5  A    between atoms: C_21  and  O_17 
ROOT
ATOM      1  C   UNL d   1      52.432  33.847  53.675  0.00  0.00     0.009 A 
ATOM      2  C   UNL d   1      53.106  33.710  54.120  0.00  0.00     0.046 A 
ATOM      3  C   UNL d   1      52.069  34.590  53.694  0.00  0.00     0.064 A 
ATOM      4  C   UNL d   1      52.383  35.185  54.157  0.00  0.00     0.300 A 
ATOM      5  C   UNL d   1      53.420  34.306  54.583  0.00  0.00     0.105 A 
ATOM      6  O   UNL d   1      53.064  35.043  54.605  0.00  0.00    -0.273 OA
ATOM      7  C   UNL d   1      53.462  32.965  54.095  0.00  0.00     0.102 A 
ATOM      8  C   UNL d   1      54.107  34.158  55.033  0.00  0.00     0.025 A 
ATOM      9  C   UNL d   1      54.146  32.828  54.547  0.00  0.00     0.025 A 
ATOM     10  O   UNL d   1      52.018  35.939  54.178  0.00  0.00    -0.259 OA
ATOM     11  C   UNL d   1      54.460  33.424  55.010  0.00  0.00     0.004 A 
ATOM     12  C   UNL d   1      52.115  33.246  53.207  0.00  0.00     0.000 A 
ATOM     13  C   UNL d   1      51.391  34.730  53.247  0.00  0.00     0.005 A 
ATOM     14  C   UNL d   1      55.144  33.279  55.459  0.00  0.00     0.000 C 
ATOM     15  C   UNL d   1      51.432  33.377  52.753  0.00  0.00     0.000 A 
ATOM     16  C   UNL d   1      51.074  34.129  52.780  0.00  0.00     0.000 A 
ENDROOT
BRANCH   7  17
ATOM     17  O   UNL d   1      53.148  32.370  53.632  0.00  0.00    -0.302 OA
BRANCH  17  18
ATOM     18  C   UNL d   1      53.633  31.756  53.362  0.00  0.00     0.163 C 
ATOM     19  C   UNL d   1      54.425  31.916  53.160  0.00  0.00     0.032 C 
BRANCH  18  20
ATOM     20  C   UNL d   1      53.332  30.993  53.294  0.00  0.00     0.323 C 
ATOM     21  O   UNL d   1      52.956  30.760  52.607  0.00  0.00    -0.257 OA
BRANCH  20  22
ATOM     22  O   UNL d   1      53.417  30.472  53.929  0.00  0.00    -0.270 OA
BRANCH  22  23
ATOM     23  C   UNL d   1      53.198  29.673  53.836  0.00  0.00     0.126 C 
ATOM     24  C   UNL d   1      53.276  29.156  54.458  0.00  0.00     0.029 C 
ENDBRANCH  22  23
ENDBRANCH  20  22
ENDBRANCH  18  20
ENDBRANCH  17  18
ENDBRANCH   7  17
TORSDOF 5
ENDMDL
MODEL 3
REMARK VINA RESULT:      -9.6      1.370      3.091
REMARK  5 active torsions:
REMARK  status: ('A' for Active; 'I' for Inactive)
REMARK    1  A    between atoms: O_8  and  C_7 
REMARK    2  A    between atoms: C_10  and  O_8 
REMARK    3  A    between atoms: C_9  and  C_10 
REMARK    4  A    between atoms: O_17  and  C_9 
REMARK    5  A    between atoms: C_21  and  O_17 
ROOT
ATOM      1  C   UNL d   1      53.334  33.816  54.236  0.00  0.00     0.009 A 
ATOM      2  C   UNL d   1      53.221  33.090  53.874  0.00  0.00     0.046 A 
ATOM      3  C   UNL d   1      53.970  33.924  54.754  0.00  0.00     0.064 A 
ATOM      4  C   UNL d   1      54.484  33.306  54.902  0.00  0.00     0.300 A 
ATOM      5  C   UNL d   1      53.735  32.472  54.022  0.00  0.00     0.105 A 
ATOM      6  O   UNL d   1      54.366  32.575  54.534  0.00  0.00    -0.273 OA
ATOM      7  C   UNL d   1      52.583  32.990  53.358  0.00  0.00     0.102 A 
ATOM      8  C   UNL d   1      53.613  31.736  53.649  0.00  0.00     0.025 A 
ATOM      9  C   UNL d   1      52.470  32.253  52.992  0.00  0.00     0.025 A 
ATOM     10  O   UNL d   1      55.130  33.413  55.426  0.00  0.00    -0.259 OA
ATOM     11  C   UNL d   1      52.984  31.635  53.140  0.00  0.00     0.004 A 
ATOM     12  C   UNL d   1      52.815  34.439  54.087  0.00  0.00     0.000 A 
ATOM     13  C   UNL d   1      54.086  34.653  55.119  0.00  0.00     0.005 A 
ATOM     14  C   UNL d   1      52.865  30.902  52.770  0.00  0.00     0.000 C 
ATOM     15  C   UNL d   1      52.922  35.178  54.450  0.00  0.00     0.000 A 
ATOM     16  C   UNL d   1      53.567  35.276  54.970  0.00  0.00     0.000 A 
ENDROOT
BRANCH   7  17
ATOM     17  O   UNL d   1      52.069  33.608  53.210  0.00  0.00    -0.302 OA
BRANCH  17  18
ATOM     18  C   UNL d   1      51.282  33.451  53.010  0.00  0.00     0.163 C 
ATOM     19  C   UNL d   1      50.891  32.800  53.352  0.00  0.00     0.032 C 
BRANCH  18  20
ATOM     20  C   UNL d   1      50.888  33.938  52.474  0.00  0.00     0.323 C 
ATOM     21  O   UNL d   1      51.216  34.089  51.741  0.00  0.00    -0.257 OA
BRANCH  20  22
ATOM     22  O   UNL d   1      50.163  34.268  52.691  0.00  0.00    -0.270 OA
BRANCH  22  23
ATOM     23  C   UNL d   1      49.702  34.659  52.117  0.00  0.00     0.126 C 
ATOM     24  C   UNL d   1      49.035  35.065  52.341  0.00  0.00     0.029 C 
ENDBRANCH  22  23
ENDBRANCH  20  22
ENDBRANCH  18  20
ENDBRANCH  17  18
ENDBRANCH   7  17
TORSDOF 5
ENDMDL
MODEL 4
REMARK VINA RESULT:      -8.6      1.419      3.358
REMARK  5 active torsions:
REMARK  status: ('A' for Active; 'I' for Inactive)
REMARK    1  A    between atoms: O_8  and  C_7 
REMARK    2  A    between atoms: C_10  and  O_8 
REMARK    3  A    between atoms: C_9  and  C_10 
REMARK    4  A    between atoms: O_17  and  C_9 
REMARK    5  A    between atoms: C_21  and  O_17 
ROOT
ATOM      1  C   UNL d   1      52.950  32.746  53.551  0.00  0.00     0.009 A 
ATOM      2  C   UNL d   1      52.915  33.535  53.769  0.00  0.00     0.046 A 
ATOM      3  C   UNL d   1      53.530  32.254  53.877  0.00  0.00     0.064 A 
ATOM      4  C   UNL d   1      54.065  32.557  54.415  0.00  0.00     0.300 A 
ATOM      5  C   UNL d   1      53.450  33.838  54.307  0.00  0.00     0.105 A 
ATOM      6  O   UNL d   1      54.026  33.354  54.632  0.00  0.00    -0.273 OA
ATOM      7  C   UNL d   1      52.332  34.020  53.438  0.00  0.00     0.102 A 
ATOM      8  C   UNL d   1      53.408  34.642  54.523  0.00  0.00     0.025 A 
ATOM      9  C   UNL d   1      52.298  34.820  53.661  0.00  0.00     0.025 A 
ATOM     10  O   UNL d   1      54.654  32.061  54.747  0.00  0.00    -0.259 OA
ATOM     11  C   UNL d   1      52.834  35.122  54.199  0.00  0.00     0.004 A 
ATOM     12  C   UNL d   1      52.410  32.441  53.008  0.00  0.00     0.000 A 
ATOM     13  C   UNL d   1      53.567  31.461  53.660  0.00  0.00     0.005 A 
ATOM     14  C   UNL d   1      52.793  35.923  54.415  0.00  0.00     0.000 C 
ATOM     15  C   UNL d   1      52.439  31.643  52.782  0.00  0.00     0.000 A 
ATOM     16  C   UNL d   1      53.027  31.156  53.116  0.00  0.00     0.000 A 
ENDROOT
BRANCH   7  17
ATOM     17  O   UNL d   1      51.797  33.718  52.900  0.00  0.00    -0.302 OA
BRANCH  17  18
ATOM     18  C   UNL d   1      51.040  34.047  52.842  0.00  0.00     0.163 C 
ATOM     19  C   UNL d   1      50.598  34.190  53.533  0.00  0.00     0.032 C 
BRANCH  18  20
ATOM     20  C   UNL d   1      50.727  34.230  52.102  0.00  0.00     0.323 C 
ATOM     21  O   UNL d   1      51.225  34.348  51.465  0.00  0.00    -0.257 OA
BRANCH  20  22
ATOM     22  O   UNL d   1      49.908  34.293  52.019  0.00  0.00    -0.270 OA
BRANCH  22  23
ATOM     23  C   UNL d   1      49.584  34.461  51.269  0.00  0.00     0.126 C 
ATOM     24  C   UNL d   1      48.781  34.543  51.184  0.00  0.00     0.029 C 
ENDBRANCH  22  23
ENDBRANCH  20  22
ENDBRANCH  18  20
ENDBRANCH  17  18
ENDBRANCH   7  17
TORSDOF 5
ENDMDL
MODEL 5
REMARK VINA RESULT:      -7.9      1.132      3.865
REMARK  5 active torsions:
REMARK  status: ('A' for Active; 'I' for Inactive)
REMARK    1  A    between atoms: O_8  and  C_7 
REMARK    2  A    between atoms: C_10  and  O_8 
REMARK    3  A    between atoms: C_9  and  C_10 
REMARK    4  A    between atoms: O_17  and  C_9 
REMARK    5  A    between atoms: C_21  and  O_17 
ROOT
ATOM      1  C   UNL d   1      53.031  31.963  53.487  0.00  0.00     0.009 A 
ATOM      2  C   UNL d   1      53.401  32.552  53.920  0.00  0.00     0.046 A 
ATOM      3  C   UNL d   1      53.318  31.188  53.516  0.00  0.00     0.064 A 
ATOM      4  C   UNL d   1      53.970  31.012  53.975  0.00  0.00     0.300 A 
ATOM      5  C   UNL d   1      54.054  32.375  54.379  0.00  0.00     0.105 A 
ATOM      6  O   UNL d   1      54.341  31.609  54.410  0.00  0.00    -0.273 OA
ATOM      7  C   UNL d   1      53.108  33.324  53.886  0.00  0.00     0.102 A 
ATOM      8  C   UNL d   1      54.425  32.981  54.817  0.00  0.00     0.025 A 
ATOM      9  C   UNL d   1      53.485  33.919  54.325  0.00  0.00     0.025 A 
ATOM     10  O   UNL d   1      54.263  30.227  54.006  0.00  0.00    -0.259 OA
ATOM     11  C   UNL d   1      54.138  33.743  54.785  0.00  0.00     0.004 A 
ATOM     12  C   UNL d   1      52.372  32.141  53.023  0.00  0.00     0.000 A 
ATOM     13  C   UNL d   1      52.947  30.594  53.082  0.00  0.00     0.005 A 
ATOM     14  C   UNL d   1      54.509  34.344  55.221  0.00  0.00     0.000 C 
ATOM     15  C   UNL d   1      51.991  31.550  52.582  0.00  0.00     0.000 A 
ATOM     16  C   UNL d   1      52.288  30.772  52.618  0.00  0.00     0.000 A 
ENDROOT
BRANCH   7  17
ATOM     17  O   UNL d   1      52.456  33.500  53.426  0.00  0.00    -0.302 OA
BRANCH  17  18
ATOM     18  C   UNL d   1      52.314  34.281  53.192  0.00  0.00     0.163 C 
ATOM     19  C   UNL d   1      52.934  34.733  52.867  0.00  0.00     0.032 C 
BRANCH  18  20
ATOM     20  C   UNL d   1      51.563  34.608  53.282  0.00  0.00     0.323 C 
ATOM     21  O   UNL d   1      51.420  35.147  53.878  0.00  0.00    -0.257 OA
BRANCH  20  22
ATOM     22  O   UNL d   1      50.964  34.380  52.761  0.00  0.00    -0.270 OA
BRANCH  22  23
ATOM     23  C   UNL d   1      50.208  34.726  52.831  0.00  0.00     0.126 C 
ATOM     24  C   UNL d   1      49.615  34.509  52.320  0.00  0.00     0.029 C 
ENDBRANCH  22  23
ENDBRANCH  20  22
ENDBRANCH  18  20
ENDBRANCH  17  18
ENDBRANCH   7  17
TORSDOF 5
ENDMDL
