MODEL 1
REMARK VINA RESULT:      -5.5      0.000      0.000
REMARK  2 active torsions:
REMARK  status: ('A' for Active; 'I' for Inactive)
REMARK    1  A    between atoms: C_9  and  N_1 
REMARK    2  A    between atoms: C_2  and  C_10 
ROOT
ATOM      1  C   UNL d   1      58.728   0.135  30.241  0.00  0.00     0.070 A 
ATOM      2  C   UNL d   1      57.503   0.044  31.371  0.00  0.00     0.024 A 
ATOM      3  C   UNL d   1      58.157  -0.448  30.181  0.00  0.00     0.018 A 
ATOM      4  C   UNL d   1      58.714   0.682  30.849  0.00  0.00     0.018 A 
ATOM      5  C   UNL d   1      57.534  -0.495  30.755  0.00  0.00     0.004 A 
ATOM      6  C   UNL d   1      58.094   0.636  31.420  0.00  0.00     0.004 A 
ENDROOT
BRANCH   2   7
ATOM      7  C   UNL d   1      56.996   0.007  31.838  0.00  0.00     0.111 A 
ATOM      8  N   UNL d   1      56.681  -0.777  32.187  0.00  0.00    -0.239 NA
ATOM      9  C   UNL d   1      56.069  -0.528  32.729  0.00  0.00     0.088 A 
ATOM     10  C   UNL d   1      55.625  -0.982  33.170  0.00  0.00     0.020 A 
ATOM     11  C   UNL d   1      56.005   0.294  32.726  0.00  0.00     0.049 A 
ATOM     12  C   UNL d   1      55.046  -0.604  33.672  0.00  0.00     0.002 A 
ATOM     13  C   UNL d   1      54.984   0.197  33.669  0.00  0.00     0.001 A 
ATOM     14  C   UNL d   1      55.456   0.675  33.200  0.00  0.00     0.008 A 
ATOM     15  S   UNL d   1      56.631   0.599  32.129  0.00  0.00    -0.066 SA
ENDBRANCH   2   7
BRANCH   1  16
ATOM     16  N   UNL d   1      59.341   0.181  29.676  0.00  0.00    -0.242 N 
ATOM     17  C   UNL d   1      59.172   0.352  28.888  0.00  0.00     0.267 A 
ATOM     18  C   UNL d   1      59.889   0.356  28.480  0.00  0.00     0.066 A 
ATOM     19  O   UNL d   1      58.406   0.505  28.522  0.00  0.00    -0.267 OA
ATOM     20  C   UNL d   1      60.501   0.183  29.037  0.00  0.00     0.066 A 
ATOM     21  C   UNL d   1      60.135   0.076  29.783  0.00  0.00     0.267 A 
ATOM     22  O   UNL d   1      60.529  -0.102  30.482  0.00  0.00    -0.267 OA
ENDBRANCH   1  16
TORSDOF 2
ENDMDL
MODEL 2
REMARK VINA RESULT:      -5.2      2.000      4.762
REMARK  2 active torsions:
REMARK  status: ('A' for Active; 'I' for Inactive)
REMARK    1  A    between atoms: C_9  and  N_1 
REMARK    2  A    between atoms: C_2  and  C_10 
ROOT
ATOM      1  C   UNL d   1      56.507   0.086  32.684  0.00  0.00     0.070 A 
ATOM      2  C   UNL d   1      57.366  -0.297  31.304  0.00  0.00     0.024 A 
ATOM      3  C   UNL d   1      56.805   0.682  32.208  0.00  0.00     0.018 A 
ATOM      4  C   UNL d   1      56.621  -0.702  32.499  0.00  0.00     0.018 A 
ATOM      5  C   UNL d   1      57.241   0.488  31.507  0.00  0.00     0.004 A 
ATOM      6  C   UNL d   1      57.055  -0.895  31.801  0.00  0.00     0.004 A 
ENDROOT
BRANCH   2   7
ATOM      7  C   UNL d   1      57.720  -0.455  30.734  0.00  0.00     0.111 A 
ATOM      8  N   UNL d   1      57.810  -1.304  30.408  0.00  0.00    -0.239 NA
ATOM      9  C   UNL d   1      58.289  -1.205  29.707  0.00  0.00     0.088 A 
ATOM     10  C   UNL d   1      58.527  -1.759  29.224  0.00  0.00     0.020 A 
ATOM     11  C   UNL d   1      58.477  -0.408  29.604  0.00  0.00     0.049 A 
ATOM     12  C   UNL d   1      59.006  -1.524  28.556  0.00  0.00     0.002 A 
ATOM     13  C   UNL d   1      59.189  -0.749  28.455  0.00  0.00     0.001 A 
ATOM     14  C   UNL d   1      58.935  -0.164  28.970  0.00  0.00     0.008 A 
ATOM     15  S   UNL d   1      58.084   0.043  30.299  0.00  0.00    -0.066 SA
ENDBRANCH   2   7
BRANCH   1  16
ATOM     16  N   UNL d   1      56.078   0.277  33.374  0.00  0.00    -0.242 N 
ATOM     17  C   UNL d   1      56.468   0.531  34.053  0.00  0.00     0.267 A 
ATOM     18  C   UNL d   1      55.893   0.672  34.628  0.00  0.00     0.066 A 
ATOM     19  O   UNL d   1      57.315   0.640  34.180  0.00  0.00    -0.267 OA
ATOM     20  C   UNL d   1      55.141   0.499  34.284  0.00  0.00     0.066 A 
ATOM     21  C   UNL d   1      55.279   0.252  33.495  0.00  0.00     0.267 A 
ATOM     22  O   UNL d   1      54.697   0.030  32.959  0.00  0.00    -0.267 OA
ENDBRANCH   1  16
TORSDOF 2
ENDMDL
