MODEL 1
REMARK VINA RESULT:      48.9      0.000      0.000
REMARK  3 active torsions:
REMARK  status: ('A' for Active; 'I' for Inactive)
REMARK    1  A    between atoms: N_5  and  C_1 
REMARK    2  A    between atoms: C_8  and  C_2 
REMARK       I    between atoms: C_7  and  N_5 
REMARK       I    between atoms: N_9  and  C_7 
REMARK    3  A    between atoms: C_13  and  N_9 
ROOT
ATOM      1  C   UNL d   1     -50.512  25.755  33.330  0.00  0.00     0.120 A 
ATOM      2  C   UNL d   1     -51.269  25.428  33.324  0.00  0.00     0.084 A 
ATOM      3  S   UNL d   1     -49.999  25.125  33.324  0.00  0.00    -0.068 SA
ATOM      4  C   UNL d   1     -51.193  24.633  33.315  0.00  0.00     0.013 A 
ATOM      5  C   UNL d   1     -50.428  24.445  33.315  0.00  0.00     0.031 A 
ATOM      6  C   UNL d   1     -51.828  24.072  33.306  0.00  0.00     0.001 C 
ATOM      7  C   UNL d   1     -50.136  23.661  33.306  0.00  0.00     0.007 C 
ENDROOT
BRANCH   1   8
ATOM      8  N   UNL d   1     -50.202  27.118  33.347  0.00  0.00    -0.184 NA
ATOM      9  C   UNL d   1     -49.654  27.413  33.864  0.00  0.00     0.369 C 
ATOM     10  N   UNL d   1     -49.460  28.219  33.886  0.00  0.00    -0.191 NA
ATOM     11  O   UNL d   1     -49.278  26.895  34.385  0.00  0.00    -0.242 OA
BRANCH  10  12
ATOM     12  C   UNL d   1     -48.909  28.501  34.410  0.00  0.00     0.086 A 
ATOM     13  C   UNL d   1     -48.488  29.196  34.241  0.00  0.00     0.019 A 
ATOM     14  C   UNL d   1     -47.938  29.485  34.753  0.00  0.00     0.002 A 
ATOM     15  C   UNL d   1     -47.786  29.087  35.462  0.00  0.00     0.000 A 
ATOM     16  C   UNL d   1     -48.204  28.385  35.644  0.00  0.00     0.002 A 
ATOM     17  C   UNL d   1     -48.762  28.111  35.101  0.00  0.00     0.019 A 
ENDBRANCH  10  12
ENDBRANCH   1   8
BRANCH   2  18
ATOM     18  C   UNL d   1     -51.981  25.857  33.327  0.00  0.00     0.299 C 
ATOM     19  O   UNL d   1     -51.972  26.688  33.344  0.00  0.00    -0.264 OA
ATOM     20  N   UNL d   1     -52.715  25.465  33.313  0.00  0.00    -0.102 N 
ENDBRANCH   2  18
TORSDOF 3
ENDMDL
MODEL 2
REMARK VINA RESULT:      50.3      1.263      1.782
REMARK  3 active torsions:
REMARK  status: ('A' for Active; 'I' for Inactive)
REMARK    1  A    between atoms: N_5  and  C_1 
REMARK    2  A    between atoms: C_8  and  C_2 
REMARK       I    between atoms: C_7  and  N_5 
REMARK       I    between atoms: N_9  and  C_7 
REMARK    3  A    between atoms: C_13  and  N_9 
ROOT
ATOM      1  C   UNL d   1     -50.407  26.484  33.501  0.00  0.00     0.120 A 
ATOM      2  C   UNL d   1     -50.579  25.680  33.426  0.00  0.00     0.084 A 
ATOM      3  S   UNL d   1     -51.125  26.864  33.501  0.00  0.00    -0.068 SA
ATOM      4  C   UNL d   1     -51.373  25.601  33.385  0.00  0.00     0.013 A 
ATOM      5  C   UNL d   1     -51.707  26.314  33.430  0.00  0.00     0.031 A 
ATOM      6  C   UNL d   1     -51.797  24.873  33.306  0.00  0.00     0.001 C 
ATOM      7  C   UNL d   1     -52.532  26.448  33.405  0.00  0.00     0.007 C 
ENDROOT
BRANCH   1   8
ATOM      8  N   UNL d   1     -49.133  27.049  33.603  0.00  0.00    -0.184 NA
ATOM      9  C   UNL d   1     -48.972  27.612  34.162  0.00  0.00     0.369 C 
ATOM     10  N   UNL d   1     -48.221  27.957  34.235  0.00  0.00    -0.191 NA
ATOM     11  O   UNL d   1     -49.575  27.850  34.673  0.00  0.00    -0.242 OA
BRANCH  10  12
ATOM     12  C   UNL d   1     -48.074  28.520  34.800  0.00  0.00     0.086 A 
ATOM     13  C   UNL d   1     -48.283  28.383  35.591  0.00  0.00     0.019 A 
ATOM     14  C   UNL d   1     -48.142  28.934  36.161  0.00  0.00     0.002 A 
ATOM     15  C   UNL d   1     -47.784  29.652  35.959  0.00  0.00     0.000 A 
ATOM     16  C   UNL d   1     -47.569  29.802  35.164  0.00  0.00     0.002 A 
ATOM     17  C   UNL d   1     -47.725  29.219  34.601  0.00  0.00     0.019 A 
ENDBRANCH  10  12
ENDBRANCH   1   8
BRANCH   2  18
ATOM     18  C   UNL d   1     -50.019  25.067  33.399  0.00  0.00     0.299 C 
ATOM     19  O   UNL d   1     -49.206  25.237  33.440  0.00  0.00    -0.264 OA
ATOM     20  N   UNL d   1     -50.259  24.273  33.332  0.00  0.00    -0.102 N 
ENDBRANCH   2  18
TORSDOF 3
ENDMDL
