MODEL 1
REMARK VINA RESULT:       7.4      0.000      0.000
REMARK  1 active torsions:
REMARK  status: ('A' for Active; 'I' for Inactive)
REMARK    1  A    between atoms: C_6  and  N_1 
ROOT
ATOM      1  N   UNL d   1      45.261 -14.433  44.605  0.00  0.00    -0.210 N 
ATOM      2  C   UNL d   1      45.746 -15.097  44.605  0.00  0.00     0.196 A 
ATOM      3  N   UNL d   1      44.494 -14.674  44.818  0.00  0.00    -0.161 NA
ATOM      4  C   UNL d   1      45.287 -15.747  44.816  0.00  0.00     0.127 A 
ATOM      5  C   UNL d   1      44.518 -15.493  44.948  0.00  0.00     0.134 A 
ATOM      6  C   UNL d   1      45.556 -16.529  44.885  0.00  0.00     0.106 C 
ATOM      7  N   UNL d   1      45.821 -17.313  44.955  0.00  0.00    -0.191 NA
ATOM      8  N   UNL d   1      46.570 -15.103  44.420  0.00  0.00    -0.126 N 
ENDROOT
BRANCH   1   9
ATOM      9  C   UNL d   1      45.453 -13.645  44.431  0.00  0.00     0.085 A 
ATOM     10  C   UNL d   1      45.169 -13.308  43.734  0.00  0.00     0.019 A 
ATOM     11  C   UNL d   1      45.361 -12.516  43.557  0.00  0.00     0.002 A 
ATOM     12  C   UNL d   1      45.077 -12.161  42.852  0.00  0.00     0.000 C 
ATOM     13  C   UNL d   1      45.828 -12.080  44.074  0.00  0.00     0.000 A 
ATOM     14  C   UNL d   1      46.110 -12.421  44.770  0.00  0.00     0.002 A 
ATOM     15  C   UNL d   1      45.921 -13.209  44.949  0.00  0.00     0.019 A 
ENDBRANCH   1   9
TORSDOF 1
ENDMDL
