MODEL 1
REMARK VINA RESULT:      24.3      0.000      0.000
REMARK  4 active torsions:
REMARK  status: ('A' for Active; 'I' for Inactive)
REMARK    1  A    between atoms: C_2  and  N_1 
REMARK    2  A    between atoms: C_6  and  C_2 
REMARK    3  A    between atoms: C_7  and  C_2 
REMARK    4  A    between atoms: C_9  and  C_6 
ROOT
ATOM      1  C   UNL d   1      60.197  49.440  50.920  0.00  0.00     0.153 C 
ENDROOT
BRANCH   1   2
ATOM      2  N   UNL d   1      59.454  49.523  50.569  0.00  0.00    -0.224 N 
ATOM      3  N   UNL d   1      58.729  49.502  50.937  0.00  0.00    -0.165 NA
ATOM      4  C   UNL d   1      58.145  49.608  50.375  0.00  0.00     0.103 A 
ATOM      5  C   UNL d   1      57.300  49.625  50.520  0.00  0.00     0.022 C 
ATOM      6  C   UNL d   1      58.505  49.698  49.639  0.00  0.00     0.040 A 
ATOM      7  C   UNL d   1      59.304  49.646  49.759  0.00  0.00     0.085 A 
ATOM      8  C   UNL d   1      59.881  49.708  49.149  0.00  0.00     0.021 C 
ENDBRANCH   1   2
BRANCH   1   9
ATOM      9  C   UNL d   1      60.856  49.218  50.465  0.00  0.00     0.096 C 
BRANCH   9  10
ATOM     10  C   UNL d   1      61.297  48.561  50.684  0.00  0.00     0.213 C 
ATOM     11  O   UNL d   1      62.105  48.616  50.847  0.00  0.00    -0.644 OA
ATOM     12  O   UNL d   1      60.957  47.805  50.756  0.00  0.00    -0.644 OA
ENDBRANCH   9  10
ENDBRANCH   1   9
BRANCH   1  13
ATOM     13  C   UNL d   1      60.288  49.577  51.722  0.00  0.00     0.230 C 
ATOM     14  O   UNL d   1      61.050  49.605  52.047  0.00  0.00    -0.643 OA
ATOM     15  O   UNL d   1      59.626  49.688  52.214  0.00  0.00    -0.643 OA
ENDBRANCH   1  13
TORSDOF 4
ENDMDL
