MODEL 1
REMARK VINA RESULT:      -3.3      0.000      0.000
REMARK  4 active torsions:
REMARK  status: ('A' for Active; 'I' for Inactive)
REMARK    1  A    between atoms: C_10  and  N_1 
REMARK       I    between atoms: C_6  and  N_9 
REMARK    2  A    between atoms: C_8  and  C_6 
REMARK    3  A    between atoms: N_9  and  C_12 
REMARK    4  A    between atoms: C_12  and  C_10 
ROOT
ATOM      1  C   UNL d   1      57.180  -0.742  30.700  0.00  0.00     0.101 C 
ENDROOT
BRANCH   1   2
ATOM      2  N   UNL d   1      57.937  -0.660  30.382  0.00  0.00    -0.304 N 
ATOM      3  C   UNL d   1      58.434  -0.004  30.473  0.00  0.00     0.064 A 
ATOM      4  C   UNL d   1      59.133  -0.154  30.067  0.00  0.00     0.019 A 
ATOM      5  C   UNL d   1      58.258   0.680  30.899  0.00  0.00     0.019 C 
ATOM      6  C   UNL d   1      59.077  -0.901  29.720  0.00  0.00     0.018 A 
ATOM      7  C   UNL d   1      58.339  -1.216  29.913  0.00  0.00     0.064 A 
ATOM      8  C   UNL d   1      59.593  -1.341  29.255  0.00  0.00     0.002 A 
ATOM      9  C   UNL d   1      58.116  -1.961  29.647  0.00  0.00     0.018 A 
ATOM     10  C   UNL d   1      58.632  -2.401  29.182  0.00  0.00     0.002 A 
ATOM     11  C   UNL d   1      59.381  -2.096  28.979  0.00  0.00     0.000 A 
ENDBRANCH   1   2
BRANCH   1  12
ATOM     12  C   UNL d   1      57.086  -0.842  31.513  0.00  0.00     0.121 C 
BRANCH  12  13
ATOM     13  N   UNL d   1      56.704  -1.515  31.801  0.00  0.00    -0.205 NA
ATOM     14  C   UNL d   1      56.258  -1.475  32.492  0.00  0.00     0.279 C 
ATOM     15  O   UNL d   1      55.876  -2.147  32.780  0.00  0.00    -0.265 OA
BRANCH  14  16
ATOM     16  C   UNL d   1      56.195  -0.756  32.900  0.00  0.00     0.058 A 
ATOM     17  C   UNL d   1      55.569  -0.270  32.751  0.00  0.00     0.005 A 
ATOM     18  C   UNL d   1      55.500   0.448  33.154  0.00  0.00     0.000 A 
ATOM     19  C   UNL d   1      56.060   0.681  33.707  0.00  0.00     0.000 A 
ATOM     20  C   UNL d   1      56.709   0.174  33.858  0.00  0.00     0.000 A 
ATOM     21  C   UNL d   1      56.773  -0.546  33.451  0.00  0.00     0.005 A 
ENDBRANCH  14  16
ENDBRANCH  12  13
ENDBRANCH   1  12
TORSDOF 4
ENDMDL
MODEL 2
REMARK VINA RESULT:      -2.7      8.136      8.912
REMARK  4 active torsions:
REMARK  status: ('A' for Active; 'I' for Inactive)
REMARK    1  A    between atoms: C_10  and  N_1 
REMARK       I    between atoms: C_6  and  N_9 
REMARK    2  A    between atoms: C_8  and  C_6 
REMARK    3  A    between atoms: N_9  and  C_12 
REMARK    4  A    between atoms: C_12  and  C_10 
ROOT
ATOM      1  C   UNL d   1      59.670  -9.811  33.750  0.00  0.00     0.101 C 
ENDROOT
BRANCH   1   2
ATOM      2  N   UNL d   1      59.696  -9.600  32.952  0.00  0.00    -0.304 N 
ATOM      3  C   UNL d   1      60.366  -9.342  32.540  0.00  0.00     0.064 A 
ATOM      4  C   UNL d   1      60.145  -9.191  31.762  0.00  0.00     0.019 A 
ATOM      5  C   UNL d   1      61.123  -9.253  32.855  0.00  0.00     0.019 C 
ATOM      6  C   UNL d   1      59.340  -9.353  31.684  0.00  0.00     0.018 A 
ATOM      7  C   UNL d   1      59.059  -9.605  32.419  0.00  0.00     0.064 A 
ATOM      8  C   UNL d   1      58.819  -9.306  31.050  0.00  0.00     0.002 A 
ATOM      9  C   UNL d   1      58.270  -9.809  32.521  0.00  0.00     0.018 A 
ATOM     10  C   UNL d   1      57.749  -9.763  31.886  0.00  0.00     0.002 A 
ATOM     11  C   UNL d   1      58.018  -9.509  31.138  0.00  0.00     0.000 A 
ENDBRANCH   1   2
BRANCH   1  12
ATOM     12  C   UNL d   1      59.571  -9.230  34.325  0.00  0.00     0.121 C 
BRANCH  12  13
ATOM     13  N   UNL d   1      59.124  -9.393  34.999  0.00  0.00    -0.205 NA
ATOM     14  C   UNL d   1      59.166  -8.897  35.655  0.00  0.00     0.279 C 
ATOM     15  O   UNL d   1      58.719  -9.060  36.330  0.00  0.00    -0.265 OA
BRANCH  14  16
ATOM     16  C   UNL d   1      59.660  -8.231  35.636  0.00  0.00     0.058 A 
ATOM     17  C   UNL d   1      59.352  -7.515  35.428  0.00  0.00     0.005 A 
ATOM     18  C   UNL d   1      59.838  -6.848  35.407  0.00  0.00     0.000 A 
ATOM     19  C   UNL d   1      60.636  -6.897  35.595  0.00  0.00     0.000 A 
ATOM     20  C   UNL d   1      60.952  -7.642  35.811  0.00  0.00     0.000 A 
ATOM     21  C   UNL d   1      60.458  -8.309  35.830  0.00  0.00     0.005 A 
ENDBRANCH  14  16
ENDBRANCH  12  13
ENDBRANCH   1  12
TORSDOF 4
ENDMDL
MODEL 3
REMARK VINA RESULT:      -1.9      1.969      4.485
REMARK  4 active torsions:
REMARK  status: ('A' for Active; 'I' for Inactive)
REMARK    1  A    between atoms: C_10  and  N_1 
REMARK       I    between atoms: C_6  and  N_9 
REMARK    2  A    between atoms: C_8  and  C_6 
REMARK    3  A    between atoms: N_9  and  C_12 
REMARK    4  A    between atoms: C_12  and  C_10 
ROOT
ATOM      1  C   UNL d   1      58.879   0.638  30.548  0.00  0.00     0.101 C 
ENDROOT
BRANCH   1   2
ATOM      2  N   UNL d   1      58.099   0.651  30.819  0.00  0.00    -0.304 N 
ATOM      3  C   UNL d   1      57.421   0.672  30.345  0.00  0.00     0.064 A 
ATOM      4  C   UNL d   1      56.764   0.680  30.839  0.00  0.00     0.019 A 
ATOM      5  C   UNL d   1      57.408   0.682  29.520  0.00  0.00     0.019 C 
ATOM      6  C   UNL d   1      57.026   0.665  31.621  0.00  0.00     0.018 A 
ATOM      7  C   UNL d   1      57.851   0.647  31.612  0.00  0.00     0.064 A 
ATOM      8  C   UNL d   1      56.632   0.665  32.342  0.00  0.00     0.002 A 
ATOM      9  C   UNL d   1      58.280   0.629  32.312  0.00  0.00     0.018 A 
ATOM     10  C   UNL d   1      57.886   0.629  33.034  0.00  0.00     0.002 A 
ATOM     11  C   UNL d   1      57.053   0.647  33.060  0.00  0.00     0.000 A 
ENDBRANCH   1   2
BRANCH   1  12
ATOM     12  C   UNL d   1      59.104   0.092  29.973  0.00  0.00     0.121 C 
BRANCH  12  13
ATOM     13  N   UNL d   1      59.776   0.233  29.516  0.00  0.00    -0.205 NA
ATOM     14  C   UNL d   1      60.101  -0.371  29.059  0.00  0.00     0.279 C 
ATOM     15  O   UNL d   1      60.773  -0.230  28.602  0.00  0.00    -0.265 OA
BRANCH  14  16
ATOM     16  C   UNL d   1      59.750  -1.122  29.060  0.00  0.00     0.058 A 
ATOM     17  C   UNL d   1      59.213  -1.309  28.488  0.00  0.00     0.005 A 
ATOM     18  C   UNL d   1      58.859  -2.055  28.484  0.00  0.00     0.000 A 
ATOM     19  C   UNL d   1      59.044  -2.617  29.054  0.00  0.00     0.000 A 
ATOM     20  C   UNL d   1      59.602  -2.419  29.646  0.00  0.00     0.000 A 
ATOM     21  C   UNL d   1      59.954  -1.667  29.645  0.00  0.00     0.005 A 
ENDBRANCH  14  16
ENDBRANCH  12  13
ENDBRANCH   1  12
TORSDOF 4
ENDMDL
