MODEL 1
REMARK VINA RESULT:      54.8      0.000      0.000
REMARK  6 active torsions:
REMARK  status: ('A' for Active; 'I' for Inactive)
REMARK    1  A    between atoms: C_13  and  S_1 
REMARK    2  A    between atoms: C_2  and  C_6 
REMARK       I    between atoms: N_3  and  C_2 
REMARK    3  A    between atoms: C_4  and  N_3 
REMARK    4  A    between atoms: N_5  and  C_6 
REMARK       I    between atoms: C_7  and  N_5 
REMARK    5  A    between atoms: C_6  and  C_9 
REMARK    6  A    between atoms: C_9  and  C_13 
ROOT
ATOM      1  C   UNL d   1     -50.830  26.602  33.457  0.00  0.00     0.297 C 
ATOM      2  N   UNL d   1     -51.055  25.825  33.306  0.00  0.00    -0.207 NA
ATOM      3  O   UNL d   1     -51.406  27.170  33.640  0.00  0.00    -0.264 OA
ENDROOT
BRANCH   1   4
ATOM      4  C   UNL d   1     -50.028  26.817  33.427  0.00  0.00     0.143 C 
BRANCH   4   5
ATOM      5  N   UNL d   1     -49.453  26.238  33.307  0.00  0.00    -0.203 NA
ATOM      6  C   UNL d   1     -49.190  25.781  33.939  0.00  0.00     0.280 C 
ATOM      7  O   UNL d   1     -49.502  25.902  34.691  0.00  0.00    -0.265 OA
ATOM      8  C   UNL d   1     -48.615  25.202  33.820  0.00  0.00     0.068 C 
ENDBRANCH   4   5
BRANCH   4   9
ATOM      9  C   UNL d   1     -49.807  27.606  33.516  0.00  0.00     0.036 C 
BRANCH   9  10
ATOM     10  C   UNL d   1     -49.861  27.964  34.255  0.00  0.00     0.096 C 
BRANCH  10  11
ATOM     11  S   UNL d   1     -49.353  28.584  34.447  0.00  0.00     0.192 S 
ATOM     12  O   UNL d   1     -48.886  29.274  34.437  0.00  0.00    -0.222 OA
ATOM     13  O   UNL d   1     -49.589  28.743  33.667  0.00  0.00    -0.222 OA
ATOM     14  C   UNL d   1     -49.004  28.612  35.192  0.00  0.00     0.145 C 
ENDBRANCH  10  11
ENDBRANCH   9  10
ENDBRANCH   4   9
ENDBRANCH   1   4
BRANCH   2  15
ATOM     15  C   UNL d   1     -51.855  25.613  33.337  0.00  0.00     0.085 A 
ATOM     16  C   UNL d   1     -52.075  24.813  33.338  0.00  0.00     0.018 A 
ATOM     17  C   UNL d   1     -52.868  24.595  33.368  0.00  0.00     0.002 A 
ATOM     18  C   UNL d   1     -51.486  24.236  33.308  0.00  0.00     0.002 A 
ATOM     19  C   UNL d   1     -53.090  23.806  33.369  0.00  0.00     0.000 A 
ATOM     20  C   UNL d   1     -53.457  25.190  33.399  0.00  0.00     0.000 A 
ATOM     21  C   UNL d   1     -52.500  23.218  33.339  0.00  0.00     0.000 A 
ATOM     22  C   UNL d   1     -51.705  23.439  33.308  0.00  0.00     0.000 A 
ATOM     23  C   UNL d   1     -53.230  25.979  33.397  0.00  0.00     0.002 A 
ATOM     24  C   UNL d   1     -52.441  26.193  33.367  0.00  0.00     0.019 A 
ENDBRANCH   2  15
TORSDOF 6
ENDMDL
MODEL 2
REMARK VINA RESULT:      55.7      2.040      4.285
REMARK  6 active torsions:
REMARK  status: ('A' for Active; 'I' for Inactive)
REMARK    1  A    between atoms: C_13  and  S_1 
REMARK    2  A    between atoms: C_2  and  C_6 
REMARK       I    between atoms: N_3  and  C_2 
REMARK    3  A    between atoms: C_4  and  N_3 
REMARK    4  A    between atoms: N_5  and  C_6 
REMARK       I    between atoms: C_7  and  N_5 
REMARK    5  A    between atoms: C_6  and  C_9 
REMARK    6  A    between atoms: C_9  and  C_13 
ROOT
ATOM      1  C   UNL d   1     -51.145  25.683  33.749  0.00  0.00     0.297 C 
ATOM      2  N   UNL d   1     -50.514  26.135  34.023  0.00  0.00    -0.207 NA
ATOM      3  O   UNL d   1     -51.748  26.042  33.307  0.00  0.00    -0.264 OA
ENDROOT
BRANCH   1   4
ATOM      4  C   UNL d   1     -51.177  24.869  33.914  0.00  0.00     0.143 C 
BRANCH   4   5
ATOM      5  N   UNL d   1     -50.484  24.422  33.904  0.00  0.00    -0.203 NA
ATOM      6  C   UNL d   1     -50.496  23.650  33.617  0.00  0.00     0.280 C 
ATOM      7  O   UNL d   1     -51.200  23.326  33.340  0.00  0.00    -0.265 OA
ATOM      8  C   UNL d   1     -49.803  23.202  33.608  0.00  0.00     0.068 C 
ENDBRANCH   4   5
BRANCH   4   9
ATOM      9  C   UNL d   1     -51.898  24.511  34.086  0.00  0.00     0.036 C 
BRANCH   9  10
ATOM     10  C   UNL d   1     -52.518  24.559  33.547  0.00  0.00     0.096 C 
BRANCH  10  11
ATOM     11  S   UNL d   1     -53.095  23.971  33.532  0.00  0.00     0.192 S 
ATOM     12  O   UNL d   1     -53.809  23.543  33.567  0.00  0.00    -0.222 OA
ATOM     13  O   UNL d   1     -53.510  24.663  33.723  0.00  0.00    -0.222 OA
ATOM     14  C   UNL d   1     -52.882  23.195  33.357  0.00  0.00     0.145 C 
ENDBRANCH  10  11
ENDBRANCH   9  10
ENDBRANCH   4   9
ENDBRANCH   1   4
BRANCH   2  15
ATOM     15  C   UNL d   1     -50.484  26.945  33.857  0.00  0.00     0.085 A 
ATOM     16  C   UNL d   1     -49.813  27.389  34.063  0.00  0.00     0.018 A 
ATOM     17  C   UNL d   1     -49.776  28.195  33.901  0.00  0.00     0.002 A 
ATOM     18  C   UNL d   1     -49.180  27.010  34.432  0.00  0.00     0.002 A 
ATOM     19  C   UNL d   1     -49.115  28.637  34.102  0.00  0.00     0.000 A 
ATOM     20  C   UNL d   1     -50.424  28.570  33.525  0.00  0.00     0.000 A 
ATOM     21  C   UNL d   1     -48.473  28.260  34.476  0.00  0.00     0.000 A 
ATOM     22  C   UNL d   1     -48.512  27.451  34.637  0.00  0.00     0.000 A 
ATOM     23  C   UNL d   1     -51.084  28.123  33.326  0.00  0.00     0.002 A 
ATOM     24  C   UNL d   1     -51.118  27.321  33.488  0.00  0.00     0.019 A 
ENDBRANCH   2  15
TORSDOF 6
ENDMDL
