MODEL 1
REMARK VINA RESULT:      82.6      0.000      0.000
REMARK  5 active torsions:
REMARK  status: ('A' for Active; 'I' for Inactive)
REMARK    1  A    between atoms: N_2  and  S_1 
REMARK    2  A    between atoms: C_4  and  S_1 
REMARK    3  A    between atoms: C_5  and  N_3 
REMARK    4  A    between atoms: C_11  and  C_4 
REMARK    5  A    between atoms: C_15  and  C_11 
ROOT
ATOM      1  N   UNL d   1      60.388  48.111  50.589  0.00  0.00    -0.226 N 
ATOM      2  N   UNL d   1      58.881  48.752  50.687  0.00  0.00    -0.301 N 
ATOM      3  C   UNL d   1      60.287  48.920  50.524  0.00  0.00     0.111 A 
ATOM      4  C   UNL d   1      59.736  47.620  50.703  0.00  0.00     0.111 A 
ATOM      5  C   UNL d   1      58.990  47.944  50.751  0.00  0.00     0.100 A 
ATOM      6  C   UNL d   1      59.533  49.243  50.573  0.00  0.00     0.100 A 
ENDROOT
BRANCH   1   7
ATOM      7  S   UNL d   1      61.160  47.786  50.539  0.00  0.00     0.272 S 
ATOM      8  O   UNL d   1      61.241  48.104  49.771  0.00  0.00    -0.200 OA
ATOM      9  O   UNL d   1      61.074  47.473  51.301  0.00  0.00    -0.200 OA
BRANCH   7  10
ATOM     10  C   UNL d   1      61.920  47.467  50.487  0.00  0.00     0.116 C 
BRANCH  10  11
ATOM     11  C   UNL d   1      62.245  47.292  49.737  0.00  0.00     0.014 C 
BRANCH  11  12
ATOM     12  C   UNL d   1      62.218  46.517  49.444  0.00  0.00     0.001 A 
ATOM     13  C   UNL d   1      61.501  46.217  49.134  0.00  0.00     0.000 A 
ATOM     14  C   UNL d   1      61.469  45.437  48.838  0.00  0.00     0.000 A 
ATOM     15  C   UNL d   1      62.147  44.961  48.853  0.00  0.00     0.000 A 
ATOM     16  C   UNL d   1      62.870  45.256  49.164  0.00  0.00     0.000 A 
ATOM     17  C   UNL d   1      62.902  46.037  49.460  0.00  0.00     0.000 A 
ENDBRANCH  11  12
ENDBRANCH  10  11
ENDBRANCH   7  10
ENDBRANCH   1   7
BRANCH   2  18
ATOM     18  C   UNL d   1      58.131  49.068  50.736  0.00  0.00     0.065 A 
ATOM     19  C   UNL d   1      57.697  49.187  50.054  0.00  0.00     0.029 A 
ATOM     20  C   UNL d   1      56.949  49.502  50.100  0.00  0.00     0.059 A 
ATOM     21 CL   UNL d   1      56.507  49.624  49.409  0.00  0.00    -0.082 Cl
ATOM     22  C   UNL d   1      56.628  49.701  50.833  0.00  0.00     0.011 A 
ATOM     23  C   UNL d   1      57.067  49.579  51.511  0.00  0.00     0.002 A 
ATOM     24  C   UNL d   1      57.817  49.263  51.463  0.00  0.00     0.018 A 
ENDBRANCH   2  18
TORSDOF 5
ENDMDL
