MODEL 1
REMARK VINA RESULT:      60.1      0.000      0.000
REMARK  3 active torsions:
REMARK  status: ('A' for Active; 'I' for Inactive)
REMARK    1  A    between atoms: C_4  and  C_1 
REMARK    2  A    between atoms: C_5  and  C_6 
REMARK       I    between atoms: C_6  and  N_7 
REMARK    3  A    between atoms: N_7  and  C_8 
ROOT
ATOM      1  C   UNL d   1     -50.946  26.769  33.342  0.00  0.00     0.042 A 
ATOM      2  C   UNL d   1     -50.152  26.979  33.364  0.00  0.00     0.087 A 
ATOM      3  C   UNL d   1     -51.534  27.355  33.320  0.00  0.00     0.004 A 
ATOM      4  C   UNL d   1     -49.937  27.772  33.364  0.00  0.00     0.019 A 
ATOM      5  C   UNL d   1     -51.311  28.149  33.320  0.00  0.00     0.000 A 
ATOM      6  C   UNL d   1     -50.512  28.355  33.342  0.00  0.00     0.002 A 
ENDROOT
BRANCH   1   7
ATOM      7  C   UNL d   1     -51.170  25.975  33.343  0.00  0.00     0.112 A 
ATOM      8  N   UNL d   1     -50.718  25.296  33.345  0.00  0.00    -0.238 NA
ATOM      9  C   UNL d   1     -51.235  24.652  33.344  0.00  0.00     0.088 A 
ATOM     10  C   UNL d   1     -51.101  23.832  33.346  0.00  0.00     0.020 A 
ATOM     11  C   UNL d   1     -52.003  24.942  33.340  0.00  0.00     0.049 A 
ATOM     12  C   UNL d   1     -51.736  23.311  33.344  0.00  0.00     0.002 A 
ATOM     13  C   UNL d   1     -52.511  23.601  33.340  0.00  0.00     0.001 A 
ATOM     14  C   UNL d   1     -52.646  24.421  33.338  0.00  0.00     0.008 A 
ATOM     15  S   UNL d   1     -51.960  25.761  33.339  0.00  0.00    -0.066 SA
ENDBRANCH   1   7
BRANCH   2  16
ATOM     16  N   UNL d   1     -49.572  26.388  33.386  0.00  0.00    -0.206 NA
ATOM     17  C   UNL d   1     -48.904  26.482  33.877  0.00  0.00     0.304 C 
ATOM     18  O   UNL d   1     -48.328  25.895  33.899  0.00  0.00    -0.263 OA
BRANCH  17  19
ATOM     19  C   UNL d   1     -48.817  27.159  34.340  0.00  0.00     0.182 A 
ATOM     20  O   UNL d   1     -49.300  27.277  34.999  0.00  0.00    -0.296 OA
ATOM     21  C   UNL d   1     -49.212  27.954  35.462  0.00  0.00     0.150 A 
ATOM     22  C   UNL d   1     -48.642  28.514  35.267  0.00  0.00     0.149 A 
ATOM     23  O   UNL d   1     -48.159  28.396  34.607  0.00  0.00    -0.299 OA
ATOM     24  C   UNL d   1     -48.247  27.718  34.144  0.00  0.00     0.152 A 
ENDBRANCH  17  19
ENDBRANCH   2  16
TORSDOF 3
ENDMDL
