MODEL 1
REMARK VINA RESULT:      -3.5      0.000      0.000
REMARK  5 active torsions:
REMARK  status: ('A' for Active; 'I' for Inactive)
REMARK    1  A    between atoms: C_5  and  N_1 
REMARK    2  A    between atoms: C_12  and  C_2 
REMARK    3  A    between atoms: S_18  and  C_3 
REMARK    4  A    between atoms: C_9  and  C_12 
REMARK    5  A    between atoms: C_23  and  S_18 
ROOT
ATOM      1  N   UNL d   1      58.508  -0.751  29.873  0.00  0.00    -0.269 N 
ATOM      2  C   UNL d   1      57.945  -0.544  30.434  0.00  0.00     0.172 A 
ATOM      3  C   UNL d   1      58.410  -1.539  29.707  0.00  0.00     0.201 A 
ATOM      4  N   UNL d   1      57.506  -1.213  30.606  0.00  0.00    -0.128 NA
ATOM      5  N   UNL d   1      57.798  -1.835  30.150  0.00  0.00    -0.121 NA
ENDROOT
BRANCH   2   6
ATOM      6  C   UNL d   1      57.908   0.218  30.711  0.00  0.00     0.059 C 
BRANCH   6   7
ATOM      7  C   UNL d   1      57.594   0.363  31.457  0.00  0.00     0.094 A 
ATOM      8  C   UNL d   1      56.782   0.422  31.558  0.00  0.00     0.082 A 
ATOM      9  C   UNL d   1      56.471   0.568  32.308  0.00  0.00     0.285 A 
ATOM     10  O   UNL d   1      55.637   0.629  32.416  0.00  0.00    -0.265 OA
ATOM     11  N   UNL d   1      56.989   0.654  32.955  0.00  0.00    -0.152 NA
ATOM     12  C   UNL d   1      57.795   0.595  32.851  0.00  0.00     0.371 A 
ATOM     13  N   UNL d   1      58.102   0.448  32.093  0.00  0.00    -0.191 NA
ATOM     14  O   UNL d   1      58.299   0.682  33.500  0.00  0.00    -0.242 OA
ENDBRANCH   6   7
ENDBRANCH   2   6
BRANCH   1  15
ATOM     15  C   UNL d   1      59.077  -0.277  29.525  0.00  0.00     0.067 A 
ATOM     16  C   UNL d   1      58.912   0.112  28.817  0.00  0.00     0.016 A 
ATOM     17  C   UNL d   1      59.484   0.589  28.468  0.00  0.00     0.001 A 
ATOM     18  C   UNL d   1      58.167   0.022  28.460  0.00  0.00     0.002 C 
ATOM     19  C   UNL d   1      60.225   0.680  28.821  0.00  0.00     0.000 A 
ATOM     20  C   UNL d   1      60.396   0.287  29.538  0.00  0.00     0.001 A 
ATOM     21  C   UNL d   1      59.816  -0.189  29.882  0.00  0.00     0.018 A 
ATOM     22  C   UNL d   1      61.132   0.368  29.903  0.00  0.00     0.000 C 
ENDBRANCH   1  15
BRANCH   3  23
ATOM     23  S   UNL d   1      58.875  -1.975  29.158  0.00  0.00    -0.048 SA
BRANCH  23  24
ATOM     24  C   UNL d   1      58.795  -2.805  29.120  0.00  0.00     0.038 C 
ATOM     25  C   UNL d   1      59.332  -3.247  28.675  0.00  0.00     0.008 C 
ENDBRANCH  23  24
ENDBRANCH   3  23
TORSDOF 5
ENDMDL
MODEL 2
REMARK VINA RESULT:      -0.6      1.400      2.341
REMARK  5 active torsions:
REMARK  status: ('A' for Active; 'I' for Inactive)
REMARK    1  A    between atoms: C_5  and  N_1 
REMARK    2  A    between atoms: C_12  and  C_2 
REMARK    3  A    between atoms: S_18  and  C_3 
REMARK    4  A    between atoms: C_9  and  C_12 
REMARK    5  A    between atoms: C_23  and  S_18 
ROOT
ATOM      1  N   UNL d   1      58.394  -0.099  30.710  0.00  0.00    -0.269 N 
ATOM      2  C   UNL d   1      57.825  -0.039  31.300  0.00  0.00     0.172 A 
ATOM      3  C   UNL d   1      59.034   0.343  30.942  0.00  0.00     0.201 A 
ATOM      4  N   UNL d   1      58.127   0.442  31.889  0.00  0.00    -0.128 NA
ATOM      5  N   UNL d   1      58.883   0.680  31.664  0.00  0.00    -0.121 NA
ENDROOT
BRANCH   2   6
ATOM      6  C   UNL d   1      57.116  -0.426  31.222  0.00  0.00     0.059 C 
BRANCH   6   7
ATOM      7  C   UNL d   1      56.605  -0.469  31.864  0.00  0.00     0.094 A 
ATOM      8  C   UNL d   1      55.989   0.067  31.936  0.00  0.00     0.082 A 
ATOM      9  C   UNL d   1      55.477   0.021  32.582  0.00  0.00     0.285 A 
ATOM     10  O   UNL d   1      54.842   0.569  32.660  0.00  0.00    -0.265 OA
ATOM     11  N   UNL d   1      55.597  -0.574  33.154  0.00  0.00    -0.152 NA
ATOM     12  C   UNL d   1      56.210  -1.104  33.080  0.00  0.00     0.371 A 
ATOM     13  N   UNL d   1      56.722  -1.052  32.427  0.00  0.00    -0.191 NA
ATOM     14  O   UNL d   1      56.318  -1.689  33.653  0.00  0.00    -0.242 OA
ENDBRANCH   6   7
ENDBRANCH   2   6
BRANCH   1  15
ATOM     15  C   UNL d   1      58.357  -0.517  30.007  0.00  0.00     0.067 A 
ATOM     16  C   UNL d   1      58.148  -0.131  29.310  0.00  0.00     0.016 A 
ATOM     17  C   UNL d   1      58.110  -0.551  28.604  0.00  0.00     0.001 A 
ATOM     18  C   UNL d   1      57.976   0.682  29.323  0.00  0.00     0.002 C 
ATOM     19  C   UNL d   1      58.281  -1.360  28.589  0.00  0.00     0.000 A 
ATOM     20  C   UNL d   1      58.492  -1.753  29.294  0.00  0.00     0.001 A 
ATOM     21  C   UNL d   1      58.528  -1.324  29.998  0.00  0.00     0.018 A 
ATOM     22  C   UNL d   1      58.665  -2.561  29.295  0.00  0.00     0.000 C 
ENDBRANCH   1  15
BRANCH   3  23
ATOM     23  S   UNL d   1      59.743   0.432  30.496  0.00  0.00    -0.048 SA
BRANCH  23  24
ATOM     24  C   UNL d   1      60.443   0.672  30.882  0.00  0.00     0.038 C 
ATOM     25  C   UNL d   1      61.133   0.228  30.787  0.00  0.00     0.008 C 
ENDBRANCH  23  24
ENDBRANCH   3  23
TORSDOF 5
ENDMDL
