MODEL 1
REMARK VINA RESULT:       8.8      0.000      0.000
REMARK  3 active torsions:
REMARK  status: ('A' for Active; 'I' for Inactive)
REMARK    1  A    between atoms: C_6  and  C_1 
REMARK    2  A    between atoms: O_2  and  C_6 
REMARK    3  A    between atoms: C_3  and  O_2 
ROOT
ATOM      1  C   UNL d   1      57.482  49.668  50.207  0.00  0.00     0.134 A 
ATOM      2  C   UNL d   1      56.763  49.599  50.605  0.00  0.00     0.218 A 
ATOM      3  O   UNL d   1      56.745  49.567  51.429  0.00  0.00    -0.284 OA
ATOM      4  C   UNL d   1      57.504  49.701  49.389  0.00  0.00     0.028 A 
ATOM      5  C   UNL d   1      56.059  49.563  50.188  0.00  0.00     0.044 A 
ATOM      6  C   UNL d   1      56.073  49.596  49.358  0.00  0.00     0.003 A 
ATOM      7  C   UNL d   1      56.793  49.665  48.960  0.00  0.00     0.002 A 
ENDROOT
BRANCH   1   8
ATOM      8  O   UNL d   1      58.190  49.704  50.629  0.00  0.00    -0.316 OA
BRANCH   8   9
ATOM      9  C   UNL d   1      58.914  49.662  50.224  0.00  0.00     0.246 C 
BRANCH   9  10
ATOM     10  C   UNL d   1      59.614  49.594  50.649  0.00  0.00     0.217 C 
ATOM     11  O   UNL d   1      60.327  49.458  50.273  0.00  0.00    -0.645 OA
ATOM     12  O   UNL d   1      59.640  49.659  51.468  0.00  0.00    -0.645 OA
ENDBRANCH   9  10
ENDBRANCH   8   9
ENDBRANCH   1   8
TORSDOF 3
ENDMDL
MODEL 2
REMARK VINA RESULT:       9.2      1.009      3.460
REMARK  3 active torsions:
REMARK  status: ('A' for Active; 'I' for Inactive)
REMARK    1  A    between atoms: C_6  and  C_1 
REMARK    2  A    between atoms: O_2  and  C_6 
REMARK    3  A    between atoms: C_3  and  O_2 
ROOT
ATOM      1  C   UNL d   1      59.496  49.698  50.759  0.00  0.00     0.134 A 
ATOM      2  C   UNL d   1      60.223  49.688  50.370  0.00  0.00     0.218 A 
ATOM      3  O   UNL d   1      60.255  49.687  49.546  0.00  0.00    -0.284 OA
ATOM      4  C   UNL d   1      59.461  49.700  51.577  0.00  0.00     0.028 A 
ATOM      5  C   UNL d   1      60.922  49.679  50.796  0.00  0.00     0.044 A 
ATOM      6  C   UNL d   1      60.894  49.681  51.627  0.00  0.00     0.003 A 
ATOM      7  C   UNL d   1      60.167  49.691  52.016  0.00  0.00     0.002 A 
ENDROOT
BRANCH   1   8
ATOM      8  O   UNL d   1      58.793  49.707  50.327  0.00  0.00    -0.316 OA
BRANCH   8   9
ATOM      9  C   UNL d   1      58.064  49.701  50.726  0.00  0.00     0.246 C 
BRANCH   9  10
ATOM     10  C   UNL d   1      57.366  49.653  50.295  0.00  0.00     0.217 C 
ATOM     11  O   UNL d   1      56.641  49.587  50.669  0.00  0.00    -0.645 OA
ATOM     12  O   UNL d   1      57.353  49.667  49.473  0.00  0.00    -0.645 OA
ENDBRANCH   9  10
ENDBRANCH   8   9
ENDBRANCH   1   8
TORSDOF 3
ENDMDL
