MODEL 1
REMARK VINA RESULT:      -4.7      0.000      0.000
REMARK  5 active torsions:
REMARK  status: ('A' for Active; 'I' for Inactive)
REMARK    1  A    between atoms: N_8  and  C_6 
REMARK    2  A    between atoms: C_7  and  O_9 
REMARK    3  A    between atoms: C_10  and  C_7 
REMARK    4  A    between atoms: O_9  and  N_8 
REMARK    5  A    between atoms: O_20  and  C_15 
ROOT
ATOM      1  O   UNL d   1      57.216  -1.125  31.143  0.00  0.00    -0.169 OA
ENDROOT
BRANCH   1   2
ATOM      2  C   UNL d   1      57.765  -0.476  30.277  0.00  0.00     0.319 C 
ATOM      3  O   UNL d   1      57.390   0.229  30.135  0.00  0.00    -0.257 OA
BRANCH   2   4
ATOM      4  C   UNL d   1      58.331  -0.534  29.848  0.00  0.00     0.065 A 
ATOM      5  C   UNL d   1      58.685   0.044  29.655  0.00  0.00     0.007 A 
ATOM      6  C   UNL d   1      59.247  -0.013  29.230  0.00  0.00     0.024 A 
ATOM      7  C   UNL d   1      59.447  -0.657  29.001  0.00  0.00     0.094 A 
ATOM      8  C   UNL d   1      59.088  -1.234  29.198  0.00  0.00     0.024 A 
ATOM      9  C   UNL d   1      58.532  -1.177  29.619  0.00  0.00     0.007 A 
BRANCH   7  10
ATOM     10  O   UNL d   1      60.014  -0.715  28.572  0.00  0.00    -0.328 OA
ATOM     11  C   UNL d   1      60.965  -0.825  28.643  0.00  0.00     0.181 C 
ENDBRANCH   7  10
ENDBRANCH   2   4
ENDBRANCH   1   2
BRANCH   1  12
ATOM     12  N   UNL d   1      56.932   0.019  31.697  0.00  0.00    -0.123 NA
BRANCH  12  13
ATOM     13  C   UNL d   1      56.665   0.159  32.470  0.00  0.00     0.108 A 
ATOM     14  C   UNL d   1      55.858   0.105  32.633  0.00  0.00     0.025 A 
ATOM     15  C   UNL d   1      55.578   0.243  33.402  0.00  0.00     0.041 A 
ATOM     16  C   UNL d   1      56.119   0.438  34.014  0.00  0.00     0.196 A 
ATOM     17  C   UNL d   1      54.766   0.191  33.578  0.00  0.00     0.003 C 
ATOM     18  C   UNL d   1      56.930   0.489  33.838  0.00  0.00     0.041 A 
ATOM     19  O   UNL d   1      55.846   0.577  34.786  0.00  0.00    -0.287 OA
ATOM     20  C   UNL d   1      57.211   0.352  33.069  0.00  0.00     0.025 A 
ATOM     21  C   UNL d   1      57.466   0.682  34.442  0.00  0.00     0.003 C 
ENDBRANCH  12  13
ENDBRANCH   1  12
TORSDOF 5
ENDMDL
MODEL 2
REMARK VINA RESULT:      -3.6      0.887      5.289
REMARK  5 active torsions:
REMARK  status: ('A' for Active; 'I' for Inactive)
REMARK    1  A    between atoms: N_8  and  C_6 
REMARK    2  A    between atoms: C_7  and  O_9 
REMARK    3  A    between atoms: C_10  and  C_7 
REMARK    4  A    between atoms: O_9  and  N_8 
REMARK    5  A    between atoms: O_20  and  C_15 
ROOT
ATOM      1  O   UNL d   1      57.761  -0.925  32.115  0.00  0.00    -0.169 OA
ENDROOT
BRANCH   1   2
ATOM      2  C   UNL d   1      56.691  -0.373  32.263  0.00  0.00     0.319 C 
ATOM      3  O   UNL d   1      56.404  -0.064  31.570  0.00  0.00    -0.257 OA
BRANCH   2   4
ATOM      4  C   UNL d   1      56.232  -0.237  32.791  0.00  0.00     0.065 A 
ATOM      5  C   UNL d   1      55.560  -0.444  32.732  0.00  0.00     0.007 A 
ATOM      6  C   UNL d   1      55.104  -0.310  33.256  0.00  0.00     0.024 A 
ATOM      7  C   UNL d   1      55.331   0.033  33.837  0.00  0.00     0.094 A 
ATOM      8  C   UNL d   1      56.006   0.238  33.890  0.00  0.00     0.024 A 
ATOM      9  C   UNL d   1      56.457   0.105  33.372  0.00  0.00     0.007 A 
BRANCH   7  10
ATOM     10  O   UNL d   1      54.871   0.169  34.366  0.00  0.00    -0.328 OA
ATOM     11  C   UNL d   1      54.851   0.641  35.200  0.00  0.00     0.181 C 
ENDBRANCH   7  10
ENDBRANCH   2   4
ENDBRANCH   1   2
BRANCH   1  12
ATOM     12  N   UNL d   1      57.589  -0.722  30.840  0.00  0.00    -0.123 NA
BRANCH  12  13
ATOM     13  C   UNL d   1      58.166  -0.708  30.243  0.00  0.00     0.108 A 
ATOM     14  C   UNL d   1      58.627  -0.030  30.147  0.00  0.00     0.025 A 
ATOM     15  C   UNL d   1      59.208  -0.002  29.555  0.00  0.00     0.041 A 
ATOM     16  C   UNL d   1      59.324  -0.665  29.053  0.00  0.00     0.196 A 
ATOM     17  C   UNL d   1      59.679   0.676  29.448  0.00  0.00     0.003 C 
ATOM     18  C   UNL d   1      58.853  -1.343  29.159  0.00  0.00     0.041 A 
ATOM     19  O   UNL d   1      59.903  -0.644  28.457  0.00  0.00    -0.287 OA
ATOM     20  C   UNL d   1      58.273  -1.371  29.752  0.00  0.00     0.025 A 
ATOM     21  C   UNL d   1      58.967  -2.000  28.664  0.00  0.00     0.003 C 
ENDBRANCH  12  13
ENDBRANCH   1  12
TORSDOF 5
ENDMDL
MODEL 3
REMARK VINA RESULT:      -1.9      0.940      5.203
REMARK  5 active torsions:
REMARK  status: ('A' for Active; 'I' for Inactive)
REMARK    1  A    between atoms: N_8  and  C_6 
REMARK    2  A    between atoms: C_7  and  O_9 
REMARK    3  A    between atoms: C_10  and  C_7 
REMARK    4  A    between atoms: O_9  and  N_8 
REMARK    5  A    between atoms: O_20  and  C_15 
ROOT
ATOM      1  O   UNL d   1      57.034  -1.312  31.091  0.00  0.00    -0.169 OA
ENDROOT
BRANCH   1   2
ATOM      2  C   UNL d   1      56.681  -0.366  31.763  0.00  0.00     0.319 C 
ATOM      3  O   UNL d   1      56.969   0.338  31.481  0.00  0.00    -0.257 OA
BRANCH   2   4
ATOM      4  C   UNL d   1      56.286  -0.244  32.344  0.00  0.00     0.065 A 
ATOM      5  C   UNL d   1      56.210   0.414  32.584  0.00  0.00     0.007 A 
ATOM      6  C   UNL d   1      55.818   0.534  33.160  0.00  0.00     0.024 A 
ATOM      7  C   UNL d   1      55.507  -0.013  33.491  0.00  0.00     0.094 A 
ATOM      8  C   UNL d   1      55.587  -0.672  33.245  0.00  0.00     0.024 A 
ATOM      9  C   UNL d   1      55.974  -0.791  32.676  0.00  0.00     0.007 A 
BRANCH   7  10
ATOM     10  O   UNL d   1      55.111   0.108  34.073  0.00  0.00    -0.328 OA
ATOM     11  C   UNL d   1      54.393   0.681  34.350  0.00  0.00     0.181 C 
ENDBRANCH   7  10
ENDBRANCH   2   4
ENDBRANCH   1   2
BRANCH   1  12
ATOM     12  N   UNL d   1      57.807  -0.469  30.469  0.00  0.00    -0.123 NA
BRANCH  12  13
ATOM     13  C   UNL d   1      58.446  -0.638  29.967  0.00  0.00     0.108 A 
ATOM     14  C   UNL d   1      58.485  -1.376  29.600  0.00  0.00     0.025 A 
ATOM     15  C   UNL d   1      59.118  -1.558  29.096  0.00  0.00     0.041 A 
ATOM     16  C   UNL d   1      59.720  -0.988  28.959  0.00  0.00     0.196 A 
ATOM     17  C   UNL d   1      59.169  -2.299  28.721  0.00  0.00     0.003 C 
ATOM     18  C   UNL d   1      59.670  -0.247  29.334  0.00  0.00     0.041 A 
ATOM     19  O   UNL d   1      60.357  -1.163  28.455  0.00  0.00    -0.287 OA
ATOM     20  C   UNL d   1      59.037  -0.065  29.838  0.00  0.00     0.025 A 
ATOM     21  C   UNL d   1      60.264   0.318  29.200  0.00  0.00     0.003 C 
ENDBRANCH  12  13
ENDBRANCH   1  12
TORSDOF 5
ENDMDL
