MODEL 1
REMARK VINA RESULT:       6.4      0.000      0.000
REMARK  5 active torsions:
REMARK  status: ('A' for Active; 'I' for Inactive)
REMARK    1  A    between atoms: C_7  and  N_1 
REMARK    2  A    between atoms: C_10  and  C_2 
REMARK    3  A    between atoms: C_11  and  C_5 
REMARK    4  A    between atoms: C_9  and  C_7 
REMARK    5  A    between atoms: O_16  and  C_9 
ROOT
ATOM      1  N   UNL d   1      32.895  19.380 -23.012  0.00  0.00    -0.286 N 
ATOM      2  C   UNL d   1      32.948  18.662 -22.610  0.00  0.00     0.148 A 
ATOM      3  N   UNL d   1      33.047  18.661 -21.794  0.00  0.00    -0.228 NA
ATOM      4  C   UNL d   1      33.041  20.076 -21.787  0.00  0.00     0.035 A 
ATOM      5  C   UNL d   1      32.943  20.085 -22.591  0.00  0.00     0.067 A 
ATOM      6  C   UNL d   1      33.094  19.358 -21.385  0.00  0.00     0.084 A 
ATOM      7  C   UNL d   1      33.088  20.776 -21.374  0.00  0.00     0.014 A 
ATOM      8  C   UNL d   1      33.192  19.352 -20.577  0.00  0.00     0.020 A 
ATOM      9  C   UNL d   1      33.188  20.775 -20.559  0.00  0.00     0.058 A 
ATOM     10  C   UNL d   1      33.240  20.057 -20.156  0.00  0.00     0.013 A 
ATOM     11 CL   UNL d   1      33.236  21.493 -20.134  0.00  0.00    -0.082 Cl
ENDROOT
BRANCH   2  12
ATOM     12  C   UNL d   1      32.950  17.794 -22.624  0.00  0.00     0.035 A 
ATOM     13  C   UNL d   1      32.675  17.340 -21.931  0.00  0.00     0.003 A 
ATOM     14  C   UNL d   1      32.680  16.471 -21.951  0.00  0.00     0.000 A 
ATOM     15  C   UNL d   1      32.962  16.054 -22.672  0.00  0.00     0.000 A 
ATOM     16  C   UNL d   1      33.235  16.516 -23.360  0.00  0.00     0.000 A 
ATOM     17  C   UNL d   1      33.230  17.379 -23.338  0.00  0.00     0.003 A 
ENDBRANCH   2  12
BRANCH   1  18
ATOM     18  C   UNL d   1      32.796  19.382 -23.828  0.00  0.00     0.150 C 
BRANCH  18  19
ATOM     19  C   UNL d   1      32.085  19.156 -24.163  0.00  0.00     0.314 C 
ATOM     20  O   UNL d   1      31.376  19.408 -23.825  0.00  0.00    -0.257 OA
BRANCH  19  21
ATOM     21  O   UNL d   1      32.072  18.686 -24.828  0.00  0.00    -0.295 OA
ATOM     22  C   UNL d   1      31.360  18.377 -25.097  0.00  0.00     0.185 C 
ENDBRANCH  19  21
ENDBRANCH  18  19
ENDBRANCH   1  18
BRANCH   5  23
ATOM     23  C   UNL d   1      32.891  20.803 -22.993  0.00  0.00     0.016 A 
ATOM     24  C   UNL d   1      32.502  21.429 -22.657  0.00  0.00     0.001 A 
ATOM     25  C   UNL d   1      32.449  22.147 -23.059  0.00  0.00     0.000 A 
ATOM     26  C   UNL d   1      32.787  22.228 -23.791  0.00  0.00     0.000 A 
ATOM     27  C   UNL d   1      33.191  21.591 -24.149  0.00  0.00     0.000 A 
ATOM     28  C   UNL d   1      33.236  20.878 -23.736  0.00  0.00     0.001 A 
ENDBRANCH   5  23
TORSDOF 5
ENDMDL
MODEL 2
REMARK VINA RESULT:       8.9      2.016      3.326
REMARK  5 active torsions:
REMARK  status: ('A' for Active; 'I' for Inactive)
REMARK    1  A    between atoms: C_7  and  N_1 
REMARK    2  A    between atoms: C_10  and  C_2 
REMARK    3  A    between atoms: C_11  and  C_5 
REMARK    4  A    between atoms: C_9  and  C_7 
REMARK    5  A    between atoms: O_16  and  C_9 
ROOT
ATOM      1  N   UNL d   1      32.826  21.963 -22.141  0.00  0.00    -0.286 N 
ATOM      2  C   UNL d   1      32.968  21.336 -22.658  0.00  0.00     0.148 A 
ATOM      3  N   UNL d   1      33.106  20.584 -22.356  0.00  0.00    -0.228 NA
ATOM      4  C   UNL d   1      32.961  21.085 -21.039  0.00  0.00     0.035 A 
ATOM      5  C   UNL d   1      32.824  21.827 -21.331  0.00  0.00     0.067 A 
ATOM      6  C   UNL d   1      33.103  20.458 -21.556  0.00  0.00     0.084 A 
ATOM      7  C   UNL d   1      32.959  20.954 -20.236  0.00  0.00     0.014 A 
ATOM      8  C   UNL d   1      33.241  19.712 -21.260  0.00  0.00     0.020 A 
ATOM      9  C   UNL d   1      33.097  20.203 -19.933  0.00  0.00     0.058 A 
ATOM     10  C   UNL d   1      33.239  19.576 -20.450  0.00  0.00     0.013 A 
ATOM     11 CL   UNL d   1      33.094  20.069 -19.108  0.00  0.00    -0.082 Cl
ENDROOT
BRANCH   2  12
ATOM     12  C   UNL d   1      33.055  21.039 -23.470  0.00  0.00     0.035 A 
ATOM     13  C   UNL d   1      33.055  21.592 -24.145  0.00  0.00     0.003 A 
ATOM     14  C   UNL d   1      33.142  21.289 -24.955  0.00  0.00     0.000 A 
ATOM     15  C   UNL d   1      33.231  20.425 -25.089  0.00  0.00     0.000 A 
ATOM     16  C   UNL d   1      33.231  19.879 -24.408  0.00  0.00     0.000 A 
ATOM     17  C   UNL d   1      33.144  20.182 -23.604  0.00  0.00     0.003 A 
ENDBRANCH   2  12
BRANCH   1  18
ATOM     18  C   UNL d   1      32.688  22.714 -22.444  0.00  0.00     0.150 C 
BRANCH  18  19
ATOM     19  C   UNL d   1      32.095  22.842 -22.994  0.00  0.00     0.314 C 
ATOM     20  O   UNL d   1      31.333  22.562 -22.845  0.00  0.00    -0.257 OA
BRANCH  19  21
ATOM     21  O   UNL d   1      32.251  23.243 -23.684  0.00  0.00    -0.295 OA
ATOM     22  C   UNL d   1      31.689  23.260 -24.284  0.00  0.00     0.185 C 
ENDBRANCH  19  21
ENDBRANCH  18  19
ENDBRANCH   1  18
BRANCH   5  23
ATOM     23  C   UNL d   1      32.682  22.454 -20.814  0.00  0.00     0.016 A 
ATOM     24  C   UNL d   1      33.197  22.605 -20.207  0.00  0.00     0.001 A 
ATOM     25  C   UNL d   1      33.055  23.232 -19.690  0.00  0.00     0.000 A 
ATOM     26  C   UNL d   1      32.400  23.698 -19.789  0.00  0.00     0.000 A 
ATOM     27  C   UNL d   1      31.861  23.554 -20.410  0.00  0.00     0.000 A 
ATOM     28  C   UNL d   1      32.015  22.924 -20.920  0.00  0.00     0.001 A 
ENDBRANCH   5  23
TORSDOF 5
ENDMDL
MODEL 3
REMARK VINA RESULT:       8.9      1.596      2.993
REMARK  5 active torsions:
REMARK  status: ('A' for Active; 'I' for Inactive)
REMARK    1  A    between atoms: C_7  and  N_1 
REMARK    2  A    between atoms: C_10  and  C_2 
REMARK    3  A    between atoms: C_11  and  C_5 
REMARK    4  A    between atoms: C_9  and  C_7 
REMARK    5  A    between atoms: O_16  and  C_9 
ROOT
ATOM      1  N   UNL d   1      32.127  18.503 -23.013  0.00  0.00    -0.286 N 
ATOM      2  C   UNL d   1      31.925  18.163 -23.737  0.00  0.00     0.148 A 
ATOM      3  N   UNL d   1      32.028  18.594 -24.429  0.00  0.00    -0.228 NA
ATOM      4  C   UNL d   1      32.527  19.686 -23.680  0.00  0.00     0.035 A 
ATOM      5  C   UNL d   1      32.428  19.267 -22.994  0.00  0.00     0.067 A 
ATOM      6  C   UNL d   1      32.325  19.346 -24.404  0.00  0.00     0.084 A 
ATOM      7  C   UNL d   1      32.826  20.443 -23.657  0.00  0.00     0.014 A 
ATOM      8  C   UNL d   1      32.425  19.770 -25.092  0.00  0.00     0.020 A 
ATOM      9  C   UNL d   1      32.928  20.874 -24.349  0.00  0.00     0.058 A 
ATOM     10  C   UNL d   1      32.726  20.534 -25.073  0.00  0.00     0.013 A 
ATOM     11 CL   UNL d   1      33.235  21.651 -24.327  0.00  0.00    -0.082 Cl
ENDROOT
BRANCH   2  12
ATOM     12  C   UNL d   1      31.617  17.488 -24.188  0.00  0.00     0.035 A 
ATOM     13  C   UNL d   1      30.778  17.462 -24.427  0.00  0.00     0.003 A 
ATOM     14  C   UNL d   1      30.476  16.783 -24.878  0.00  0.00     0.000 A 
ATOM     15  C   UNL d   1      31.019  16.125 -25.091  0.00  0.00     0.000 A 
ATOM     16  C   UNL d   1      31.857  16.160 -24.847  0.00  0.00     0.000 A 
ATOM     17  C   UNL d   1      32.155  16.835 -24.399  0.00  0.00     0.003 A 
ENDBRANCH   2  12
BRANCH   1  18
ATOM     18  C   UNL d   1      32.024  18.072 -22.321  0.00  0.00     0.150 C 
BRANCH  18  19
ATOM     19  C   UNL d   1      32.533  17.462 -22.128  0.00  0.00     0.314 C 
ATOM     20  O   UNL d   1      33.238  17.370 -22.546  0.00  0.00    -0.257 OA
BRANCH  19  21
ATOM     21  O   UNL d   1      32.349  16.945 -21.526  0.00  0.00    -0.295 OA
ATOM     22  C   UNL d   1      32.642  16.177 -21.543  0.00  0.00     0.185 C 
ENDBRANCH  19  21
ENDBRANCH  18  19
ENDBRANCH   1  18
BRANCH   5  23
ATOM     23  C   UNL d   1      32.630  19.607 -22.270  0.00  0.00     0.016 A 
ATOM     24  C   UNL d   1      32.439  20.379 -22.117  0.00  0.00     0.001 A 
ATOM     25  C   UNL d   1      32.641  20.719 -21.393  0.00  0.00     0.000 A 
ATOM     26  C   UNL d   1      33.031  20.281 -20.834  0.00  0.00     0.000 A 
ATOM     27  C   UNL d   1      33.234  19.485 -20.979  0.00  0.00     0.000 A 
ATOM     28  C   UNL d   1      33.026  19.157 -21.707  0.00  0.00     0.001 A 
ENDBRANCH   5  23
TORSDOF 5
ENDMDL
MODEL 4
REMARK VINA RESULT:       9.3      1.811      4.418
REMARK  5 active torsions:
REMARK  status: ('A' for Active; 'I' for Inactive)
REMARK    1  A    between atoms: C_7  and  N_1 
REMARK    2  A    between atoms: C_10  and  C_2 
REMARK    3  A    between atoms: C_11  and  C_5 
REMARK    4  A    between atoms: C_9  and  C_7 
REMARK    5  A    between atoms: O_16  and  C_9 
ROOT
ATOM      1  N   UNL d   1      33.175  20.361 -22.063  0.00  0.00    -0.286 N 
ATOM      2  C   UNL d   1      33.151  21.104 -22.419  0.00  0.00     0.148 A 
ATOM      3  N   UNL d   1      33.121  21.160 -23.238  0.00  0.00    -0.228 NA
ATOM      4  C   UNL d   1      33.139  19.748 -23.339  0.00  0.00     0.035 A 
ATOM      5  C   UNL d   1      33.169  19.686 -22.533  0.00  0.00     0.067 A 
ATOM      6  C   UNL d   1      33.115  20.492 -23.695  0.00  0.00     0.084 A 
ATOM      7  C   UNL d   1      33.133  19.078 -23.801  0.00  0.00     0.014 A 
ATOM      8  C   UNL d   1      33.085  20.552 -24.506  0.00  0.00     0.020 A 
ATOM      9  C   UNL d   1      33.103  19.134 -24.620  0.00  0.00     0.058 A 
ATOM     10  C   UNL d   1      33.079  19.878 -24.976  0.00  0.00     0.013 A 
ATOM     11 CL   UNL d   1      33.096  18.446 -25.094  0.00  0.00    -0.082 Cl
ENDROOT
BRANCH   2  12
ATOM     12  C   UNL d   1      33.141  21.969 -22.347  0.00  0.00     0.035 A 
ATOM     13  C   UNL d   1      33.055  22.471 -23.056  0.00  0.00     0.003 A 
ATOM     14  C   UNL d   1      33.045  23.336 -22.977  0.00  0.00     0.000 A 
ATOM     15  C   UNL d   1      33.121  23.702 -22.182  0.00  0.00     0.000 A 
ATOM     16  C   UNL d   1      33.207  23.193 -21.478  0.00  0.00     0.000 A 
ATOM     17  C   UNL d   1      33.216  22.334 -21.558  0.00  0.00     0.003 A 
ENDBRANCH   2  12
BRANCH   1  18
ATOM     18  C   UNL d   1      33.205  20.305 -21.244  0.00  0.00     0.150 C 
BRANCH  18  19
ATOM     19  C   UNL d   1      32.652  20.685 -20.777  0.00  0.00     0.314 C 
ATOM     20  O   UNL d   1      31.861  20.703 -21.013  0.00  0.00    -0.257 OA
BRANCH  19  21
ATOM     21  O   UNL d   1      32.875  21.046 -20.082  0.00  0.00    -0.295 OA
ATOM     22  C   UNL d   1      32.347  21.083 -19.452  0.00  0.00     0.185 C 
ENDBRANCH  19  21
ENDBRANCH  18  19
ENDBRANCH   1  18
BRANCH   5  23
ATOM     23  C   UNL d   1      33.193  18.943 -22.176  0.00  0.00     0.016 A 
ATOM     24  C   UNL d   1      33.204  18.879 -21.369  0.00  0.00     0.001 A 
ATOM     25  C   UNL d   1      33.228  18.135 -21.013  0.00  0.00     0.000 A 
ATOM     26  C   UNL d   1      33.241  17.468 -21.470  0.00  0.00     0.000 A 
ATOM     27  C   UNL d   1      33.230  17.517 -22.304  0.00  0.00     0.000 A 
ATOM     28  C   UNL d   1      33.206  18.267 -22.647  0.00  0.00     0.001 A 
ENDBRANCH   5  23
TORSDOF 5
ENDMDL
