MODEL 1
REMARK VINA RESULT:      -5.8      0.000      0.000
REMARK  6 active torsions:
REMARK  status: ('A' for Active; 'I' for Inactive)
REMARK    1  A    between atoms: C_10  and  C_3 
REMARK    2  A    between atoms: N_12  and  C_4 
REMARK    3  A    between atoms: N_11  and  C_20 
REMARK    4  A    between atoms: C_25  and  N_12 
REMARK    5  A    between atoms: C_20  and  C_21 
REMARK    6  A    between atoms: C_21  and  C_25 
ROOT
ATOM      1  C   UNL d   1     -48.523  13.075  23.263  0.00  0.00     0.168 A 
ATOM      2  N   UNL d   1     -47.846  12.572  23.370  0.00  0.00    -0.184 N 
ATOM      3  C   UNL d   1     -48.420  13.864  23.106  0.00  0.00     0.057 A 
ATOM      4  C   UNL d   1     -47.965  11.790  23.525  0.00  0.00     0.218 A 
ATOM      5  N   UNL d   1     -46.996  13.691  23.156  0.00  0.00    -0.160 NA
ATOM      6  N   UNL d   1     -49.273  12.763  23.317  0.00  0.00    -0.227 NA
ATOM      7  C   UNL d   1     -48.720  11.466  23.581  0.00  0.00     0.071 A 
ATOM      8  C   UNL d   1     -47.652  14.179  23.052  0.00  0.00     0.124 A 
ATOM      9  C   UNL d   1     -49.386  11.961  23.475  0.00  0.00     0.087 A 
ATOM     10  C   UNL d   1     -50.177  11.631  23.533  0.00  0.00     0.021 C 
ENDROOT
BRANCH   4  11
ATOM     11  N   UNL d   1     -47.284  11.278  23.634  0.00  0.00    -0.380 NA
BRANCH  11  12
ATOM     12  C   UNL d   1     -46.665  10.684  23.680  0.00  0.00     0.164 C 
BRANCH  12  13
ATOM     13  C   UNL d   1     -45.860  10.879  23.482  0.00  0.00     0.054 C 
BRANCH  13  14
ATOM     14  C   UNL d   1     -45.222  10.329  23.646  0.00  0.00     0.083 C 
BRANCH  14  15
ATOM     15  N   UNL d   1     -44.415  10.533  23.411  0.00  0.00    -0.299 N 
ATOM     16  C   UNL d   1     -43.750  10.055  23.698  0.00  0.00     0.107 A 
ATOM     17  C   UNL d   1     -42.951  10.260  23.462  0.00  0.00     0.142 A 
ATOM     18  O   UNL d   1     -42.809  10.931  22.948  0.00  0.00    -0.300 OA
ATOM     19  C   UNL d   1     -43.469  11.404  22.664  0.00  0.00     0.142 A 
ATOM     20  C   UNL d   1     -44.279  11.205  22.896  0.00  0.00     0.107 A 
ENDBRANCH  14  15
ENDBRANCH  13  14
ENDBRANCH  12  13
ENDBRANCH  11  12
ENDBRANCH   4  11
BRANCH   3  21
ATOM     21  C   UNL d   1     -49.077  14.352  23.002  0.00  0.00     0.005 A 
ATOM     22  C   UNL d   1     -49.347  14.513  22.251  0.00  0.00     0.001 A 
ATOM     23  C   UNL d   1     -49.992  14.993  22.148  0.00  0.00     0.011 A 
ATOM     24  C   UNL d   1     -50.378  15.321  22.795  0.00  0.00     0.058 A 
ATOM     25  C   UNL d   1     -50.107  15.160  23.547  0.00  0.00     0.011 A 
ATOM     26 CL   UNL d   1     -51.064  15.832  22.685  0.00  0.00    -0.082 Cl
ATOM     27  C   UNL d   1     -49.451  14.672  23.651  0.00  0.00     0.001 A 
ENDBRANCH   3  21
TORSDOF 6
ENDMDL
MODEL 2
REMARK VINA RESULT:      -4.1      2.171      3.280
REMARK  6 active torsions:
REMARK  status: ('A' for Active; 'I' for Inactive)
REMARK    1  A    between atoms: C_10  and  C_3 
REMARK    2  A    between atoms: N_12  and  C_4 
REMARK    3  A    between atoms: N_11  and  C_20 
REMARK    4  A    between atoms: C_25  and  N_12 
REMARK    5  A    between atoms: C_20  and  C_21 
REMARK    6  A    between atoms: C_21  and  C_25 
ROOT
ATOM      1  C   UNL d   1     -47.299  12.673  22.675  0.00  0.00     0.168 A 
ATOM      2  N   UNL d   1     -46.472  12.494  22.595  0.00  0.00    -0.184 N 
ATOM      3  C   UNL d   1     -47.831  12.077  22.812  0.00  0.00     0.057 A 
ATOM      4  C   UNL d   1     -45.956  13.098  22.459  0.00  0.00     0.218 A 
ATOM      5  N   UNL d   1     -46.764  11.117  22.795  0.00  0.00    -0.160 NA
ATOM      6  N   UNL d   1     -47.554  13.444  22.615  0.00  0.00    -0.227 NA
ATOM      7  C   UNL d   1     -46.205  13.880  22.397  0.00  0.00     0.071 A 
ATOM      8  C   UNL d   1     -47.565  11.291  22.873  0.00  0.00     0.124 A 
ATOM      9  C   UNL d   1     -47.019  14.056  22.476  0.00  0.00     0.087 A 
ATOM     10  C   UNL d   1     -47.288  14.870  22.413  0.00  0.00     0.021 C 
ENDROOT
BRANCH   4  11
ATOM     11  N   UNL d   1     -45.119  12.921  22.377  0.00  0.00    -0.380 NA
BRANCH  11  12
ATOM     12  C   UNL d   1     -44.318  12.640  22.245  0.00  0.00     0.164 C 
BRANCH  12  13
ATOM     13  C   UNL d   1     -43.770  13.093  21.776  0.00  0.00     0.054 C 
BRANCH  13  14
ATOM     14  C   UNL d   1     -43.065  12.729  21.450  0.00  0.00     0.083 C 
BRANCH  14  15
ATOM     15  N   UNL d   1     -42.379  13.223  21.266  0.00  0.00    -0.299 N 
ATOM     16  C   UNL d   1     -42.428  13.804  20.623  0.00  0.00     0.107 A 
ATOM     17  C   UNL d   1     -41.746  14.291  20.444  0.00  0.00     0.142 A 
ATOM     18  O   UNL d   1     -41.021  14.207  20.892  0.00  0.00    -0.300 OA
ATOM     19  C   UNL d   1     -40.973  13.630  21.529  0.00  0.00     0.142 A 
ATOM     20  C   UNL d   1     -41.656  13.133  21.719  0.00  0.00     0.107 A 
ENDBRANCH  14  15
ENDBRANCH  13  14
ENDBRANCH  12  13
ENDBRANCH  11  12
ENDBRANCH   4  11
BRANCH   3  21
ATOM     21  C   UNL d   1     -48.633  12.251  22.890  0.00  0.00     0.005 A 
ATOM     22  C   UNL d   1     -48.928  12.486  23.611  0.00  0.00     0.001 A 
ATOM     23  C   UNL d   1     -49.718  12.657  23.688  0.00  0.00     0.011 A 
ATOM     24  C   UNL d   1     -50.224  12.595  23.045  0.00  0.00     0.058 A 
ATOM     25  C   UNL d   1     -49.928  12.359  22.323  0.00  0.00     0.011 A 
ATOM     26 CL   UNL d   1     -51.064  12.777  23.127  0.00  0.00    -0.082 Cl
ATOM     27  C   UNL d   1     -49.127  12.186  22.245  0.00  0.00     0.001 A 
ENDBRANCH   3  21
TORSDOF 6
ENDMDL
MODEL 3
REMARK VINA RESULT:      -3.8      1.856      2.419
REMARK  6 active torsions:
REMARK  status: ('A' for Active; 'I' for Inactive)
REMARK    1  A    between atoms: C_10  and  C_3 
REMARK    2  A    between atoms: N_12  and  C_4 
REMARK    3  A    between atoms: N_11  and  C_20 
REMARK    4  A    between atoms: C_25  and  N_12 
REMARK    5  A    between atoms: C_20  and  C_21 
REMARK    6  A    between atoms: C_21  and  C_25 
ROOT
ATOM      1  C   UNL d   1     -47.465  13.786  22.678  0.00  0.00     0.168 A 
ATOM      2  N   UNL d   1     -46.630  13.686  22.553  0.00  0.00    -0.184 N 
ATOM      3  C   UNL d   1     -47.801  14.519  22.599  0.00  0.00     0.057 A 
ATOM      4  C   UNL d   1     -46.311  12.951  22.635  0.00  0.00     0.218 A 
ATOM      5  N   UNL d   1     -46.519  15.076  22.274  0.00  0.00    -0.160 NA
ATOM      6  N   UNL d   1     -47.924  13.144  22.877  0.00  0.00    -0.227 NA
ATOM      7  C   UNL d   1     -46.767  12.296  22.836  0.00  0.00     0.071 A 
ATOM      8  C   UNL d   1     -47.328  15.173  22.395  0.00  0.00     0.124 A 
ATOM      9  C   UNL d   1     -47.589  12.395  22.960  0.00  0.00     0.087 A 
ATOM     10  C   UNL d   1     -48.074  11.716  23.170  0.00  0.00     0.021 C 
ENDROOT
BRANCH   4  11
ATOM     11  N   UNL d   1     -45.467  12.846  22.509  0.00  0.00    -0.380 NA
BRANCH  11  12
ATOM     12  C   UNL d   1     -44.637  12.637  22.444  0.00  0.00     0.164 C 
BRANCH  12  13
ATOM     13  C   UNL d   1     -44.162  12.935  21.802  0.00  0.00     0.054 C 
BRANCH  13  14
ATOM     14  C   UNL d   1     -43.439  12.537  21.570  0.00  0.00     0.083 C 
BRANCH  14  15
ATOM     15  N   UNL d   1     -42.747  13.008  21.349  0.00  0.00    -0.299 N 
ATOM     16  C   UNL d   1     -42.019  12.949  21.817  0.00  0.00     0.107 A 
ATOM     17  C   UNL d   1     -41.336  13.418  21.595  0.00  0.00     0.142 A 
ATOM     18  O   UNL d   1     -41.370  13.941  20.918  0.00  0.00    -0.300 OA
ATOM     19  C   UNL d   1     -42.093  13.999  20.454  0.00  0.00     0.142 A 
ATOM     20  C   UNL d   1     -42.788  13.530  20.669  0.00  0.00     0.107 A 
ENDBRANCH  14  15
ENDBRANCH  13  14
ENDBRANCH  12  13
ENDBRANCH  11  12
ENDBRANCH   4  11
BRANCH   3  21
ATOM     21  C   UNL d   1     -48.611  14.616  22.721  0.00  0.00     0.005 A 
ATOM     22  C   UNL d   1     -49.130  14.508  22.103  0.00  0.00     0.001 A 
ATOM     23  C   UNL d   1     -49.926  14.603  22.222  0.00  0.00     0.011 A 
ATOM     24  C   UNL d   1     -50.217  14.808  22.962  0.00  0.00     0.058 A 
ATOM     25  C   UNL d   1     -49.698  14.917  23.581  0.00  0.00     0.011 A 
ATOM     26 CL   UNL d   1     -51.064  14.910  23.089  0.00  0.00    -0.082 Cl
ATOM     27  C   UNL d   1     -48.888  14.820  23.460  0.00  0.00     0.001 A 
ENDBRANCH   3  21
TORSDOF 6
ENDMDL
MODEL 4
REMARK VINA RESULT:      -3.5      0.710      1.590
REMARK  6 active torsions:
REMARK  status: ('A' for Active; 'I' for Inactive)
REMARK    1  A    between atoms: C_10  and  C_3 
REMARK    2  A    between atoms: N_12  and  C_4 
REMARK    3  A    between atoms: N_11  and  C_20 
REMARK    4  A    between atoms: C_25  and  N_12 
REMARK    5  A    between atoms: C_20  and  C_21 
REMARK    6  A    between atoms: C_21  and  C_25 
ROOT
ATOM      1  C   UNL d   1     -48.648  13.023  22.972  0.00  0.00     0.168 A 
ATOM      2  N   UNL d   1     -48.234  12.305  23.161  0.00  0.00    -0.184 N 
ATOM      3  C   UNL d   1     -49.448  13.008  22.845  0.00  0.00     0.057 A 
ATOM      4  C   UNL d   1     -47.438  12.336  23.284  0.00  0.00     0.218 A 
ATOM      5  N   UNL d   1     -49.462  11.593  23.083  0.00  0.00    -0.160 NA
ATOM      6  N   UNL d   1     -48.238  13.725  22.920  0.00  0.00    -0.227 NA
ATOM      7  C   UNL d   1     -47.016  13.041  23.233  0.00  0.00     0.071 A 
ATOM      8  C   UNL d   1     -49.863  12.289  22.900  0.00  0.00     0.124 A 
ATOM      9  C   UNL d   1     -47.423  13.748  23.048  0.00  0.00     0.087 A 
ATOM     10  C   UNL d   1     -46.990  14.488  22.993  0.00  0.00     0.021 C 
ENDROOT
BRANCH   4  11
ATOM     11  N   UNL d   1     -47.017  11.612  23.475  0.00  0.00    -0.380 NA
BRANCH  11  12
ATOM     12  C   UNL d   1     -46.499  10.943  23.618  0.00  0.00     0.164 C 
BRANCH  12  13
ATOM     13  C   UNL d   1     -45.709  10.929  23.299  0.00  0.00     0.054 C 
BRANCH  13  14
ATOM     14  C   UNL d   1     -45.140  10.342  23.560  0.00  0.00     0.083 C 
BRANCH  14  15
ATOM     15  N   UNL d   1     -44.299  10.464  23.397  0.00  0.00    -0.299 N 
ATOM     16  C   UNL d   1     -43.716   9.895  23.696  0.00  0.00     0.107 A 
ATOM     17  C   UNL d   1     -42.884  10.019  23.532  0.00  0.00     0.142 A 
ATOM     18  O   UNL d   1     -42.627  10.698  23.077  0.00  0.00    -0.300 OA
ATOM     19  C   UNL d   1     -43.206  11.262  22.781  0.00  0.00     0.142 A 
ATOM     20  C   UNL d   1     -44.049  11.145  22.941  0.00  0.00     0.107 A 
ENDBRANCH  14  15
ENDBRANCH  13  14
ENDBRANCH  12  13
ENDBRANCH  11  12
ENDBRANCH   4  11
BRANCH   3  21
ATOM     21  C   UNL d   1     -49.849  13.706  22.663  0.00  0.00     0.005 A 
ATOM     22  C   UNL d   1     -49.897  14.302  23.214  0.00  0.00     0.001 A 
ATOM     23  C   UNL d   1     -50.292  14.988  23.034  0.00  0.00     0.011 A 
ATOM     24  C   UNL d   1     -50.645  15.087  22.300  0.00  0.00     0.058 A 
ATOM     25  C   UNL d   1     -50.597  14.490  21.748  0.00  0.00     0.011 A 
ATOM     26 CL   UNL d   1     -51.064  15.817  22.109  0.00  0.00    -0.082 Cl
ATOM     27  C   UNL d   1     -50.196  13.793  21.930  0.00  0.00     0.001 A 
ENDBRANCH   3  21
TORSDOF 6
ENDMDL
MODEL 5
REMARK VINA RESULT:      -3.4      6.567      9.321
REMARK  6 active torsions:
REMARK  status: ('A' for Active; 'I' for Inactive)
REMARK    1  A    between atoms: C_10  and  C_3 
REMARK    2  A    between atoms: N_12  and  C_4 
REMARK    3  A    between atoms: N_11  and  C_20 
REMARK    4  A    between atoms: C_25  and  N_12 
REMARK    5  A    between atoms: C_20  and  C_21 
REMARK    6  A    between atoms: C_21  and  C_25 
ROOT
ATOM      1  C   UNL d   1     -39.887  14.724  18.741  0.00  0.00     0.168 A 
ATOM      2  N   UNL d   1     -40.421  14.415  19.325  0.00  0.00    -0.184 N 
ATOM      3  C   UNL d   1     -40.032  14.601  17.953  0.00  0.00     0.057 A 
ATOM      4  C   UNL d   1     -40.263  14.547  20.104  0.00  0.00     0.218 A 
ATOM      5  N   UNL d   1     -41.224  13.871  18.285  0.00  0.00    -0.160 NA
ATOM      6  N   UNL d   1     -39.230  15.144  18.975  0.00  0.00    -0.227 NA
ATOM      7  C   UNL d   1     -39.601  14.970  20.350  0.00  0.00     0.071 A 
ATOM      8  C   UNL d   1     -40.705  14.171  17.718  0.00  0.00     0.124 A 
ATOM      9  C   UNL d   1     -39.074  15.274  19.775  0.00  0.00     0.087 A 
ATOM     10  C   UNL d   1     -38.381  15.717  20.022  0.00  0.00     0.021 C 
ENDROOT
BRANCH   4  11
ATOM     11  N   UNL d   1     -40.800  14.236  20.698  0.00  0.00    -0.380 NA
BRANCH  11  12
ATOM     12  C   UNL d   1     -41.242  13.923  21.364  0.00  0.00     0.164 C 
BRANCH  12  13
ATOM     13  C   UNL d   1     -42.071  13.741  21.291  0.00  0.00     0.054 C 
BRANCH  13  14
ATOM     14  C   UNL d   1     -42.342  12.927  21.267  0.00  0.00     0.083 C 
BRANCH  14  15
ATOM     15  N   UNL d   1     -43.112  12.726  21.608  0.00  0.00    -0.299 N 
ATOM     16  C   UNL d   1     -43.181  12.043  22.138  0.00  0.00     0.107 A 
ATOM     17  C   UNL d   1     -43.946  11.847  22.474  0.00  0.00     0.142 A 
ATOM     18  O   UNL d   1     -44.635  12.321  22.291  0.00  0.00    -0.300 OA
ATOM     19  C   UNL d   1     -44.565  12.999  21.765  0.00  0.00     0.142 A 
ATOM     20  C   UNL d   1     -43.798  13.205  21.420  0.00  0.00     0.107 A 
ENDBRANCH  14  15
ENDBRANCH  13  14
ENDBRANCH  12  13
ENDBRANCH  11  12
ENDBRANCH   4  11
BRANCH   3  21
ATOM     21  C   UNL d   1     -39.513  14.900  17.386  0.00  0.00     0.005 A 
ATOM     22  C   UNL d   1     -39.659  15.626  17.048  0.00  0.00     0.001 A 
ATOM     23  C   UNL d   1     -39.149  15.921  16.491  0.00  0.00     0.011 A 
ATOM     24  C   UNL d   1     -38.485  15.495  16.262  0.00  0.00     0.058 A 
ATOM     25  C   UNL d   1     -38.340  14.768  16.601  0.00  0.00     0.011 A 
ATOM     26 CL   UNL d   1     -37.943  15.808  15.669  0.00  0.00    -0.082 Cl
ATOM     27  C   UNL d   1     -38.858  14.468  17.168  0.00  0.00     0.001 A 
ENDBRANCH   3  21
TORSDOF 6
ENDMDL
MODEL 6
REMARK VINA RESULT:      -3.0      3.114      4.491
REMARK  6 active torsions:
REMARK  status: ('A' for Active; 'I' for Inactive)
REMARK    1  A    between atoms: C_10  and  C_3 
REMARK    2  A    between atoms: N_12  and  C_4 
REMARK    3  A    between atoms: N_11  and  C_20 
REMARK    4  A    between atoms: C_25  and  N_12 
REMARK    5  A    between atoms: C_20  and  C_21 
REMARK    6  A    between atoms: C_21  and  C_25 
ROOT
ATOM      1  C   UNL d   1     -45.397  12.628  22.438  0.00  0.00     0.168 A 
ATOM      2  N   UNL d   1     -44.643  12.852  22.118  0.00  0.00    -0.184 N 
ATOM      3  C   UNL d   1     -46.039  13.113  22.341  0.00  0.00     0.057 A 
ATOM      4  C   UNL d   1     -44.015  12.359  22.223  0.00  0.00     0.218 A 
ATOM      5  N   UNL d   1     -45.226  14.048  21.616  0.00  0.00    -0.160 NA
ATOM      6  N   UNL d   1     -45.473  11.926  22.843  0.00  0.00    -0.227 NA
ATOM      7  C   UNL d   1     -44.082  11.647  22.630  0.00  0.00     0.071 A 
ATOM      8  C   UNL d   1     -45.958  13.831  21.927  0.00  0.00     0.124 A 
ATOM      9  C   UNL d   1     -44.825  11.426  22.946  0.00  0.00     0.087 A 
ATOM     10  C   UNL d   1     -44.904  10.684  23.373  0.00  0.00     0.021 C 
ENDROOT
BRANCH   4  11
ATOM     11  N   UNL d   1     -43.251  12.582  21.900  0.00  0.00    -0.380 NA
BRANCH  11  12
ATOM     12  C   UNL d   1     -42.442  12.712  21.640  0.00  0.00     0.164 C 
BRANCH  12  13
ATOM     13  C   UNL d   1     -42.240  13.392  21.169  0.00  0.00     0.054 C 
BRANCH  13  14
ATOM     14  C   UNL d   1     -41.420  13.591  21.013  0.00  0.00     0.083 C 
BRANCH  14  15
ATOM     15  N   UNL d   1     -41.226  14.372  20.695  0.00  0.00    -0.299 N 
ATOM     16  C   UNL d   1     -40.861  14.438  19.911  0.00  0.00     0.107 A 
ATOM     17  C   UNL d   1     -40.670  15.214  19.599  0.00  0.00     0.142 A 
ATOM     18  O   UNL d   1     -40.837  15.919  20.056  0.00  0.00    -0.300 OA
ATOM     19  C   UNL d   1     -41.200  15.852  20.834  0.00  0.00     0.142 A 
ATOM     20  C   UNL d   1     -41.396  15.073  21.158  0.00  0.00     0.107 A 
ENDBRANCH  14  15
ENDBRANCH  13  14
ENDBRANCH  12  13
ENDBRANCH  11  12
ENDBRANCH   4  11
BRANCH   3  21
ATOM     21  C   UNL d   1     -46.772  12.896  22.653  0.00  0.00     0.005 A 
ATOM     22  C   UNL d   1     -46.991  13.158  23.391  0.00  0.00     0.001 A 
ATOM     23  C   UNL d   1     -47.711  12.944  23.697  0.00  0.00     0.011 A 
ATOM     24  C   UNL d   1     -48.223  12.465  23.270  0.00  0.00     0.058 A 
ATOM     25  C   UNL d   1     -48.002  12.203  22.530  0.00  0.00     0.011 A 
ATOM     26 CL   UNL d   1     -48.989  12.238  23.596  0.00  0.00    -0.082 Cl
ATOM     27  C   UNL d   1     -47.271  12.420  22.219  0.00  0.00     0.001 A 
ENDBRANCH   3  21
TORSDOF 6
ENDMDL
