MODEL 1
REMARK VINA RESULT:      17.2      0.000      0.000
REMARK  3 active torsions:
REMARK  status: ('A' for Active; 'I' for Inactive)
REMARK    1  A    between atoms: N_2  and  C_1 
REMARK    2  A    between atoms: C_3  and  C_1 
REMARK    3  A    between atoms: N_6  and  C_5 
ROOT
ATOM      1  C   UNL d   1     -51.093  25.334  33.349  0.00  0.00     0.027 A 
ATOM      2  C   UNL d   1     -50.769  26.956  33.329  0.00  0.00     0.064 A 
ATOM      3  C   UNL d   1     -51.714  25.885  33.349  0.00  0.00     0.004 A 
ATOM      4  C   UNL d   1     -50.303  25.600  33.340  0.00  0.00     0.004 A 
ATOM      5  C   UNL d   1     -51.551  26.693  33.338  0.00  0.00     0.018 A 
ATOM      6  C   UNL d   1     -50.142  26.415  33.329  0.00  0.00     0.018 A 
ENDROOT
BRANCH   1   7
ATOM      7  C   UNL d   1     -51.256  24.524  33.359  0.00  0.00     0.120 C 
ATOM      8  S   UNL d   1     -50.629  23.983  33.377  0.00  0.00    -0.059 SA
BRANCH   7   9
ATOM      9  N   UNL d   1     -52.036  24.260  33.352  0.00  0.00    -0.292 N 
ATOM     10  C   UNL d   1     -52.192  23.453  33.379  0.00  0.00     0.108 A 
ATOM     11  C   UNL d   1     -52.974  23.190  33.372  0.00  0.00     0.142 A 
ATOM     12  O   UNL d   1     -53.591  23.732  33.337  0.00  0.00    -0.300 OA
ATOM     13  C   UNL d   1     -53.429  24.543  33.309  0.00  0.00     0.142 A 
ATOM     14  C   UNL d   1     -52.647  24.806  33.317  0.00  0.00     0.108 A 
ENDBRANCH   7   9
ENDBRANCH   1   7
BRANCH   2  15
ATOM     15  N   UNL d   1     -50.605  27.762  33.319  0.00  0.00    -0.301 N 
ATOM     16  C   UNL d   1     -49.823  28.026  33.321  0.00  0.00     0.100 C 
ATOM     17  C   UNL d   1     -51.223  28.306  33.306  0.00  0.00     0.100 C 
ENDBRANCH   2  15
TORSDOF 3
ENDMDL
