MODEL 1
REMARK VINA RESULT:      84.9      0.000      0.000
REMARK  5 active torsions:
REMARK  status: ('A' for Active; 'I' for Inactive)
REMARK    1  A    between atoms: C_11  and  C_1 
REMARK    2  A    between atoms: C_2  and  N_5 
REMARK    3  A    between atoms: N_3  and  C_7 
REMARK       I    between atoms: N_5  and  C_6 
REMARK    4  A    between atoms: C_6  and  C_9 
REMARK    5  A    between atoms: C_16  and  C_8 
ROOT
ATOM      1  N   UNL d   1      60.872  48.315  49.951  0.00  0.00    -0.183 NA
ATOM      2  C   UNL d   1      61.115  47.586  50.380  0.00  0.00     0.281 C 
ATOM      3  O   UNL d   1      60.786  47.425  51.133  0.00  0.00    -0.265 OA
ENDROOT
BRANCH   2   4
ATOM      4  C   UNL d   1      61.697  47.054  49.999  0.00  0.00     0.065 A 
ATOM      5  C   UNL d   1      61.523  46.248  50.023  0.00  0.00     0.091 A 
ATOM      6  C   UNL d   1      62.067  45.725  49.664  0.00  0.00     0.133 A 
ATOM      7  C   UNL d   1      62.751  46.007  49.300  0.00  0.00     0.024 A 
ATOM      8  C   UNL d   1      62.922  46.824  49.279  0.00  0.00     0.002 A 
ATOM      9  C   UNL d   1      62.381  47.336  49.635  0.00  0.00     0.005 A 
BRANCH   5  10
ATOM     10  C   UNL d   1      60.849  45.970  50.381  0.00  0.00     0.213 C 
ATOM     11  O   UNL d   1      60.822  45.836  51.206  0.00  0.00    -0.644 OA
ATOM     12  O   UNL d   1      60.251  45.847  49.884  0.00  0.00    -0.644 OA
ENDBRANCH   5  10
BRANCH   6  13
ATOM     13  N   UNL d   1      61.930  44.921  49.667  0.00  0.00    -0.114 N 
ATOM     14  O   UNL d   1      61.885  44.456  50.347  0.00  0.00    -0.532 OA
ATOM     15  O   UNL d   1      61.821  44.472  48.996  0.00  0.00    -0.532 OA
ENDBRANCH   6  13
ENDBRANCH   2   4
BRANCH   1  16
ATOM     16  C   UNL d   1      60.325  48.824  50.300  0.00  0.00     0.197 A 
ATOM     17  N   UNL d   1      59.552  48.714  50.161  0.00  0.00    -0.221 NA
ATOM     18  C   UNL d   1      59.148  49.283  50.567  0.00  0.00     0.090 A 
ATOM     19  C   UNL d   1      59.639  49.707  50.927  0.00  0.00     0.058 A 
ATOM     20  S   UNL d   1      60.423  49.491  50.818  0.00  0.00    -0.046 SA
BRANCH  18  21
ATOM     21  C   UNL d   1      58.340  49.424  50.615  0.00  0.00     0.018 A 
ATOM     22  C   UNL d   1      57.997  49.564  51.356  0.00  0.00     0.002 A 
ATOM     23  C   UNL d   1      57.175  49.708  51.416  0.00  0.00     0.000 A 
ATOM     24  C   UNL d   1      56.708  49.708  50.726  0.00  0.00     0.000 A 
ATOM     25  C   UNL d   1      57.050  49.569  49.997  0.00  0.00     0.000 A 
ATOM     26  C   UNL d   1      57.872  49.425  49.937  0.00  0.00     0.002 A 
ENDBRANCH  18  21
ENDBRANCH   1  16
TORSDOF 5
ENDMDL
