MODEL 1
REMARK VINA RESULT:      -9.7      0.000      0.000
REMARK  4 active torsions:
REMARK  status: ('A' for Active; 'I' for Inactive)
REMARK    1  A    between atoms: C_14  and  N_3 
REMARK    2  A    between atoms: C_13  and  N_7 
REMARK       I    between atoms: N_9  and  C_10 
REMARK    3  A    between atoms: C_10  and  C_13 
REMARK    4  A    between atoms: C_19  and  C_14 
ROOT
ATOM      1  C   UNL d   1      49.777  34.576  52.577  0.00  0.00     0.191 A 
ATOM      2  C   UNL d   1      50.289  34.414  51.951  0.00  0.00     0.196 A 
ATOM      3  N   UNL d   1      49.068  34.839  52.265  0.00  0.00    -0.191 N 
ATOM      4  N   UNL d   1      50.031  34.460  53.364  0.00  0.00    -0.204 NA
ATOM      5  N   UNL d   1      49.881  34.583  51.250  0.00  0.00    -0.122 NA
ATOM      6  N   UNL d   1      49.128  34.844  51.453  0.00  0.00    -0.058 NA
ATOM      7  N   UNL d   1      51.308  34.021  52.871  0.00  0.00    -0.249 N 
ATOM      8  C   UNL d   1      51.047  34.140  52.087  0.00  0.00     0.289 A 
ATOM      9  C   UNL d   1      50.802  34.180  53.513  0.00  0.00     0.187 A 
ATOM     10  O   UNL d   1      51.559  33.978  51.461  0.00  0.00    -0.265 OA
ENDROOT
BRANCH   7  11
ATOM     11  C   UNL d   1      52.064  33.747  53.025  0.00  0.00     0.146 C 
BRANCH  11  12
ATOM     12  C   UNL d   1      52.574  34.138  53.532  0.00  0.00     0.283 C 
ATOM     13  N   UNL d   1      53.208  33.743  53.901  0.00  0.00    -0.272 N 
ATOM     14  C   UNL d   1      53.326  32.933  53.752  0.00  0.00     0.067 A 
ATOM     15  C   UNL d   1      53.704  34.145  54.401  0.00  0.00     0.083 A 
ATOM     16  C   UNL d   1      53.960  32.539  54.122  0.00  0.00     0.016 A 
ATOM     17  C   UNL d   1      52.830  32.521  53.249  0.00  0.00     0.018 A 
ATOM     18  C   UNL d   1      54.079  31.728  53.972  0.00  0.00     0.001 A 
ATOM     19  C   UNL d   1      54.448  32.953  54.618  0.00  0.00     0.003 A 
ATOM     20  C   UNL d   1      53.578  31.323  53.468  0.00  0.00     0.000 A 
ATOM     21  C   UNL d   1      52.944  31.717  53.098  0.00  0.00     0.002 A 
ATOM     22  C   UNL d   1      54.338  33.752  54.771  0.00  0.00     0.019 A 
ATOM     23  O   UNL d   1      52.455  34.949  53.681  0.00  0.00    -0.265 OA
ENDBRANCH  11  12
ENDBRANCH   7  11
BRANCH   3  24
ATOM     24  C   UNL d   1      48.403  35.061  52.705  0.00  0.00     0.104 C 
BRANCH  24  25
ATOM     25  C   UNL d   1      47.809  35.494  52.363  0.00  0.00     0.019 A 
ATOM     26  C   UNL d   1      47.692  36.282  52.577  0.00  0.00     0.002 A 
ATOM     27  C   UNL d   1      47.095  36.709  52.229  0.00  0.00     0.000 A 
ATOM     28  C   UNL d   1      46.603  36.371  51.666  0.00  0.00     0.000 A 
ATOM     29  C   UNL d   1      46.720  35.583  51.452  0.00  0.00     0.000 A 
ATOM     30  C   UNL d   1      47.313  35.151  51.795  0.00  0.00     0.002 A 
ENDBRANCH  24  25
ENDBRANCH   3  24
TORSDOF 4
ENDMDL
MODEL 2
REMARK VINA RESULT:      -8.7      0.994      5.693
REMARK  4 active torsions:
REMARK  status: ('A' for Active; 'I' for Inactive)
REMARK    1  A    between atoms: C_14  and  N_3 
REMARK    2  A    between atoms: C_13  and  N_7 
REMARK       I    between atoms: N_9  and  C_10 
REMARK    3  A    between atoms: C_10  and  C_13 
REMARK    4  A    between atoms: C_19  and  C_14 
ROOT
ATOM      1  C   UNL d   1      51.641  33.602  53.160  0.00  0.00     0.191 A 
ATOM      2  C   UNL d   1      51.579  33.936  52.409  0.00  0.00     0.196 A 
ATOM      3  N   UNL d   1      52.381  33.259  53.226  0.00  0.00    -0.191 N 
ATOM      4  N   UNL d   1      51.002  33.656  53.694  0.00  0.00    -0.204 NA
ATOM      5  N   UNL d   1      52.294  33.792  52.016  0.00  0.00    -0.122 NA
ATOM      6  N   UNL d   1      52.783  33.373  52.528  0.00  0.00    -0.058 NA
ATOM      7  N   UNL d   1      50.254  34.382  52.703  0.00  0.00    -0.249 N 
ATOM      8  C   UNL d   1      50.898  34.323  52.175  0.00  0.00     0.289 A 
ATOM      9  C   UNL d   1      50.303  34.049  53.465  0.00  0.00     0.187 A 
ATOM     10  O   UNL d   1      50.836  34.658  51.423  0.00  0.00    -0.265 OA
ENDROOT
BRANCH   7  11
ATOM     11  C   UNL d   1      49.565  34.766  52.485  0.00  0.00     0.146 C 
BRANCH  11  12
ATOM     12  C   UNL d   1      49.198  35.311  52.973  0.00  0.00     0.283 C 
ATOM     13  N   UNL d   1      48.454  35.635  52.782  0.00  0.00    -0.272 N 
ATOM     14  C   UNL d   1      48.076  35.399  52.079  0.00  0.00     0.067 A 
ATOM     15  C   UNL d   1      48.104  36.174  53.275  0.00  0.00     0.083 A 
ATOM     16  C   UNL d   1      47.333  35.723  51.888  0.00  0.00     0.016 A 
ATOM     17  C   UNL d   1      48.423  34.855  51.575  0.00  0.00     0.018 A 
ATOM     18  C   UNL d   1      46.954  35.487  51.184  0.00  0.00     0.001 A 
ATOM     19  C   UNL d   1      46.995  36.261  52.391  0.00  0.00     0.003 A 
ATOM     20  C   UNL d   1      47.307  34.943  50.687  0.00  0.00     0.000 A 
ATOM     21  C   UNL d   1      48.051  34.619  50.878  0.00  0.00     0.002 A 
ATOM     22  C   UNL d   1      47.361  36.498  53.085  0.00  0.00     0.019 A 
ATOM     23  O   UNL d   1      49.577  35.547  53.676  0.00  0.00    -0.265 OA
ENDBRANCH  11  12
ENDBRANCH   7  11
BRANCH   3  24
ATOM     24  C   UNL d   1      52.668  32.862  53.894  0.00  0.00     0.104 C 
BRANCH  24  25
ATOM     25  C   UNL d   1      53.417  33.008  54.168  0.00  0.00     0.019 A 
ATOM     26  C   UNL d   1      53.536  33.546  54.782  0.00  0.00     0.002 A 
ATOM     27  C   UNL d   1      54.290  33.688  55.052  0.00  0.00     0.000 A 
ATOM     28  C   UNL d   1      54.937  33.304  54.724  0.00  0.00     0.000 A 
ATOM     29  C   UNL d   1      54.817  32.767  54.110  0.00  0.00     0.000 A 
ATOM     30  C   UNL d   1      54.069  32.620  53.836  0.00  0.00     0.002 A 
ENDBRANCH  24  25
ENDBRANCH   3  24
TORSDOF 4
ENDMDL
MODEL 3
REMARK VINA RESULT:      -8.5      0.633      1.453
REMARK  4 active torsions:
REMARK  status: ('A' for Active; 'I' for Inactive)
REMARK    1  A    between atoms: C_14  and  N_3 
REMARK    2  A    between atoms: C_13  and  N_7 
REMARK       I    between atoms: N_9  and  C_10 
REMARK    3  A    between atoms: C_10  and  C_13 
REMARK    4  A    between atoms: C_19  and  C_14 
ROOT
ATOM      1  C   UNL d   1      49.904  34.302  52.425  0.00  0.00     0.191 A 
ATOM      2  C   UNL d   1      50.527  34.373  51.890  0.00  0.00     0.196 A 
ATOM      3  N   UNL d   1      49.231  34.609  52.074  0.00  0.00    -0.191 N 
ATOM      4  N   UNL d   1      50.035  33.960  53.175  0.00  0.00    -0.204 NA
ATOM      5  N   UNL d   1      50.225  34.729  51.206  0.00  0.00    -0.122 NA
ATOM      6  N   UNL d   1      49.424  34.871  51.328  0.00  0.00    -0.058 NA
ATOM      7  N   UNL d   1      51.418  33.770  52.830  0.00  0.00    -0.249 N 
ATOM      8  C   UNL d   1      51.278  34.113  52.082  0.00  0.00     0.289 A 
ATOM      9  C   UNL d   1      50.796  33.692  53.380  0.00  0.00     0.187 A 
ATOM     10  O   UNL d   1      51.902  34.185  51.547  0.00  0.00    -0.265 OA
ENDROOT
BRANCH   7  11
ATOM     11  C   UNL d   1      52.163  33.504  53.039  0.00  0.00     0.146 C 
BRANCH  11  12
ATOM     12  C   UNL d   1      52.365  32.712  53.016  0.00  0.00     0.283 C 
ATOM     13  N   UNL d   1      53.004  32.412  53.459  0.00  0.00    -0.272 N 
ATOM     14  C   UNL d   1      53.448  32.930  53.935  0.00  0.00     0.067 A 
ATOM     15  C   UNL d   1      53.191  31.624  53.425  0.00  0.00     0.083 A 
ATOM     16  C   UNL d   1      54.087  32.630  54.377  0.00  0.00     0.016 A 
ATOM     17  C   UNL d   1      53.266  33.727  53.974  0.00  0.00     0.018 A 
ATOM     18  C   UNL d   1      54.532  33.149  54.855  0.00  0.00     0.001 A 
ATOM     19  C   UNL d   1      54.262  31.840  54.334  0.00  0.00     0.003 A 
ATOM     20  C   UNL d   1      54.343  33.944  54.888  0.00  0.00     0.000 A 
ATOM     21  C   UNL d   1      53.703  34.244  54.446  0.00  0.00     0.002 A 
ATOM     22  C   UNL d   1      53.830  31.323  53.867  0.00  0.00     0.019 A 
ATOM     23  O   UNL d   1      51.920  32.193  52.539  0.00  0.00    -0.265 OA
ENDBRANCH  11  12
ENDBRANCH   7  11
BRANCH   3  24
ATOM     24  C   UNL d   1      48.481  34.645  52.424  0.00  0.00     0.104 C 
BRANCH  24  25
ATOM     25  C   UNL d   1      47.992  35.275  52.283  0.00  0.00     0.019 A 
ATOM     26  C   UNL d   1      47.490  35.274  51.629  0.00  0.00     0.002 A 
ATOM     27  C   UNL d   1      47.002  35.910  51.494  0.00  0.00     0.000 A 
ATOM     28  C   UNL d   1      46.999  36.557  51.999  0.00  0.00     0.000 A 
ATOM     29  C   UNL d   1      47.501  36.558  52.654  0.00  0.00     0.000 A 
ATOM     30  C   UNL d   1      47.990  35.927  52.794  0.00  0.00     0.002 A 
ENDBRANCH  24  25
ENDBRANCH   3  24
TORSDOF 4
ENDMDL
MODEL 4
REMARK VINA RESULT:      -7.0      1.200      2.293
REMARK  4 active torsions:
REMARK  status: ('A' for Active; 'I' for Inactive)
REMARK    1  A    between atoms: C_14  and  N_3 
REMARK    2  A    between atoms: C_13  and  N_7 
REMARK       I    between atoms: N_9  and  C_10 
REMARK    3  A    between atoms: C_10  and  C_13 
REMARK    4  A    between atoms: C_19  and  C_14 
ROOT
ATOM      1  C   UNL d   1      48.422  35.407  52.377  0.00  0.00     0.191 A 
ATOM      2  C   UNL d   1      48.764  35.586  53.106  0.00  0.00     0.196 A 
ATOM      3  N   UNL d   1      47.703  35.794  52.330  0.00  0.00    -0.191 N 
ATOM      4  N   UNL d   1      48.821  34.904  51.842  0.00  0.00    -0.204 NA
ATOM      5  N   UNL d   1      48.241  36.090  53.504  0.00  0.00    -0.122 NA
ATOM      6  N   UNL d   1      47.589  36.213  53.019  0.00  0.00    -0.058 NA
ATOM      7  N   UNL d   1      49.896  34.776  52.788  0.00  0.00    -0.249 N 
ATOM      8  C   UNL d   1      49.491  35.280  53.317  0.00  0.00     0.289 A 
ATOM      9  C   UNL d   1      49.563  34.586  52.049  0.00  0.00     0.187 A 
ATOM     10  O   UNL d   1      49.832  35.459  54.046  0.00  0.00    -0.265 OA
ENDROOT
BRANCH   7  11
ATOM     11  C   UNL d   1      50.625  34.460  52.984  0.00  0.00     0.146 C 
BRANCH  11  12
ATOM     12  C   UNL d   1      50.797  33.666  52.883  0.00  0.00     0.283 C 
ATOM     13  N   UNL d   1      51.560  33.363  53.024  0.00  0.00    -0.272 N 
ATOM     14  C   UNL d   1      52.163  33.880  53.274  0.00  0.00     0.067 A 
ATOM     15  C   UNL d   1      51.714  32.575  52.919  0.00  0.00     0.083 A 
ATOM     16  C   UNL d   1      52.926  33.578  53.415  0.00  0.00     0.016 A 
ATOM     17  C   UNL d   1      52.016  34.678  53.382  0.00  0.00     0.018 A 
ATOM     18  C   UNL d   1      53.530  34.095  53.666  0.00  0.00     0.001 A 
ATOM     19  C   UNL d   1      53.064  32.787  53.306  0.00  0.00     0.003 A 
ATOM     20  C   UNL d   1      53.374  34.891  53.771  0.00  0.00     0.000 A 
ATOM     21  C   UNL d   1      52.611  35.193  53.630  0.00  0.00     0.002 A 
ATOM     22  C   UNL d   1      52.476  32.271  53.060  0.00  0.00     0.019 A 
ATOM     23  O   UNL d   1      50.193  33.149  52.632  0.00  0.00    -0.265 OA
ENDBRANCH  11  12
ENDBRANCH   7  11
BRANCH   3  24
ATOM     24  C   UNL d   1      47.181  35.762  51.688  0.00  0.00     0.104 C 
BRANCH  24  25
ATOM     25  C   UNL d   1      46.385  35.861  51.800  0.00  0.00     0.019 A 
ATOM     26  C   UNL d   1      46.056  36.617  51.794  0.00  0.00     0.002 A 
ATOM     27  C   UNL d   1      45.256  36.709  51.907  0.00  0.00     0.000 A 
ATOM     28  C   UNL d   1      44.767  36.061  52.027  0.00  0.00     0.000 A 
ATOM     29  C   UNL d   1      45.096  35.305  52.033  0.00  0.00     0.000 A 
ATOM     30  C   UNL d   1      45.893  35.206  51.921  0.00  0.00     0.002 A 
ENDBRANCH  24  25
ENDBRANCH   3  24
TORSDOF 4
ENDMDL
