MODEL 1
REMARK VINA RESULT:      -8.2      0.000      0.000
REMARK  5 active torsions:
REMARK  status: ('A' for Active; 'I' for Inactive)
REMARK    1  A    between atoms: C_10  and  N_1 
REMARK    2  A    between atoms: S_7  and  C_4 
REMARK    3  A    between atoms: C_9  and  C_6 
REMARK    4  A    between atoms: C_8  and  S_7 
REMARK    5  A    between atoms: N_14  and  C_13 
ROOT
ATOM      1  N   UNL d   1      51.239  34.041  52.709  0.00  0.00    -0.241 N 
ATOM      2  C   UNL d   1      51.905  34.414  52.467  0.00  0.00     0.268 A 
ATOM      3  C   UNL d   1      51.416  33.432  53.224  0.00  0.00     0.273 A 
ATOM      4  C   UNL d   1      52.237  33.426  53.307  0.00  0.00     0.091 A 
ATOM      5  C   UNL d   1      52.541  34.039  52.834  0.00  0.00     0.072 A 
ATOM      6  O   UNL d   1      51.920  35.051  51.947  0.00  0.00    -0.267 OA
ATOM      7  O   UNL d   1      50.861  32.918  53.592  0.00  0.00    -0.266 OA
ENDROOT
BRANCH   4   8
ATOM      8  S   UNL d   1      52.581  32.872  53.793  0.00  0.00    -0.082 SA
BRANCH   8   9
ATOM      9  C   UNL d   1      53.266  33.056  54.247  0.00  0.00     0.035 A 
ATOM     10  C   UNL d   1      53.876  32.484  54.359  0.00  0.00     0.070 A 
ATOM     11  C   UNL d   1      54.526  32.707  54.811  0.00  0.00     0.007 A 
ATOM     12  C   UNL d   1      54.571  33.473  55.141  0.00  0.00     0.000 A 
ATOM     13  C   UNL d   1      53.953  34.029  55.018  0.00  0.00     0.001 A 
ATOM     14  C   UNL d   1      53.304  33.815  54.572  0.00  0.00     0.007 A 
BRANCH  10  15
ATOM     15  C   UNL d   1      53.825  31.749  54.038  0.00  0.00     0.211 C 
ATOM     16  O   UNL d   1      53.446  31.151  54.450  0.00  0.00    -0.644 OA
ATOM     17  O   UNL d   1      54.137  31.559  53.304  0.00  0.00    -0.644 OA
ENDBRANCH  10  15
ENDBRANCH   8   9
ENDBRANCH   4   8
BRANCH   1  18
ATOM     18  C   UNL d   1      50.471  34.302  52.423  0.00  0.00     0.070 A 
ATOM     19  C   UNL d   1      50.223  34.098  51.680  0.00  0.00     0.019 A 
ATOM     20  C   UNL d   1      49.478  34.359  51.417  0.00  0.00     0.019 A 
ATOM     21  C   UNL d   1      49.005  34.817  51.912  0.00  0.00     0.064 A 
ATOM     22  C   UNL d   1      49.263  35.023  52.670  0.00  0.00     0.019 A 
ATOM     23  C   UNL d   1      49.998  34.767  52.932  0.00  0.00     0.019 A 
BRANCH  21  24
ATOM     24  N   UNL d   1      48.275  35.073  51.656  0.00  0.00    -0.301 N 
ATOM     25  C   UNL d   1      47.813  35.545  52.153  0.00  0.00     0.100 C 
ATOM     26  C   UNL d   1      48.013  34.859  50.913  0.00  0.00     0.100 C 
ENDBRANCH  21  24
ENDBRANCH   1  18
TORSDOF 5
ENDMDL
MODEL 2
REMARK VINA RESULT:      -7.3      1.698      5.287
REMARK  5 active torsions:
REMARK  status: ('A' for Active; 'I' for Inactive)
REMARK    1  A    between atoms: C_10  and  N_1 
REMARK    2  A    between atoms: S_7  and  C_4 
REMARK    3  A    between atoms: C_9  and  C_6 
REMARK    4  A    between atoms: C_8  and  S_7 
REMARK    5  A    between atoms: N_14  and  C_13 
ROOT
ATOM      1  N   UNL d   1      51.201  34.095  52.772  0.00  0.00    -0.241 N 
ATOM      2  C   UNL d   1      51.146  34.268  51.991  0.00  0.00     0.268 A 
ATOM      3  C   UNL d   1      50.513  34.296  53.165  0.00  0.00     0.273 A 
ATOM      4  C   UNL d   1      50.003  34.611  52.596  0.00  0.00     0.091 A 
ATOM      5  C   UNL d   1      50.399  34.593  51.866  0.00  0.00     0.072 A 
ATOM      6  O   UNL d   1      51.743  34.133  51.441  0.00  0.00    -0.267 OA
ATOM      7  O   UNL d   1      50.365  34.197  53.986  0.00  0.00    -0.266 OA
ENDROOT
BRANCH   4   8
ATOM      8  S   UNL d   1      49.265  34.865  52.826  0.00  0.00    -0.082 SA
BRANCH   8   9
ATOM      9  C   UNL d   1      48.674  35.058  52.258  0.00  0.00     0.035 A 
ATOM     10  C   UNL d   1      48.074  35.623  52.435  0.00  0.00     0.070 A 
ATOM     11  C   UNL d   1      47.517  35.781  51.851  0.00  0.00     0.007 A 
ATOM     12  C   UNL d   1      47.553  35.390  51.113  0.00  0.00     0.000 A 
ATOM     13  C   UNL d   1      48.160  34.829  50.956  0.00  0.00     0.001 A 
ATOM     14  C   UNL d   1      48.716  34.668  51.531  0.00  0.00     0.007 A 
BRANCH  10  15
ATOM     15  C   UNL d   1      48.046  35.995  53.148  0.00  0.00     0.211 C 
ATOM     16  O   UNL d   1      47.629  35.657  53.766  0.00  0.00    -0.644 OA
ATOM     17  O   UNL d   1      48.420  36.709  53.295  0.00  0.00    -0.644 OA
ENDBRANCH  10  15
ENDBRANCH   8   9
ENDBRANCH   4   8
BRANCH   1  18
ATOM     18  C   UNL d   1      51.920  33.744  53.085  0.00  0.00     0.070 A 
ATOM     19  C   UNL d   1      52.028  32.942  53.058  0.00  0.00     0.019 A 
ATOM     20  C   UNL d   1      52.730  32.618  53.365  0.00  0.00     0.019 A 
ATOM     21  C   UNL d   1      53.302  33.112  53.692  0.00  0.00     0.064 A 
ATOM     22  C   UNL d   1      53.188  33.931  53.717  0.00  0.00     0.019 A 
ATOM     23  C   UNL d   1      52.496  34.253  53.414  0.00  0.00     0.019 A 
BRANCH  21  24
ATOM     24  N   UNL d   1      53.990  32.795  53.993  0.00  0.00    -0.301 N 
ATOM     25  C   UNL d   1      54.624  32.646  53.484  0.00  0.00     0.100 C 
ATOM     26  C   UNL d   1      54.040  32.631  54.791  0.00  0.00     0.100 C 
ENDBRANCH  21  24
ENDBRANCH   1  18
TORSDOF 5
ENDMDL
