MODEL 1
REMARK VINA RESULT:      48.5      0.000      0.000
REMARK  5 active torsions:
REMARK  status: ('A' for Active; 'I' for Inactive)
REMARK    1  A    between atoms: C_10  and  N_2 
REMARK       I    between atoms: N_3  and  C_6 
REMARK    2  A    between atoms: C_6  and  C_14 
REMARK    3  A    between atoms: C_17  and  C_10 
REMARK    4  A    between atoms: O_13  and  C_12 
REMARK    5  A    between atoms: C_14  and  O_13 
ROOT
ATOM      1  C   UNL d   1      45.216 -16.286  44.691  0.00  0.00     0.265 A 
ATOM      2  N   UNL d   1      46.020 -16.467  44.565  0.00  0.00    -0.272 N 
ATOM      3  C   UNL d   1      44.993 -15.488  44.760  0.00  0.00     0.059 A 
ATOM      4  C   UNL d   1      45.560 -14.885  44.706  0.00  0.00     0.029 A 
ATOM      5  C   UNL d   1      46.352 -15.073  44.582  0.00  0.00     0.021 A 
ATOM      6  C   UNL d   1      46.587 -15.864  44.511  0.00  0.00     0.083 A 
ATOM      7  O   UNL d   1      44.654 -16.882  44.745  0.00  0.00    -0.267 OA
ATOM      8  C   UNL d   1      45.335 -14.090  44.775  0.00  0.00     0.100 A 
ATOM      9  C   UNL d   1      44.192 -15.304  44.885  0.00  0.00     0.005 A 
ATOM     10  C   UNL d   1      43.969 -14.506  44.955  0.00  0.00     0.002 A 
ATOM     11  C   UNL d   1      44.539 -13.901  44.900  0.00  0.00     0.025 A 
ENDROOT
BRANCH   8  12
ATOM     12  O   UNL d   1      45.899 -13.491  44.721  0.00  0.00    -0.300 OA
BRANCH  12  13
ATOM     13  C   UNL d   1      45.649 -12.684  44.479  0.00  0.00     0.184 C 
BRANCH  13  14
ATOM     14  C   UNL d   1      45.798 -12.593  43.575  0.00  0.00     0.290 C 
ATOM     15  N   UNL d   1      45.182 -12.428  43.080  0.00  0.00    -0.272 N 
ATOM     16  C   UNL d   1      45.317 -12.350  42.289  0.00  0.00     0.067 A 
ATOM     17  C   UNL d   1      44.441 -12.344  43.378  0.00  0.00     0.083 A 
ATOM     18  C   UNL d   1      44.699 -12.182  41.774  0.00  0.00     0.016 A 
ATOM     19  C   UNL d   1      46.058 -12.432  41.979  0.00  0.00     0.018 A 
ATOM     20  C   UNL d   1      44.823 -12.101  40.982  0.00  0.00     0.001 A 
ATOM     21  C   UNL d   1      43.951 -12.099  42.092  0.00  0.00     0.003 A 
ATOM     22  C   UNL d   1      45.576 -12.189  40.693  0.00  0.00     0.000 A 
ATOM     23  C   UNL d   1      46.205 -12.356  41.190  0.00  0.00     0.002 A 
ATOM     24  C   UNL d   1      43.823 -12.178  42.883  0.00  0.00     0.019 A 
ATOM     25  O   UNL d   1      46.646 -12.692  43.251  0.00  0.00    -0.264 OA
ENDBRANCH  13  14
ENDBRANCH  12  13
ENDBRANCH   8  12
BRANCH   2  26
ATOM     26  C   UNL d   1      46.253 -17.253  44.495  0.00  0.00     0.083 C 
BRANCH  26  27
ATOM     27  C   UNL d   1      46.295 -17.608  43.751  0.00  0.00     0.018 A 
ATOM     28  C   UNL d   1      46.084 -18.388  43.669  0.00  0.00     0.002 A 
ATOM     29  C   UNL d   1      46.124 -18.745  42.932  0.00  0.00     0.007 A 
ATOM     30  C   UNL d   1      46.378 -18.314  42.272  0.00  0.00     0.035 A 
ATOM     31  C   UNL d   1      46.592 -17.519  42.357  0.00  0.00     0.007 A 
ATOM     32 BR   UNL d   1      46.421 -18.665  41.527  0.00  0.00    -0.049 Br
ATOM     33  C   UNL d   1      46.553 -17.155  43.101  0.00  0.00     0.002 A 
ENDBRANCH  26  27
ENDBRANCH   2  26
TORSDOF 5
ENDMDL
