MODEL 1
REMARK VINA RESULT:      -6.7      0.000      0.000
REMARK  8 active torsions:
REMARK  status: ('A' for Active; 'I' for Inactive)
REMARK    1  A    between atoms: O_18  and  C_5 
REMARK    2  A    between atoms: C_7  and  C_15 
REMARK       I    between atoms: N_14  and  C_7 
REMARK    3  A    between atoms: O_10  and  C_8 
REMARK    4  A    between atoms: O_19  and  C_9 
REMARK    5  A    between atoms: C_15  and  O_10 
REMARK    6  A    between atoms: C_20  and  N_14 
REMARK    7  A    between atoms: C_16  and  C_26 
REMARK    8  A    between atoms: C_26  and  C_20 
ROOT
ATOM      1  C   UNL d   1     -43.822  12.857  21.777  0.00  0.00     0.304 C 
ATOM      2  O   UNL d   1     -43.527  12.174  22.141  0.00  0.00    -0.263 OA
ATOM      3  N   UNL d   1     -43.325  13.373  21.376  0.00  0.00    -0.205 NA
ENDROOT
BRANCH   1   4
ATOM      4  C   UNL d   1     -44.632  13.019  21.818  0.00  0.00     0.185 C 
BRANCH   4   5
ATOM      5  O   UNL d   1     -45.054  12.827  22.498  0.00  0.00    -0.298 OA
BRANCH   5   6
ATOM      6  C   UNL d   1     -45.790  13.159  22.627  0.00  0.00     0.122 A 
ATOM      7  C   UNL d   1     -46.401  12.701  22.940  0.00  0.00     0.117 A 
ATOM      8  O   UNL d   1     -46.428  11.903  23.172  0.00  0.00    -0.330 OA
ATOM      9  C   UNL d   1     -47.145  13.036  23.071  0.00  0.00     0.022 A 
ATOM     10  C   UNL d   1     -47.196  11.748  23.447  0.00  0.00     0.117 A 
ATOM     11  C   UNL d   1     -46.863  11.005  23.555  0.00  0.00     0.035 C 
ATOM     12  C   UNL d   1     -47.965  11.683  23.698  0.00  0.00     0.035 C 
ATOM     13  C   UNL d   1     -47.634  12.447  23.384  0.00  0.00     0.003 A 
ATOM     14  C   UNL d   1     -47.274  13.828  22.888  0.00  0.00     0.002 A 
ATOM     15  C   UNL d   1     -46.671  14.277  22.580  0.00  0.00     0.002 A 
ATOM     16  C   UNL d   1     -45.928  13.942  22.449  0.00  0.00     0.027 A 
ENDBRANCH   5   6
ENDBRANCH   4   5
ENDBRANCH   1   4
BRANCH   3  17
ATOM     17  C   UNL d   1     -42.524  13.212  21.336  0.00  0.00     0.102 C 
BRANCH  17  18
ATOM     18  C   UNL d   1     -42.075  13.501  20.706  0.00  0.00     0.021 C 
BRANCH  18  19
ATOM     19  C   UNL d   1     -41.380  13.924  20.852  0.00  0.00     0.004 A 
ATOM     20  C   UNL d   1     -41.238  14.625  20.462  0.00  0.00     0.026 A 
ATOM     21  C   UNL d   1     -40.546  15.054  20.601  0.00  0.00     0.116 A 
ATOM     22  C   UNL d   1     -39.993  14.767  21.143  0.00  0.00     0.116 A 
ATOM     23  C   UNL d   1     -40.132  14.060  21.539  0.00  0.00     0.026 A 
ATOM     24  C   UNL d   1     -40.824  13.628  21.402  0.00  0.00     0.002 A 
BRANCH  21  25
ATOM     25  O   UNL d   1     -40.406  15.754  20.211  0.00  0.00    -0.326 OA
ATOM     26  C   UNL d   1     -40.493  15.797  19.381  0.00  0.00     0.181 C 
ENDBRANCH  21  25
BRANCH  22  27
ATOM     27  O   UNL d   1     -39.297  15.190  21.289  0.00  0.00    -0.326 OA
ATOM     28  C   UNL d   1     -38.775  14.936  21.874  0.00  0.00     0.181 C 
ENDBRANCH  22  27
ENDBRANCH  18  19
ENDBRANCH  17  18
ENDBRANCH   3  17
TORSDOF 8
ENDMDL
MODEL 2
REMARK VINA RESULT:      -6.5      0.992      6.520
REMARK  8 active torsions:
REMARK  status: ('A' for Active; 'I' for Inactive)
REMARK    1  A    between atoms: O_18  and  C_5 
REMARK    2  A    between atoms: C_7  and  C_15 
REMARK       I    between atoms: N_14  and  C_7 
REMARK    3  A    between atoms: O_10  and  C_8 
REMARK    4  A    between atoms: O_19  and  C_9 
REMARK    5  A    between atoms: C_15  and  O_10 
REMARK    6  A    between atoms: C_20  and  N_14 
REMARK    7  A    between atoms: C_16  and  C_26 
REMARK    8  A    between atoms: C_26  and  C_20 
ROOT
ATOM      1  C   UNL d   1     -43.232  12.897  21.412  0.00  0.00     0.304 C 
ATOM      2  O   UNL d   1     -43.113  12.191  21.826  0.00  0.00    -0.263 OA
ATOM      3  N   UNL d   1     -43.945  13.302  21.458  0.00  0.00    -0.205 NA
ENDROOT
BRANCH   1   4
ATOM      4  C   UNL d   1     -42.621  13.200  20.943  0.00  0.00     0.185 C 
BRANCH   4   5
ATOM      5  O   UNL d   1     -41.920  13.446  21.296  0.00  0.00    -0.298 OA
BRANCH   5   6
ATOM      6  C   UNL d   1     -41.365  13.856  20.855  0.00  0.00     0.122 A 
ATOM      7  C   UNL d   1     -40.597  13.950  21.141  0.00  0.00     0.117 A 
ATOM      8  O   UNL d   1     -40.235  13.692  21.844  0.00  0.00    -0.330 OA
ATOM      9  C   UNL d   1     -40.037  14.364  20.696  0.00  0.00     0.022 A 
ATOM     10  C   UNL d   1     -39.446  13.951  21.830  0.00  0.00     0.117 A 
ATOM     11  C   UNL d   1     -39.448  13.566  22.555  0.00  0.00     0.035 C 
ATOM     12  C   UNL d   1     -38.694  14.240  21.735  0.00  0.00     0.035 C 
ATOM     13  C   UNL d   1     -39.327  14.363  21.122  0.00  0.00     0.003 A 
ATOM     14  C   UNL d   1     -40.248  14.682  19.967  0.00  0.00     0.002 A 
ATOM     15  C   UNL d   1     -41.005  14.589  19.688  0.00  0.00     0.002 A 
ATOM     16  C   UNL d   1     -41.565  14.176  20.133  0.00  0.00     0.027 A 
ENDBRANCH   5   6
ENDBRANCH   4   5
ENDBRANCH   1   4
BRANCH   3  17
ATOM     17  C   UNL d   1     -44.549  13.003  21.921  0.00  0.00     0.102 C 
BRANCH  17  18
ATOM     18  C   UNL d   1     -45.124  13.509  22.228  0.00  0.00     0.021 C 
BRANCH  18  19
ATOM     19  C   UNL d   1     -45.815  13.199  22.561  0.00  0.00     0.004 A 
ATOM     20  C   UNL d   1     -46.517  13.609  22.502  0.00  0.00     0.026 A 
ATOM     21  C   UNL d   1     -47.212  13.306  22.831  0.00  0.00     0.116 A 
ATOM     22  C   UNL d   1     -47.193  12.581  23.223  0.00  0.00     0.116 A 
ATOM     23  C   UNL d   1     -46.486  12.163  23.285  0.00  0.00     0.026 A 
ATOM     24  C   UNL d   1     -45.788  12.463  22.957  0.00  0.00     0.002 A 
BRANCH  21  25
ATOM     25  O   UNL d   1     -47.911  13.718  22.771  0.00  0.00    -0.326 OA
ATOM     26  C   UNL d   1     -47.906  14.532  22.588  0.00  0.00     0.181 C 
ENDBRANCH  21  25
BRANCH  22  27
ATOM     27  O   UNL d   1     -47.883  12.270  23.556  0.00  0.00    -0.326 OA
ATOM     28  C   UNL d   1     -47.954  11.458  23.679  0.00  0.00     0.181 C 
ENDBRANCH  22  27
ENDBRANCH  18  19
ENDBRANCH  17  18
ENDBRANCH   3  17
TORSDOF 8
ENDMDL
MODEL 3
REMARK VINA RESULT:      -6.5      1.152      6.635
REMARK  8 active torsions:
REMARK  status: ('A' for Active; 'I' for Inactive)
REMARK    1  A    between atoms: O_18  and  C_5 
REMARK    2  A    between atoms: C_7  and  C_15 
REMARK       I    between atoms: N_14  and  C_7 
REMARK    3  A    between atoms: O_10  and  C_8 
REMARK    4  A    between atoms: O_19  and  C_9 
REMARK    5  A    between atoms: C_15  and  O_10 
REMARK    6  A    between atoms: C_20  and  N_14 
REMARK    7  A    between atoms: C_16  and  C_26 
REMARK    8  A    between atoms: C_26  and  C_20 
ROOT
ATOM      1  C   UNL d   1     -43.173  13.032  21.296  0.00  0.00     0.304 C 
ATOM      2  O   UNL d   1     -43.420  12.531  20.685  0.00  0.00    -0.263 OA
ATOM      3  N   UNL d   1     -43.702  13.306  21.861  0.00  0.00    -0.205 NA
ENDROOT
BRANCH   1   4
ATOM      4  C   UNL d   1     -42.379  13.260  21.336  0.00  0.00     0.185 C 
BRANCH   4   5
ATOM      5  O   UNL d   1     -42.018  13.602  20.681  0.00  0.00    -0.298 OA
BRANCH   5   6
ATOM      6  C   UNL d   1     -41.260  13.903  20.745  0.00  0.00     0.122 A 
ATOM      7  C   UNL d   1     -40.841  14.116  20.067  0.00  0.00     0.117 A 
ATOM      8  O   UNL d   1     -41.045  14.087  19.261  0.00  0.00    -0.330 OA
ATOM      9  C   UNL d   1     -40.075  14.419  20.131  0.00  0.00     0.022 A 
ATOM     10  C   UNL d   1     -40.398  14.376  18.828  0.00  0.00     0.117 A 
ATOM     11  C   UNL d   1     -40.911  14.210  18.208  0.00  0.00     0.035 C 
ATOM     12  C   UNL d   1     -39.724  14.669  18.484  0.00  0.00     0.035 C 
ATOM     13  C   UNL d   1     -39.803  14.579  19.366  0.00  0.00     0.003 A 
ATOM     14  C   UNL d   1     -39.731  14.508  20.874  0.00  0.00     0.002 A 
ATOM     15  C   UNL d   1     -40.146  14.297  21.540  0.00  0.00     0.002 A 
ATOM     16  C   UNL d   1     -40.911  13.994  21.476  0.00  0.00     0.027 A 
ENDBRANCH   5   6
ENDBRANCH   4   5
ENDBRANCH   1   4
BRANCH   3  17
ATOM     17  C   UNL d   1     -44.487  13.080  21.821  0.00  0.00     0.102 C 
BRANCH  17  18
ATOM     18  C   UNL d   1     -45.071  13.551  22.167  0.00  0.00     0.021 C 
BRANCH  18  19
ATOM     19  C   UNL d   1     -45.745  13.201  22.494  0.00  0.00     0.004 A 
ATOM     20  C   UNL d   1     -46.472  13.561  22.414  0.00  0.00     0.026 A 
ATOM     21  C   UNL d   1     -47.151  13.219  22.737  0.00  0.00     0.116 A 
ATOM     22  C   UNL d   1     -47.090  12.504  23.146  0.00  0.00     0.116 A 
ATOM     23  C   UNL d   1     -46.358  12.137  23.229  0.00  0.00     0.026 A 
ATOM     24  C   UNL d   1     -45.677  12.477  22.907  0.00  0.00     0.002 A 
BRANCH  21  25
ATOM     25  O   UNL d   1     -47.875  13.580  22.655  0.00  0.00    -0.326 OA
ATOM     26  C   UNL d   1     -47.926  14.410  22.577  0.00  0.00     0.181 C 
ENDBRANCH  21  25
BRANCH  22  27
ATOM     27  O   UNL d   1     -47.765  12.155  23.472  0.00  0.00    -0.326 OA
ATOM     28  C   UNL d   1     -47.751  11.361  23.698  0.00  0.00     0.181 C 
ENDBRANCH  22  27
ENDBRANCH  18  19
ENDBRANCH  17  18
ENDBRANCH   3  17
TORSDOF 8
ENDMDL
MODEL 4
REMARK VINA RESULT:      -6.5      0.879      1.776
REMARK  8 active torsions:
REMARK  status: ('A' for Active; 'I' for Inactive)
REMARK    1  A    between atoms: O_18  and  C_5 
REMARK    2  A    between atoms: C_7  and  C_15 
REMARK       I    between atoms: N_14  and  C_7 
REMARK    3  A    between atoms: O_10  and  C_8 
REMARK    4  A    between atoms: O_19  and  C_9 
REMARK    5  A    between atoms: C_15  and  O_10 
REMARK    6  A    between atoms: C_20  and  N_14 
REMARK    7  A    between atoms: C_16  and  C_26 
REMARK    8  A    between atoms: C_26  and  C_20 
ROOT
ATOM      1  C   UNL d   1     -43.655  12.800  21.491  0.00  0.00     0.304 C 
ATOM      2  O   UNL d   1     -43.804  12.599  20.701  0.00  0.00    -0.263 OA
ATOM      3  N   UNL d   1     -42.971  13.201  21.705  0.00  0.00    -0.205 NA
ENDROOT
BRANCH   1   4
ATOM      4  C   UNL d   1     -44.205  12.592  22.072  0.00  0.00     0.185 C 
BRANCH   4   5
ATOM      5  O   UNL d   1     -44.898  13.029  22.154  0.00  0.00    -0.298 OA
BRANCH   5   6
ATOM      6  C   UNL d   1     -45.510  12.738  22.612  0.00  0.00     0.122 A 
ATOM      7  C   UNL d   1     -46.186  13.194  22.737  0.00  0.00     0.117 A 
ATOM      8  O   UNL d   1     -46.395  13.954  22.471  0.00  0.00    -0.330 OA
ATOM      9  C   UNL d   1     -46.804  12.901  23.200  0.00  0.00     0.022 A 
ATOM     10  C   UNL d   1     -47.148  14.128  22.774  0.00  0.00     0.117 A 
ATOM     11  C   UNL d   1     -47.007  14.823  22.359  0.00  0.00     0.035 C 
ATOM     12  C   UNL d   1     -47.882  14.216  23.109  0.00  0.00     0.035 C 
ATOM     13  C   UNL d   1     -47.397  13.478  23.222  0.00  0.00     0.003 A 
ATOM     14  C   UNL d   1     -46.743  12.153  23.537  0.00  0.00     0.002 A 
ATOM     15  C   UNL d   1     -46.077  11.705  23.413  0.00  0.00     0.002 A 
ATOM     16  C   UNL d   1     -45.459  11.998  22.950  0.00  0.00     0.027 A 
ENDBRANCH   5   6
ENDBRANCH   4   5
ENDBRANCH   1   4
BRANCH   3  17
ATOM     17  C   UNL d   1     -42.427  13.406  21.130  0.00  0.00     0.102 C 
BRANCH  17  18
ATOM     18  C   UNL d   1     -41.671  13.657  21.347  0.00  0.00     0.021 C 
BRANCH  18  19
ATOM     19  C   UNL d   1     -41.222  14.119  20.828  0.00  0.00     0.004 A 
ATOM     20  C   UNL d   1     -40.808  14.763  21.108  0.00  0.00     0.026 A 
ATOM     21  C   UNL d   1     -40.357  15.229  20.596  0.00  0.00     0.116 A 
ATOM     22  C   UNL d   1     -40.328  15.040  19.793  0.00  0.00     0.116 A 
ATOM     23  C   UNL d   1     -40.745  14.391  19.507  0.00  0.00     0.026 A 
ATOM     24  C   UNL d   1     -41.197  13.921  20.016  0.00  0.00     0.002 A 
BRANCH  21  25
ATOM     25  O   UNL d   1     -39.945  15.871  20.877  0.00  0.00    -0.326 OA
ATOM     26  C   UNL d   1     -39.726  15.912  21.682  0.00  0.00     0.181 C 
ENDBRANCH  21  25
BRANCH  22  27
ATOM     27  O   UNL d   1     -39.879  15.502  19.274  0.00  0.00    -0.326 OA
ATOM     28  C   UNL d   1     -39.825  15.294  18.478  0.00  0.00     0.181 C 
ENDBRANCH  22  27
ENDBRANCH  18  19
ENDBRANCH  17  18
ENDBRANCH   3  17
TORSDOF 8
ENDMDL
MODEL 5
REMARK VINA RESULT:      -6.2      0.903      1.477
REMARK  8 active torsions:
REMARK  status: ('A' for Active; 'I' for Inactive)
REMARK    1  A    between atoms: O_18  and  C_5 
REMARK    2  A    between atoms: C_7  and  C_15 
REMARK       I    between atoms: N_14  and  C_7 
REMARK    3  A    between atoms: O_10  and  C_8 
REMARK    4  A    between atoms: O_19  and  C_9 
REMARK    5  A    between atoms: C_15  and  O_10 
REMARK    6  A    between atoms: C_20  and  N_14 
REMARK    7  A    between atoms: C_16  and  C_26 
REMARK    8  A    between atoms: C_26  and  C_20 
ROOT
ATOM      1  C   UNL d   1     -44.343  13.180  21.890  0.00  0.00     0.304 C 
ATOM      2  O   UNL d   1     -44.500  13.991  21.830  0.00  0.00    -0.263 OA
ATOM      3  N   UNL d   1     -43.625  12.867  21.646  0.00  0.00    -0.205 NA
ENDROOT
BRANCH   1   4
ATOM      4  C   UNL d   1     -44.921  12.678  22.203  0.00  0.00     0.185 C 
BRANCH   4   5
ATOM      5  O   UNL d   1     -45.604  12.997  22.534  0.00  0.00    -0.298 OA
BRANCH   5   6
ATOM      6  C   UNL d   1     -46.135  12.509  22.920  0.00  0.00     0.122 A 
ATOM      7  C   UNL d   1     -46.931  12.721  22.971  0.00  0.00     0.117 A 
ATOM      8  O   UNL d   1     -47.343  13.386  22.688  0.00  0.00    -0.330 OA
ATOM      9  C   UNL d   1     -47.467  12.228  23.361  0.00  0.00     0.022 A 
ATOM     10  C   UNL d   1     -48.139  13.299  22.906  0.00  0.00     0.117 A 
ATOM     11  C   UNL d   1     -48.186  14.019  22.514  0.00  0.00     0.035 C 
ATOM     12  C   UNL d   1     -48.893  13.136  23.158  0.00  0.00     0.035 C 
ATOM     13  C   UNL d   1     -48.213  12.586  23.320  0.00  0.00     0.003 A 
ATOM     14  C   UNL d   1     -47.205  11.525  23.698  0.00  0.00     0.002 A 
ATOM     15  C   UNL d   1     -46.422  11.317  23.646  0.00  0.00     0.002 A 
ATOM     16  C   UNL d   1     -45.885  11.810  23.257  0.00  0.00     0.027 A 
ENDBRANCH   5   6
ENDBRANCH   4   5
ENDBRANCH   1   4
BRANCH   3  17
ATOM     17  C   UNL d   1     -43.053  13.364  21.337  0.00  0.00     0.102 C 
BRANCH  17  18
ATOM     18  C   UNL d   1     -42.334  13.054  21.075  0.00  0.00     0.021 C 
BRANCH  18  19
ATOM     19  C   UNL d   1     -41.685  13.554  20.958  0.00  0.00     0.004 A 
ATOM     20  C   UNL d   1     -41.533  13.860  20.218  0.00  0.00     0.026 A 
ATOM     21  C   UNL d   1     -40.887  14.360  20.092  0.00  0.00     0.116 A 
ATOM     22  C   UNL d   1     -40.392  14.550  20.724  0.00  0.00     0.116 A 
ATOM     23  C   UNL d   1     -40.542  14.244  21.473  0.00  0.00     0.026 A 
ATOM     24  C   UNL d   1     -41.188  13.743  21.602  0.00  0.00     0.002 A 
BRANCH  21  25
ATOM     25  O   UNL d   1     -40.737  14.663  19.352  0.00  0.00    -0.326 OA
ATOM     26  C   UNL d   1     -40.887  14.205  18.671  0.00  0.00     0.181 C 
ENDBRANCH  21  25
BRANCH  22  27
ATOM     27  O   UNL d   1     -39.744  15.050  20.607  0.00  0.00    -0.326 OA
ATOM     28  C   UNL d   1     -39.284  15.287  21.249  0.00  0.00     0.181 C 
ENDBRANCH  22  27
ENDBRANCH  18  19
ENDBRANCH  17  18
ENDBRANCH   3  17
TORSDOF 8
ENDMDL
MODEL 6
REMARK VINA RESULT:      -5.7      1.691      6.883
REMARK  8 active torsions:
REMARK  status: ('A' for Active; 'I' for Inactive)
REMARK    1  A    between atoms: O_18  and  C_5 
REMARK    2  A    between atoms: C_7  and  C_15 
REMARK       I    between atoms: N_14  and  C_7 
REMARK    3  A    between atoms: O_10  and  C_8 
REMARK    4  A    between atoms: O_19  and  C_9 
REMARK    5  A    between atoms: C_15  and  O_10 
REMARK    6  A    between atoms: C_20  and  N_14 
REMARK    7  A    between atoms: C_16  and  C_26 
REMARK    8  A    between atoms: C_26  and  C_20 
ROOT
ATOM      1  C   UNL d   1     -41.634  14.051  20.794  0.00  0.00     0.304 C 
ATOM      2  O   UNL d   1     -41.914  14.749  21.141  0.00  0.00    -0.263 OA
ATOM      3  N   UNL d   1     -42.054  13.348  20.857  0.00  0.00    -0.205 NA
ENDROOT
BRANCH   1   4
ATOM      4  C   UNL d   1     -40.920  14.064  20.377  0.00  0.00     0.185 C 
BRANCH   4   5
ATOM      5  O   UNL d   1     -40.879  14.442  19.648  0.00  0.00    -0.298 OA
BRANCH   5   6
ATOM      6  C   UNL d   1     -40.201  14.379  19.195  0.00  0.00     0.122 A 
ATOM      7  C   UNL d   1     -40.188  14.676  18.425  0.00  0.00     0.117 A 
ATOM      8  O   UNL d   1     -40.771  15.060  17.973  0.00  0.00    -0.330 OA
ATOM      9  C   UNL d   1     -39.503  14.612  17.968  0.00  0.00     0.022 A 
ATOM     10  C   UNL d   1     -40.440  15.233  17.232  0.00  0.00     0.117 A 
ATOM     11  C   UNL d   1     -41.192  15.544  17.119  0.00  0.00     0.035 C 
ATOM     12  C   UNL d   1     -40.041  15.363  16.538  0.00  0.00     0.035 C 
ATOM     13  C   UNL d   1     -39.660  14.957  17.231  0.00  0.00     0.003 A 
ATOM     14  C   UNL d   1     -38.834  14.252  18.282  0.00  0.00     0.002 A 
ATOM     15  C   UNL d   1     -38.848  13.960  19.040  0.00  0.00     0.002 A 
ATOM     16  C   UNL d   1     -39.532  14.024  19.497  0.00  0.00     0.027 A 
ENDBRANCH   5   6
ENDBRANCH   4   5
ENDBRANCH   1   4
BRANCH   3  17
ATOM     17  C   UNL d   1     -42.760  13.335  21.269  0.00  0.00     0.102 C 
BRANCH  17  18
ATOM     18  C   UNL d   1     -43.231  12.657  21.263  0.00  0.00     0.021 C 
BRANCH  18  19
ATOM     19  C   UNL d   1     -43.898  12.611  21.749  0.00  0.00     0.004 A 
ATOM     20  C   UNL d   1     -43.967  12.007  22.292  0.00  0.00     0.026 A 
ATOM     21  C   UNL d   1     -44.629  11.953  22.782  0.00  0.00     0.116 A 
ATOM     22  C   UNL d   1     -45.228  12.518  22.720  0.00  0.00     0.116 A 
ATOM     23  C   UNL d   1     -45.162  13.129  22.173  0.00  0.00     0.026 A 
ATOM     24  C   UNL d   1     -44.500  13.186  21.681  0.00  0.00     0.002 A 
BRANCH  21  25
ATOM     25  O   UNL d   1     -44.696  11.349  23.324  0.00  0.00    -0.326 OA
ATOM     26  C   UNL d   1     -44.145  10.721  23.323  0.00  0.00     0.181 C 
ENDBRANCH  21  25
BRANCH  22  27
ATOM     27  O   UNL d   1     -45.895  12.471  23.207  0.00  0.00    -0.326 OA
ATOM     28  C   UNL d   1     -46.498  13.030  23.136  0.00  0.00     0.181 C 
ENDBRANCH  22  27
ENDBRANCH  18  19
ENDBRANCH  17  18
ENDBRANCH   3  17
TORSDOF 8
ENDMDL
