MODEL 1
REMARK VINA RESULT:      39.4      0.000      0.000
REMARK  5 active torsions:
REMARK  status: ('A' for Active; 'I' for Inactive)
REMARK    1  A    between atoms: C_6  and  C_1 
REMARK    2  A    between atoms: C_7  and  C_6 
REMARK    3  A    between atoms: C_10  and  O_14 
REMARK    4  A    between atoms: C_20  and  C_10 
REMARK    5  A    between atoms: O_14  and  C_12 
ROOT
ATOM      1  C   UNL d   1      60.077  49.668  50.711  0.00  0.00     0.141 A 
ATOM      2  C   UNL d   1      58.863  49.689  51.256  0.00  0.00     0.064 A 
ATOM      3  C   UNL d   1      59.665  49.683  51.423  0.00  0.00     0.220 A 
ATOM      4  C   UNL d   1      58.772  49.680  50.436  0.00  0.00     0.105 A 
ATOM      5  O   UNL d   1      59.526  49.667  50.093  0.00  0.00    -0.304 OA
ATOM      6  C   UNL d   1      58.024  49.684  50.109  0.00  0.00     0.050 A 
ATOM      7  C   UNL d   1      58.200  49.703  51.744  0.00  0.00     0.007 A 
ATOM      8  C   UNL d   1      57.361  49.698  50.597  0.00  0.00     0.105 A 
ATOM      9  O   UNL d   1      60.009  49.689  52.178  0.00  0.00    -0.284 OA
ATOM     10  C   UNL d   1      57.451  49.708  51.412  0.00  0.00     0.025 A 
ENDROOT
BRANCH   1  11
ATOM     11  C   UNL d   1      60.897  49.658  50.620  0.00  0.00     0.053 C 
BRANCH  11  12
ATOM     12  C   UNL d   1      61.285  48.968  50.378  0.00  0.00     0.102 A 
ATOM     13  O   UNL d   1      61.897  48.915  49.834  0.00  0.00    -0.305 OA
ATOM     14  C   UNL d   1      62.113  48.123  49.762  0.00  0.00     0.123 A 
ATOM     15  C   UNL d   1      61.633  47.677  50.266  0.00  0.00     0.029 A 
ATOM     16  C   UNL d   1      61.118  48.198  50.650  0.00  0.00     0.027 A 
ENDBRANCH  11  12
ENDBRANCH   1  11
BRANCH   8  17
ATOM     17  O   UNL d   1      56.608  49.702  50.265  0.00  0.00    -0.273 OA
BRANCH  17  18
ATOM     18  C   UNL d   1      56.419  49.178  49.661  0.00  0.00     0.300 C 
ATOM     19  O   UNL d   1      56.537  49.400  48.875  0.00  0.00    -0.259 OA
BRANCH  18  20
ATOM     20  C   UNL d   1      56.114  48.433  49.847  0.00  0.00     0.069 C 
ATOM     21  C   UNL d   1      56.157  47.824  49.288  0.00  0.00     0.006 C 
ENDBRANCH  18  20
ENDBRANCH  17  18
ENDBRANCH   8  17
TORSDOF 5
ENDMDL
