MODEL 1
REMARK VINA RESULT:      -8.5      0.000      0.000
REMARK  4 active torsions:
REMARK  status: ('A' for Active; 'I' for Inactive)
REMARK    1  A    between atoms: N_7  and  S_1 
REMARK    2  A    between atoms: C_8  and  S_1 
REMARK    3  A    between atoms: C_16  and  N_7 
REMARK    4  A    between atoms: C_15  and  C_16 
ROOT
ATOM      1  C   UNL d   1      52.373  33.573  52.919  0.00  0.00     0.112 C 
ENDROOT
BRANCH   1   2
ATOM      2  C   UNL d   1      51.623  33.901  52.834  0.00  0.00     0.020 A 
ATOM      3  C   UNL d   1      51.229  33.861  52.104  0.00  0.00     0.003 A 
ATOM      4  C   UNL d   1      50.475  34.192  52.026  0.00  0.00     0.018 A 
ATOM      5  C   UNL d   1      49.956  34.237  51.384  0.00  0.00     0.019 A 
ATOM      6  C   UNL d   1      50.111  34.562  52.669  0.00  0.00     0.064 A 
ATOM      7  C   UNL d   1      49.280  34.632  51.631  0.00  0.00     0.064 A 
ATOM      8  C   UNL d   1      48.622  34.798  51.162  0.00  0.00     0.019 C 
ATOM      9  N   UNL d   1      49.376  34.832  52.423  0.00  0.00    -0.304 N 
ATOM     10  C   UNL d   1      48.823  35.236  52.888  0.00  0.00     0.099 C 
ATOM     11  C   UNL d   1      50.498  34.604  53.393  0.00  0.00     0.018 A 
ATOM     12  C   UNL d   1      51.255  34.275  53.483  0.00  0.00     0.003 A 
ENDBRANCH   1   2
BRANCH   1  13
ATOM     13  N   UNL d   1      52.481  32.759  52.856  0.00  0.00    -0.157 NA
BRANCH  13  14
ATOM     14  S   UNL d   1      53.191  32.414  53.091  0.00  0.00     0.285 S 
ATOM     15  O   UNL d   1      53.983  32.269  53.285  0.00  0.00    -0.198 OA
ATOM     16  O   UNL d   1      53.385  33.202  52.906  0.00  0.00    -0.198 OA
BRANCH  14  17
ATOM     17  C   UNL d   1      53.215  31.628  53.318  0.00  0.00     0.105 A 
ATOM     18  C   UNL d   1      52.955  31.045  52.795  0.00  0.00     0.013 A 
ATOM     19  C   UNL d   1      52.979  30.247  53.024  0.00  0.00     0.001 A 
ATOM     20  C   UNL d   1      53.262  30.041  53.771  0.00  0.00     0.000 A 
ATOM     21  C   UNL d   1      53.523  30.635  54.293  0.00  0.00     0.001 A 
ATOM     22  C   UNL d   1      53.287  29.251  54.000  0.00  0.00     0.000 C 
ATOM     23  C   UNL d   1      53.497  31.422  54.061  0.00  0.00     0.013 A 
ENDBRANCH  14  17
ENDBRANCH  13  14
ENDBRANCH   1  13
TORSDOF 4
ENDMDL
MODEL 2
REMARK VINA RESULT:      -8.3      1.374      1.898
REMARK  4 active torsions:
REMARK  status: ('A' for Active; 'I' for Inactive)
REMARK    1  A    between atoms: N_7  and  S_1 
REMARK    2  A    between atoms: C_8  and  S_1 
REMARK    3  A    between atoms: C_16  and  N_7 
REMARK    4  A    between atoms: C_15  and  C_16 
ROOT
ATOM      1  C   UNL d   1      51.747  33.648  52.539  0.00  0.00     0.112 C 
ENDROOT
BRANCH   1   2
ATOM      2  C   UNL d   1      51.023  34.039  52.569  0.00  0.00     0.020 A 
ATOM      3  C   UNL d   1      50.523  34.047  51.906  0.00  0.00     0.003 A 
ATOM      4  C   UNL d   1      49.798  34.442  51.945  0.00  0.00     0.018 A 
ATOM      5  C   UNL d   1      49.196  34.545  51.388  0.00  0.00     0.019 A 
ATOM      6  C   UNL d   1      49.567  34.829  52.637  0.00  0.00     0.064 A 
ATOM      7  C   UNL d   1      48.600  34.991  51.735  0.00  0.00     0.064 A 
ATOM      8  C   UNL d   1      47.897  35.221  51.372  0.00  0.00     0.019 C 
ATOM      9  N   UNL d   1      48.830  35.166  52.506  0.00  0.00    -0.304 N 
ATOM     10  C   UNL d   1      48.390  35.606  53.052  0.00  0.00     0.099 C 
ATOM     11  C   UNL d   1      50.059  34.824  53.296  0.00  0.00     0.018 A 
ATOM     12  C   UNL d   1      50.790  34.430  53.268  0.00  0.00     0.003 A 
ENDBRANCH   1   2
BRANCH   1  13
ATOM     13  N   UNL d   1      52.078  33.331  53.223  0.00  0.00    -0.157 NA
BRANCH  13  14
ATOM     14  S   UNL d   1      52.818  32.970  53.199  0.00  0.00     0.285 S 
ATOM     15  O   UNL d   1      53.480  32.519  52.990  0.00  0.00    -0.198 OA
ATOM     16  O   UNL d   1      52.421  32.694  52.522  0.00  0.00    -0.198 OA
BRANCH  14  17
ATOM     17  C   UNL d   1      53.369  33.113  53.787  0.00  0.00     0.105 A 
ATOM     18  C   UNL d   1      53.460  32.569  54.401  0.00  0.00     0.013 A 
ATOM     19  C   UNL d   1      54.018  32.713  54.999  0.00  0.00     0.001 A 
ATOM     20  C   UNL d   1      54.478  33.398  54.976  0.00  0.00     0.000 A 
ATOM     21  C   UNL d   1      54.380  33.942  54.354  0.00  0.00     0.001 A 
ATOM     22  C   UNL d   1      55.033  33.544  55.567  0.00  0.00     0.000 C 
ATOM     23  C   UNL d   1      53.827  33.794  53.767  0.00  0.00     0.013 A 
ENDBRANCH  14  17
ENDBRANCH  13  14
ENDBRANCH   1  13
TORSDOF 4
ENDMDL
MODEL 3
REMARK VINA RESULT:      -8.0      1.157      4.751
REMARK  4 active torsions:
REMARK  status: ('A' for Active; 'I' for Inactive)
REMARK    1  A    between atoms: N_7  and  S_1 
REMARK    2  A    between atoms: C_8  and  S_1 
REMARK    3  A    between atoms: C_16  and  N_7 
REMARK    4  A    between atoms: C_15  and  C_16 
ROOT
ATOM      1  C   UNL d   1      53.190  33.048  53.238  0.00  0.00     0.112 C 
ENDROOT
BRANCH   1   2
ATOM      2  C   UNL d   1      53.247  32.255  53.452  0.00  0.00     0.020 A 
ATOM      3  C   UNL d   1      52.891  31.669  52.984  0.00  0.00     0.003 A 
ATOM      4  C   UNL d   1      52.953  30.875  53.204  0.00  0.00     0.018 A 
ATOM      5  C   UNL d   1      52.664  30.182  52.857  0.00  0.00     0.019 A 
ATOM      6  C   UNL d   1      53.365  30.659  53.887  0.00  0.00     0.064 A 
ATOM      7  C   UNL d   1      52.897  29.547  53.323  0.00  0.00     0.064 A 
ATOM      8  C   UNL d   1      52.725  28.754  53.177  0.00  0.00     0.019 C 
ATOM      9  N   UNL d   1      53.329  29.843  53.958  0.00  0.00    -0.304 N 
ATOM     10  C   UNL d   1      53.668  29.389  54.562  0.00  0.00     0.099 C 
ATOM     11  C   UNL d   1      53.719  31.237  54.354  0.00  0.00     0.018 A 
ATOM     12  C   UNL d   1      53.664  32.037  54.141  0.00  0.00     0.003 A 
ENDBRANCH   1   2
BRANCH   1  13
ATOM     13  N   UNL d   1      52.538  33.495  53.470  0.00  0.00    -0.157 NA
BRANCH  13  14
ATOM     14  S   UNL d   1      52.338  34.181  53.061  0.00  0.00     0.285 S 
ATOM     15  O   UNL d   1      52.348  34.920  52.686  0.00  0.00    -0.198 OA
ATOM     16  O   UNL d   1      53.143  34.270  53.249  0.00  0.00    -0.198 OA
BRANCH  14  17
ATOM     17  C   UNL d   1      51.576  34.291  52.783  0.00  0.00     0.105 A 
ATOM     18  C   UNL d   1      50.967  34.452  53.317  0.00  0.00     0.013 A 
ATOM     19  C   UNL d   1      50.193  34.564  53.037  0.00  0.00     0.001 A 
ATOM     20  C   UNL d   1      50.036  34.513  52.229  0.00  0.00     0.000 A 
ATOM     21  C   UNL d   1      50.656  34.350  51.696  0.00  0.00     0.001 A 
ATOM     22  C   UNL d   1      49.270  34.623  51.948  0.00  0.00     0.000 C 
ATOM     23  C   UNL d   1      51.418  34.241  51.980  0.00  0.00     0.013 A 
ENDBRANCH  14  17
ENDBRANCH  13  14
ENDBRANCH   1  13
TORSDOF 4
ENDMDL
MODEL 4
REMARK VINA RESULT:      -7.7      2.072      5.279
REMARK  4 active torsions:
REMARK  status: ('A' for Active; 'I' for Inactive)
REMARK    1  A    between atoms: N_7  and  S_1 
REMARK    2  A    between atoms: C_8  and  S_1 
REMARK    3  A    between atoms: C_16  and  N_7 
REMARK    4  A    between atoms: C_15  and  C_16 
ROOT
ATOM      1  C   UNL d   1      50.819  34.277  52.355  0.00  0.00     0.112 C 
ENDROOT
BRANCH   1   2
ATOM      2  C   UNL d   1      51.483  34.156  52.826  0.00  0.00     0.020 A 
ATOM      3  C   UNL d   1      51.794  33.392  52.923  0.00  0.00     0.003 A 
ATOM      4  C   UNL d   1      52.461  33.278  53.397  0.00  0.00     0.018 A 
ATOM      5  C   UNL d   1      52.888  32.598  53.595  0.00  0.00     0.019 A 
ATOM      6  C   UNL d   1      52.821  33.918  53.776  0.00  0.00     0.064 A 
ATOM      7  C   UNL d   1      53.504  32.819  54.090  0.00  0.00     0.064 A 
ATOM      8  C   UNL d   1      54.065  32.310  54.417  0.00  0.00     0.019 C 
ATOM      9  N   UNL d   1      53.462  33.633  54.202  0.00  0.00    -0.304 N 
ATOM     10  C   UNL d   1      53.980  34.083  54.665  0.00  0.00     0.099 C 
ATOM     11  C   UNL d   1      52.516  34.676  53.683  0.00  0.00     0.018 A 
ATOM     12  C   UNL d   1      51.847  34.802  53.209  0.00  0.00     0.003 A 
ENDBRANCH   1   2
BRANCH   1  13
ATOM     13  N   UNL d   1      50.124  34.574  52.684  0.00  0.00    -0.157 NA
BRANCH  13  14
ATOM     14  S   UNL d   1      49.457  34.688  52.214  0.00  0.00     0.285 S 
ATOM     15  O   UNL d   1      48.892  34.661  51.610  0.00  0.00    -0.198 OA
ATOM     16  O   UNL d   1      49.930  34.152  51.790  0.00  0.00    -0.198 OA
BRANCH  14  17
ATOM     17  C   UNL d   1      48.859  35.190  52.459  0.00  0.00     0.105 A 
ATOM     18  C   UNL d   1      48.297  35.450  51.914  0.00  0.00     0.013 A 
ATOM     19  C   UNL d   1      47.690  35.960  52.159  0.00  0.00     0.001 A 
ATOM     20  C   UNL d   1      47.650  36.204  52.947  0.00  0.00     0.000 A 
ATOM     21  C   UNL d   1      48.221  35.937  53.492  0.00  0.00     0.001 A 
ATOM     22  C   UNL d   1      47.049  36.709  53.194  0.00  0.00     0.000 C 
ATOM     23  C   UNL d   1      48.818  35.433  53.242  0.00  0.00     0.013 A 
ENDBRANCH  14  17
ENDBRANCH  13  14
ENDBRANCH   1  13
TORSDOF 4
ENDMDL
MODEL 5
REMARK VINA RESULT:      -7.6      1.945      2.873
REMARK  4 active torsions:
REMARK  status: ('A' for Active; 'I' for Inactive)
REMARK    1  A    between atoms: N_7  and  S_1 
REMARK    2  A    between atoms: C_8  and  S_1 
REMARK    3  A    between atoms: C_16  and  N_7 
REMARK    4  A    between atoms: C_15  and  C_16 
ROOT
ATOM      1  C   UNL d   1      50.141  34.413  52.231  0.00  0.00     0.112 C 
ENDROOT
BRANCH   1   2
ATOM      2  C   UNL d   1      49.451  34.834  52.391  0.00  0.00     0.020 A 
ATOM      3  C   UNL d   1      48.864  34.911  51.809  0.00  0.00     0.003 A 
ATOM      4  C   UNL d   1      48.174  35.335  51.976  0.00  0.00     0.018 A 
ATOM      5  C   UNL d   1      47.506  35.503  51.520  0.00  0.00     0.019 A 
ATOM      6  C   UNL d   1      48.065  35.683  52.717  0.00  0.00     0.064 A 
ATOM      7  C   UNL d   1      46.991  35.950  51.977  0.00  0.00     0.064 A 
ATOM      8  C   UNL d   1      46.256  36.237  51.734  0.00  0.00     0.019 C 
ATOM      9  N   UNL d   1      47.337  36.061  52.715  0.00  0.00    -0.304 N 
ATOM     10  C   UNL d   1      47.003  36.482  53.346  0.00  0.00     0.099 C 
ATOM     11  C   UNL d   1      48.644  35.610  53.296  0.00  0.00     0.018 A 
ATOM     12  C   UNL d   1      49.341  35.186  53.139  0.00  0.00     0.003 A 
ENDBRANCH   1   2
BRANCH   1  13
ATOM     13  N   UNL d   1      50.784  34.460  52.744  0.00  0.00    -0.157 NA
BRANCH  13  14
ATOM     14  S   UNL d   1      51.493  34.085  52.556  0.00  0.00     0.285 S 
ATOM     15  O   UNL d   1      52.107  33.682  52.172  0.00  0.00    -0.198 OA
ATOM     16  O   UNL d   1      51.035  34.039  51.863  0.00  0.00    -0.198 OA
BRANCH  14  17
ATOM     17  C   UNL d   1      52.090  34.023  53.113  0.00  0.00     0.105 A 
ATOM     18  C   UNL d   1      52.545  34.685  53.297  0.00  0.00     0.013 A 
ATOM     19  C   UNL d   1      53.151  34.625  53.862  0.00  0.00     0.001 A 
ATOM     20  C   UNL d   1      53.294  33.903  54.236  0.00  0.00     0.000 A 
ATOM     21  C   UNL d   1      52.829  33.239  54.045  0.00  0.00     0.001 A 
ATOM     22  C   UNL d   1      53.894  33.840  54.797  0.00  0.00     0.000 C 
ATOM     23  C   UNL d   1      52.233  33.306  53.486  0.00  0.00     0.013 A 
ENDBRANCH  14  17
ENDBRANCH  13  14
ENDBRANCH   1  13
TORSDOF 4
ENDMDL
MODEL 6
REMARK VINA RESULT:      -7.5      1.893      2.640
REMARK  4 active torsions:
REMARK  status: ('A' for Active; 'I' for Inactive)
REMARK    1  A    between atoms: N_7  and  S_1 
REMARK    2  A    between atoms: C_8  and  S_1 
REMARK    3  A    between atoms: C_16  and  N_7 
REMARK    4  A    between atoms: C_15  and  C_16 
ROOT
ATOM      1  C   UNL d   1      52.824  32.081  52.697  0.00  0.00     0.112 C 
ENDROOT
BRANCH   1   2
ATOM      2  C   UNL d   1      52.642  32.819  53.014  0.00  0.00     0.020 A 
ATOM      3  C   UNL d   1      53.230  33.267  53.394  0.00  0.00     0.003 A 
ATOM      4  C   UNL d   1      53.041  34.007  53.710  0.00  0.00     0.018 A 
ATOM      5  C   UNL d   1      53.497  34.568  54.111  0.00  0.00     0.019 A 
ATOM      6  C   UNL d   1      52.273  34.304  53.651  0.00  0.00     0.064 A 
ATOM      7  C   UNL d   1      53.012  35.205  54.296  0.00  0.00     0.064 A 
ATOM      8  C   UNL d   1      53.246  35.887  54.697  0.00  0.00     0.019 C 
ATOM      9  N   UNL d   1      52.258  35.041  54.012  0.00  0.00    -0.304 N 
ATOM     10  C   UNL d   1      51.599  35.538  54.082  0.00  0.00     0.099 C 
ATOM     11  C   UNL d   1      51.688  33.864  53.276  0.00  0.00     0.018 A 
ATOM     12  C   UNL d   1      51.867  33.120  52.955  0.00  0.00     0.003 A 
ENDBRANCH   1   2
BRANCH   1  13
ATOM     13  N   UNL d   1      52.556  31.393  53.065  0.00  0.00    -0.157 NA
BRANCH  13  14
ATOM     14  S   UNL d   1      52.864  30.661  52.849  0.00  0.00     0.285 S 
ATOM     15  O   UNL d   1      53.162  30.011  52.432  0.00  0.00    -0.198 OA
ATOM     16  O   UNL d   1      52.784  31.078  52.135  0.00  0.00    -0.198 OA
BRANCH  14  17
ATOM     17  C   UNL d   1      53.019  30.093  53.418  0.00  0.00     0.105 A 
ATOM     18  C   UNL d   1      52.397  29.646  53.727  0.00  0.00     0.013 A 
ATOM     19  C   UNL d   1      52.552  29.069  54.304  0.00  0.00     0.001 A 
ATOM     20  C   UNL d   1      53.325  28.946  54.566  0.00  0.00     0.000 A 
ATOM     21  C   UNL d   1      53.947  29.401  54.250  0.00  0.00     0.001 A 
ATOM     22  C   UNL d   1      53.482  28.375  55.139  0.00  0.00     0.000 C 
ATOM     23  C   UNL d   1      53.786  29.969  53.680  0.00  0.00     0.013 A 
ENDBRANCH  14  17
ENDBRANCH  13  14
ENDBRANCH   1  13
TORSDOF 4
ENDMDL
