MODEL 1
REMARK VINA RESULT:     121.0      0.000      0.000
REMARK  6 active torsions:
REMARK  status: ('A' for Active; 'I' for Inactive)
REMARK       I    between atoms: C_2  and  N_1 
REMARK    1  A    between atoms: C_4  and  N_1 
REMARK    2  A    between atoms: C_11  and  N_1 
REMARK    3  A    between atoms: C_3  and  C_2 
REMARK    4  A    between atoms: C_5  and  C_4 
REMARK       I    between atoms: N_10  and  C_5 
REMARK    5  A    between atoms: C_21  and  N_10 
REMARK    6  A    between atoms: C_13  and  C_11 
ROOT
ATOM      1  N   UNL d   1      61.039  47.572  50.451  0.00  0.00    -0.281 N 
ATOM      2  C   UNL d   1      61.277  46.950  49.963  0.00  0.00     0.263 C 
ATOM      3  O   UNL d   1      60.775  46.649  49.401  0.00  0.00    -0.267 OA
ENDROOT
BRANCH   1   4
ATOM      4  C   UNL d   1      59.800  48.253  50.470  0.00  0.00     0.181 A 
ATOM      5  C   UNL d   1      59.316  48.766  50.470  0.00  0.00     0.007 A 
ATOM      6  C   UNL d   1      59.573  49.534  50.439  0.00  0.00    -0.002 A 
ATOM      7  C   UNL d   1      60.370  49.702  50.408  0.00  0.00    -0.001 A 
ATOM      8  C   UNL d   1      60.913  49.084  50.410  0.00  0.00    -0.002 A 
ATOM      9  C   UNL d   1      60.657  48.317  50.441  0.00  0.00     0.007 A 
BRANCH   4  10
ATOM     10  C   UNL d   1      58.470  48.760  50.497  0.00  0.00     0.282 C 
ATOM     11  N   UNL d   1      58.119  49.506  50.543  0.00  0.00    -0.210 NA
ATOM     12  O   UNL d   1      58.011  48.080  50.452  0.00  0.00    -0.268 OA
BRANCH  11  13
ATOM     13  C   UNL d   1      57.296  49.572  50.544  0.00  0.00     0.084 A 
ATOM     14  C   UNL d   1      56.825  49.654  51.207  0.00  0.00     0.019 A 
ATOM     15  C   UNL d   1      56.055  49.699  50.962  0.00  0.00     0.002 A 
ATOM     16  C   UNL d   1      56.045  49.645  50.141  0.00  0.00     0.002 A 
ATOM     17  C   UNL d   1      56.810  49.567  49.894  0.00  0.00     0.019 A 
ENDBRANCH  11  13
ENDBRANCH   4  10
ENDBRANCH   1   4
BRANCH   1  18
ATOM     18  C   UNL d   1      61.623  47.845  51.029  0.00  0.00     0.104 C 
BRANCH  18  19
ATOM     19  C   UNL d   1      61.516  47.654  51.877  0.00  0.00     0.117 A 
ATOM     20  O   UNL d   1      61.107  48.060  52.384  0.00  0.00    -0.304 OA
ATOM     21  C   UNL d   1      61.156  47.661  53.163  0.00  0.00     0.123 A 
ATOM     22  C   UNL d   1      61.596  47.011  53.125  0.00  0.00     0.029 A 
ATOM     23  C   UNL d   1      61.855  46.967  52.291  0.00  0.00     0.028 A 
ENDBRANCH  18  19
ENDBRANCH   1  18
BRANCH   2  24
ATOM     24  C   UNL d   1      61.929  46.286  49.651  0.00  0.00     0.076 A 
ATOM     25  C   UNL d   1      61.305  45.657  49.775  0.00  0.00     0.107 A 
ATOM     26  N   UNL d   1      61.473  44.828  49.603  0.00  0.00    -0.206 NA
ATOM     27  C   UNL d   1      62.238  44.613  49.315  0.00  0.00     0.279 A 
ATOM     28  C   UNL d   1      62.865  45.209  49.186  0.00  0.00     0.063 A 
ATOM     29  O   UNL d   1      62.399  43.774  49.144  0.00  0.00    -0.265 OA
ATOM     30  C   UNL d   1      62.702  46.044  49.356  0.00  0.00     0.011 A 
ENDBRANCH   2  24
TORSDOF 6
ENDMDL
MODEL 2
REMARK VINA RESULT:     122.5      1.959      3.867
REMARK  6 active torsions:
REMARK  status: ('A' for Active; 'I' for Inactive)
REMARK       I    between atoms: C_2  and  N_1 
REMARK    1  A    between atoms: C_4  and  N_1 
REMARK    2  A    between atoms: C_11  and  N_1 
REMARK    3  A    between atoms: C_3  and  C_2 
REMARK    4  A    between atoms: C_5  and  C_4 
REMARK       I    between atoms: N_10  and  C_5 
REMARK    5  A    between atoms: C_21  and  N_10 
REMARK    6  A    between atoms: C_13  and  C_11 
ROOT
ATOM      1  N   UNL d   1      61.687  44.729  49.802  0.00  0.00    -0.281 N 
ATOM      2  C   UNL d   1      62.092  44.167  50.251  0.00  0.00     0.263 C 
ATOM      3  O   UNL d   1      62.396  44.357  50.979  0.00  0.00    -0.267 OA
ENDROOT
BRANCH   1   4
ATOM      4  C   UNL d   1      61.414  46.080  50.122  0.00  0.00     0.181 A 
ATOM      5  C   UNL d   1      61.448  46.784  50.145  0.00  0.00     0.007 A 
ATOM      6  C   UNL d   1      62.021  47.154  49.708  0.00  0.00    -0.002 A 
ATOM      7  C   UNL d   1      62.541  46.719  49.255  0.00  0.00    -0.001 A 
ATOM      8  C   UNL d   1      62.479  45.899  49.246  0.00  0.00    -0.002 A 
ATOM      9  C   UNL d   1      61.907  45.529  49.683  0.00  0.00     0.007 A 
BRANCH   4  10
ATOM     10  C   UNL d   1      60.994  47.369  50.555  0.00  0.00     0.282 C 
ATOM     11  N   UNL d   1      61.197  48.150  50.381  0.00  0.00    -0.210 NA
ATOM     12  O   UNL d   1      60.410  47.198  51.109  0.00  0.00    -0.268 OA
BRANCH  11  13
ATOM     13  C   UNL d   1      60.810  48.769  50.767  0.00  0.00     0.084 A 
ATOM     14  C   UNL d   1      60.119  49.129  50.517  0.00  0.00     0.019 A 
ATOM     15  C   UNL d   1      59.931  49.706  51.052  0.00  0.00     0.002 A 
ATOM     16  C   UNL d   1      60.507  49.707  51.640  0.00  0.00     0.002 A 
ATOM     17  C   UNL d   1      61.041  49.129  51.457  0.00  0.00     0.019 A 
ENDBRANCH  11  13
ENDBRANCH   4  10
ENDBRANCH   1   4
BRANCH   1  18
ATOM     18  C   UNL d   1      61.389  44.461  49.035  0.00  0.00     0.104 C 
BRANCH  18  19
ATOM     19  C   UNL d   1      60.569  44.162  48.970  0.00  0.00     0.117 A 
ATOM     20  O   UNL d   1      60.361  43.431  48.858  0.00  0.00    -0.304 OA
ATOM     21  C   UNL d   1      59.486  43.393  48.829  0.00  0.00     0.123 A 
ATOM     22  C   UNL d   1      59.165  44.103  48.925  0.00  0.00     0.029 A 
ATOM     23  C   UNL d   1      59.845  44.644  49.022  0.00  0.00     0.028 A 
ENDBRANCH  18  19
ENDBRANCH   1  18
BRANCH   2  24
ATOM     24  C   UNL d   1      62.456  43.267  50.401  0.00  0.00     0.076 A 
ATOM     25  C   UNL d   1      62.115  43.298  51.226  0.00  0.00     0.107 A 
ATOM     26  N   UNL d   1      62.213  42.633  51.769  0.00  0.00    -0.206 NA
ATOM     27  C   UNL d   1      62.636  41.949  51.512  0.00  0.00     0.279 A 
ATOM     28  C   UNL d   1      62.979  41.894  50.710  0.00  0.00     0.063 A 
ATOM     29  O   UNL d   1      62.729  41.283  52.067  0.00  0.00    -0.265 OA
ATOM     30  C   UNL d   1      62.884  42.559  50.159  0.00  0.00     0.011 A 
ENDBRANCH   2  24
TORSDOF 6
ENDMDL
