MODEL 1
REMARK VINA RESULT:      23.6      0.000      0.000
REMARK  3 active torsions:
REMARK  status: ('A' for Active; 'I' for Inactive)
REMARK    1  A    between atoms: C_8  and  N_1 
REMARK    2  A    between atoms: C_6  and  C_2 
REMARK    3  A    between atoms: C_14  and  C_8 
ROOT
ATOM      1  N   UNL d   1      23.521  12.932  -1.428  0.00  0.00    -0.289 N 
ATOM      2  C   UNL d   1      23.318  12.624  -2.172  0.00  0.00     0.154 A 
ATOM      3  N   UNL d   1      22.497  12.615  -2.227  0.00  0.00    -0.226 NA
ATOM      4  C   UNL d   1      22.822  13.113  -1.027  0.00  0.00     0.083 A 
ATOM      5  C   UNL d   1      22.189  12.917  -1.518  0.00  0.00     0.099 A 
ATOM      6  C   UNL d   1      22.669  13.432  -0.271  0.00  0.00     0.019 A 
ATOM      7  C   UNL d   1      21.409  13.038  -1.261  0.00  0.00     0.021 A 
ATOM      8  C   UNL d   1      21.893  13.551  -0.019  0.00  0.00     0.002 A 
ATOM      9  C   UNL d   1      21.264  13.354  -0.515  0.00  0.00     0.002 A 
ENDROOT
BRANCH   2  10
ATOM     10  C   UNL d   1      23.850  12.373  -2.749  0.00  0.00     0.064 A 
ATOM     11  S   UNL d   1      24.388  11.891  -2.776  0.00  0.00    -0.083 SA
ATOM     12  C   UNL d   1      24.755  11.806  -3.388  0.00  0.00     0.035 A 
ATOM     13  C   UNL d   1      24.594  12.191  -3.971  0.00  0.00     0.008 A 
ATOM     14  C   UNL d   1      24.057  12.672  -3.944  0.00  0.00     0.010 A 
ENDBRANCH   2  10
BRANCH   1  15
ATOM     15  C   UNL d   1      24.332  12.977  -1.289  0.00  0.00     0.082 C 
BRANCH  15  16
ATOM     16  C   UNL d   1      24.615  12.984  -0.516  0.00  0.00     0.018 C 
ATOM     17  C   UNL d   1      24.755  13.702  -0.138  0.00  0.00     0.002 C 
ATOM     18  C   UNL d   1      24.758  12.274  -0.121  0.00  0.00     0.002 C 
ENDBRANCH  15  16
ENDBRANCH   1  15
TORSDOF 3
ENDMDL
MODEL 2
REMARK VINA RESULT:      24.7      8.757      9.415
REMARK  3 active torsions:
REMARK  status: ('A' for Active; 'I' for Inactive)
REMARK    1  A    between atoms: C_8  and  N_1 
REMARK    2  A    between atoms: C_6  and  C_2 
REMARK    3  A    between atoms: C_14  and  C_8 
ROOT
ATOM      1  N   UNL d   1      14.345  12.935  -1.472  0.00  0.00    -0.289 N 
ATOM      2  C   UNL d   1      14.166  13.177  -2.246  0.00  0.00     0.154 A 
ATOM      3  N   UNL d   1      14.381  13.967  -2.322  0.00  0.00    -0.226 NA
ATOM      4  C   UNL d   1      14.671  13.580  -1.073  0.00  0.00     0.083 A 
ATOM      5  C   UNL d   1      14.694  14.218  -1.595  0.00  0.00     0.099 A 
ATOM      6  C   UNL d   1      14.955  13.679  -0.294  0.00  0.00     0.019 A 
ATOM      7  C   UNL d   1      14.997  14.949  -1.346  0.00  0.00     0.021 A 
ATOM      8  C   UNL d   1      15.255  14.407  -0.051  0.00  0.00     0.002 A 
ATOM      9  C   UNL d   1      15.276  15.042  -0.577  0.00  0.00     0.002 A 
ENDROOT
BRANCH   2  10
ATOM     10  C   UNL d   1      13.832  12.703  -2.832  0.00  0.00     0.064 A 
ATOM     11  S   UNL d   1      13.947  12.033  -3.078  0.00  0.00    -0.083 SA
ATOM     12  C   UNL d   1      13.541  11.780  -3.615  0.00  0.00     0.035 A 
ATOM     13  C   UNL d   1      13.026  12.182  -3.909  0.00  0.00     0.008 A 
ATOM     14  C   UNL d   1      12.911  12.850  -3.664  0.00  0.00     0.010 A 
ENDBRANCH   2  10
BRANCH   1  15
ATOM     15  C   UNL d   1      14.160  12.149  -1.311  0.00  0.00     0.082 C 
BRANCH  15  16
ATOM     16  C   UNL d   1      14.049  11.906  -0.533  0.00  0.00     0.018 C 
ATOM     17  C   UNL d   1      14.701  11.785  -0.044  0.00  0.00     0.002 C 
ATOM     18  C   UNL d   1      13.286  11.783  -0.242  0.00  0.00     0.002 C 
ENDBRANCH  15  16
ENDBRANCH   1  15
TORSDOF 3
ENDMDL
MODEL 3
REMARK VINA RESULT:      25.8      8.920      9.958
REMARK  3 active torsions:
REMARK  status: ('A' for Active; 'I' for Inactive)
REMARK    1  A    between atoms: C_8  and  N_1 
REMARK    2  A    between atoms: C_6  and  C_2 
REMARK    3  A    between atoms: C_14  and  C_8 
ROOT
ATOM      1  N   UNL d   1      14.064  12.941  -2.659  0.00  0.00    -0.289 N 
ATOM      2  C   UNL d   1      13.895  12.252  -2.226  0.00  0.00     0.154 A 
ATOM      3  N   UNL d   1      13.401  11.779  -2.683  0.00  0.00    -0.226 NA
ATOM      4  C   UNL d   1      13.671  12.889  -3.383  0.00  0.00     0.083 A 
ATOM      5  C   UNL d   1      13.262  12.173  -3.401  0.00  0.00     0.099 A 
ATOM      6  C   UNL d   1      13.627  13.401  -4.041  0.00  0.00     0.019 A 
ATOM      7  C   UNL d   1      12.812  11.967  -4.066  0.00  0.00     0.021 A 
ATOM      8  C   UNL d   1      13.179  13.192  -4.700  0.00  0.00     0.002 A 
ATOM      9  C   UNL d   1      12.772  12.475  -4.713  0.00  0.00     0.002 A 
ENDROOT
BRANCH   2  10
ATOM     10  C   UNL d   1      14.177  12.078  -1.471  0.00  0.00     0.064 A 
ATOM     11  S   UNL d   1      14.829  11.970  -1.179  0.00  0.00    -0.083 SA
ATOM     12  C   UNL d   1      14.882  11.825  -0.477  0.00  0.00     0.035 A 
ATOM     13  C   UNL d   1      14.298  11.785  -0.064  0.00  0.00     0.008 A 
ATOM     14  C   UNL d   1      13.647  11.893  -0.355  0.00  0.00     0.010 A 
ENDBRANCH   2  10
BRANCH   1  15
ATOM     15  C   UNL d   1      14.557  13.473  -2.269  0.00  0.00     0.082 C 
BRANCH  15  16
ATOM     16  C   UNL d   1      14.376  14.276  -2.273  0.00  0.00     0.018 C 
ATOM     17  C   UNL d   1      14.284  14.679  -1.560  0.00  0.00     0.002 C 
ATOM     18  C   UNL d   1      14.288  14.677  -2.989  0.00  0.00     0.002 C 
ENDBRANCH  15  16
ENDBRANCH   1  15
TORSDOF 3
ENDMDL
MODEL 4
REMARK VINA RESULT:      26.3      8.933      9.700
REMARK  3 active torsions:
REMARK  status: ('A' for Active; 'I' for Inactive)
REMARK    1  A    between atoms: C_8  and  N_1 
REMARK    2  A    between atoms: C_6  and  C_2 
REMARK    3  A    between atoms: C_14  and  C_8 
ROOT
ATOM      1  N   UNL d   1      14.195  12.966  -2.585  0.00  0.00    -0.289 N 
ATOM      2  C   UNL d   1      13.801  12.267  -2.799  0.00  0.00     0.154 A 
ATOM      3  N   UNL d   1      13.774  11.779  -2.137  0.00  0.00    -0.226 NA
ATOM      4  C   UNL d   1      14.409  12.906  -1.790  0.00  0.00     0.083 A 
ATOM      5  C   UNL d   1      14.150  12.174  -1.511  0.00  0.00     0.099 A 
ATOM      6  C   UNL d   1      14.810  13.422  -1.271  0.00  0.00     0.019 A 
ATOM      7  C   UNL d   1      14.288  11.956  -0.723  0.00  0.00     0.021 A 
ATOM      8  C   UNL d   1      14.946  13.202  -0.489  0.00  0.00     0.002 A 
ATOM      9  C   UNL d   1      14.685  12.469  -0.215  0.00  0.00     0.002 A 
ENDROOT
BRANCH   2  10
ATOM     10  C   UNL d   1      13.494  12.098  -3.544  0.00  0.00     0.064 A 
ATOM     11  S   UNL d   1      12.854  11.877  -3.797  0.00  0.00    -0.083 SA
ATOM     12  C   UNL d   1      12.769  11.779  -4.505  0.00  0.00     0.035 A 
ATOM     13  C   UNL d   1      13.309  11.897  -4.961  0.00  0.00     0.008 A 
ATOM     14  C   UNL d   1      13.948  12.117  -4.708  0.00  0.00     0.010 A 
ENDBRANCH   2  10
BRANCH   1  15
ATOM     15  C   UNL d   1      14.267  13.515  -3.196  0.00  0.00     0.082 C 
BRANCH  15  16
ATOM     16  C   UNL d   1      14.146  14.315  -3.043  0.00  0.00     0.018 C 
ATOM     17  C   UNL d   1      13.627  14.748  -3.514  0.00  0.00     0.002 C 
ATOM     18  C   UNL d   1      14.545  14.682  -2.421  0.00  0.00     0.002 C 
ENDBRANCH  15  16
ENDBRANCH   1  15
TORSDOF 3
ENDMDL
