MODEL 1
REMARK VINA RESULT:      -4.7      0.000      0.000
REMARK  5 active torsions:
REMARK  status: ('A' for Active; 'I' for Inactive)
REMARK    1  A    between atoms: C_4  and  S_1 
REMARK    2  A    between atoms: C_12  and  S_1 
REMARK    3  A    between atoms: C_3  and  C_6 
REMARK       I    between atoms: N_8  and  C_3 
REMARK    4  A    between atoms: C_6  and  C_4 
REMARK    5  A    between atoms: C_14  and  N_8 
ROOT
ATOM      1  C   UNL d   1      57.426   0.260  31.353  0.00  0.00     0.280 C 
ATOM      2  N   UNL d   1      57.446  -0.105  32.096  0.00  0.00    -0.208 NA
ATOM      3  O   UNL d   1      56.690   0.491  31.032  0.00  0.00    -0.265 OA
ENDROOT
BRANCH   1   4
ATOM      4  C   UNL d   1      58.110   0.395  30.935  0.00  0.00     0.075 C 
BRANCH   4   5
ATOM      5  C   UNL d   1      58.187   0.115  30.251  0.00  0.00     0.104 C 
BRANCH   5   6
ATOM      6  S   UNL d   1      58.884   0.024  29.796  0.00  0.00     0.211 S 
ATOM      7  O   UNL d   1      58.546  -0.622  29.395  0.00  0.00    -0.217 OA
ATOM      8  O   UNL d   1      59.223   0.681  30.204  0.00  0.00    -0.217 OA
BRANCH   6   9
ATOM      9  C   UNL d   1      59.575  -0.060  29.349  0.00  0.00     0.088 A 
ATOM     10  C   UNL d   1      59.919   0.598  28.990  0.00  0.00     0.011 A 
ATOM     11  C   UNL d   1      60.612   0.515  28.541  0.00  0.00     0.001 A 
ATOM     12  C   UNL d   1      60.955  -0.229  28.458  0.00  0.00     0.000 A 
ATOM     13  C   UNL d   1      60.620  -0.894  28.813  0.00  0.00     0.001 A 
ATOM     14  C   UNL d   1      59.925  -0.808  29.262  0.00  0.00     0.011 A 
ENDBRANCH   6   9
ENDBRANCH   5   6
ENDBRANCH   4   5
ENDBRANCH   1   4
BRANCH   2  15
ATOM     15  C   UNL d   1      56.746  -0.239  32.516  0.00  0.00     0.087 A 
ATOM     16  C   UNL d   1      56.465   0.340  33.027  0.00  0.00     0.045 A 
ATOM     17  C   UNL d   1      55.770   0.207  33.444  0.00  0.00     0.121 A 
ATOM     18  O   UNL d   1      55.358   0.682  33.991  0.00  0.00    -0.299 OA
ATOM     19  C   UNL d   1      55.363  -0.504  33.346  0.00  0.00     0.119 A 
ATOM     20  C   UNL d   1      54.695   0.242  34.219  0.00  0.00     0.304 A 
ATOM     21  O   UNL d   1      54.694  -0.472  33.834  0.00  0.00    -0.300 OA
ATOM     22  C   UNL d   1      55.643  -1.079  32.838  0.00  0.00     0.028 A 
ATOM     23  C   UNL d   1      56.335  -0.945  32.424  0.00  0.00     0.021 A 
ENDBRANCH   2  15
TORSDOF 5
ENDMDL
MODEL 2
REMARK VINA RESULT:      -3.8      1.362      5.499
REMARK  5 active torsions:
REMARK  status: ('A' for Active; 'I' for Inactive)
REMARK    1  A    between atoms: C_4  and  S_1 
REMARK    2  A    between atoms: C_12  and  S_1 
REMARK    3  A    between atoms: C_3  and  C_6 
REMARK       I    between atoms: N_8  and  C_3 
REMARK    4  A    between atoms: C_6  and  C_4 
REMARK    5  A    between atoms: C_14  and  N_8 
ROOT
ATOM      1  C   UNL d   1      57.572  -0.050  30.995  0.00  0.00     0.280 C 
ATOM      2  N   UNL d   1      57.924   0.463  30.446  0.00  0.00    -0.208 NA
ATOM      3  O   UNL d   1      57.806  -0.851  31.012  0.00  0.00    -0.265 OA
ENDROOT
BRANCH   1   4
ATOM      4  C   UNL d   1      57.006   0.218  31.513  0.00  0.00     0.075 C 
BRANCH   4   5
ATOM      5  C   UNL d   1      56.893  -0.139  32.155  0.00  0.00     0.104 C 
BRANCH   5   6
ATOM      6  S   UNL d   1      56.395   0.073  32.793  0.00  0.00     0.211 S 
ATOM      7  O   UNL d   1      56.918   0.682  33.010  0.00  0.00    -0.217 OA
ATOM      8  O   UNL d   1      55.866  -0.547  32.571  0.00  0.00    -0.217 OA
BRANCH   6   9
ATOM      9  C   UNL d   1      55.898   0.276  33.422  0.00  0.00     0.088 A 
ATOM     10  C   UNL d   1      55.097   0.421  33.288  0.00  0.00     0.011 A 
ATOM     11  C   UNL d   1      54.597   0.625  33.918  0.00  0.00     0.001 A 
ATOM     12  C   UNL d   1      54.906   0.682  34.680  0.00  0.00     0.000 A 
ATOM     13  C   UNL d   1      55.706   0.539  34.826  0.00  0.00     0.001 A 
ATOM     14  C   UNL d   1      56.205   0.335  34.192  0.00  0.00     0.011 A 
ENDBRANCH   6   9
ENDBRANCH   5   6
ENDBRANCH   4   5
ENDBRANCH   1   4
BRANCH   2  15
ATOM     15  C   UNL d   1      58.500   0.184  29.922  0.00  0.00     0.087 A 
ATOM     16  C   UNL d   1      59.287   0.389  30.041  0.00  0.00     0.045 A 
ATOM     17  C   UNL d   1      59.859   0.113  29.521  0.00  0.00     0.121 A 
ATOM     18  O   UNL d   1      60.684   0.226  29.500  0.00  0.00    -0.299 OA
ATOM     19  C   UNL d   1      59.638  -0.367  28.886  0.00  0.00     0.119 A 
ATOM     20  C   UNL d   1      60.954  -0.195  28.841  0.00  0.00     0.304 A 
ATOM     21  O   UNL d   1      60.329  -0.552  28.469  0.00  0.00    -0.300 OA
ATOM     22  C   UNL d   1      58.856  -0.570  28.769  0.00  0.00     0.028 A 
ATOM     23  C   UNL d   1      58.287  -0.294  29.288  0.00  0.00     0.021 A 
ENDBRANCH   2  15
TORSDOF 5
ENDMDL
