MODEL 1
REMARK VINA RESULT:      -6.9      0.000      0.000
REMARK  3 active torsions:
REMARK  status: ('A' for Active; 'I' for Inactive)
REMARK    1  A    between atoms: N_2  and  S_1 
REMARK    2  A    between atoms: C_3  and  S_1 
REMARK    3  A    between atoms: C_5  and  N_4 
ROOT
ATOM      1  N   UNL d   1     -47.822  13.186  22.969  0.00  0.00    -0.226 N 
ATOM      2  N   UNL d   1     -46.533  12.184  23.128  0.00  0.00    -0.301 N 
ATOM      3  C   UNL d   1     -47.776  12.500  22.518  0.00  0.00     0.111 A 
ATOM      4  C   UNL d   1     -47.221  13.369  23.500  0.00  0.00     0.111 A 
ATOM      5  C   UNL d   1     -47.127  11.996  22.598  0.00  0.00     0.100 A 
ATOM      6  C   UNL d   1     -46.573  12.865  23.580  0.00  0.00     0.100 A 
ENDROOT
BRANCH   1   7
ATOM      7  S   UNL d   1     -48.471  13.690  22.889  0.00  0.00     0.271 S 
ATOM      8  O   UNL d   1     -48.144  14.001  22.199  0.00  0.00    -0.200 OA
ATOM      9  O   UNL d   1     -48.798  13.378  23.580  0.00  0.00    -0.200 OA
BRANCH   7  10
ATOM     10  C   UNL d   1     -49.119  14.194  22.810  0.00  0.00     0.104 A 
ATOM     11  C   UNL d   1     -49.765  13.966  22.353  0.00  0.00     0.015 A 
ATOM     12  C   UNL d   1     -50.414  14.470  22.273  0.00  0.00     0.028 A 
ATOM     13  C   UNL d   1     -51.061  14.239  21.814  0.00  0.00     0.002 C 
ATOM     14  C   UNL d   1     -50.416  15.201  22.650  0.00  0.00     0.140 A 
ATOM     15  C   UNL d   1     -49.771  15.429  23.107  0.00  0.00     0.030 A 
ATOM     16  F   UNL d   1     -51.064  15.705  22.571  0.00  0.00    -0.204 F 
ATOM     17  C   UNL d   1     -49.122  14.925  23.187  0.00  0.00     0.015 A 
ENDBRANCH   7  10
ENDBRANCH   1   7
BRANCH   2  18
ATOM     18  C   UNL d   1     -45.884  11.680  23.208  0.00  0.00     0.064 A 
ATOM     19  C   UNL d   1     -45.159  11.886  22.878  0.00  0.00     0.016 A 
ATOM     20  C   UNL d   1     -44.510  11.382  22.958  0.00  0.00     0.001 A 
ATOM     21  C   UNL d   1     -45.079  12.599  22.466  0.00  0.00     0.002 C 
ATOM     22  C   UNL d   1     -44.587  10.672  23.367  0.00  0.00     0.000 A 
ATOM     23  C   UNL d   1     -45.312  10.466  23.697  0.00  0.00     0.002 A 
ATOM     24  C   UNL d   1     -43.939  10.169  23.447  0.00  0.00     0.000 C 
ATOM     25  C   UNL d   1     -45.961  10.970  23.617  0.00  0.00     0.018 A 
ENDBRANCH   2  18
TORSDOF 3
ENDMDL
MODEL 2
REMARK VINA RESULT:      -6.8      2.190      5.340
REMARK  3 active torsions:
REMARK  status: ('A' for Active; 'I' for Inactive)
REMARK    1  A    between atoms: N_2  and  S_1 
REMARK    2  A    between atoms: C_3  and  S_1 
REMARK    3  A    between atoms: C_5  and  N_4 
ROOT
ATOM      1  N   UNL d   1     -47.017  12.459  23.067  0.00  0.00    -0.226 N 
ATOM      2  N   UNL d   1     -48.357  13.395  22.921  0.00  0.00    -0.301 N 
ATOM      3  C   UNL d   1     -47.746  12.178  23.325  0.00  0.00     0.111 A 
ATOM      4  C   UNL d   1     -46.961  13.210  22.736  0.00  0.00     0.111 A 
ATOM      5  C   UNL d   1     -48.420  12.649  23.252  0.00  0.00     0.100 A 
ATOM      6  C   UNL d   1     -47.635  13.681  22.662  0.00  0.00     0.100 A 
ENDROOT
BRANCH   1   7
ATOM      7  S   UNL d   1     -46.344  11.988  23.140  0.00  0.00     0.271 S 
ATOM      8  O   UNL d   1     -46.037  12.514  23.696  0.00  0.00    -0.200 OA
ATOM      9  O   UNL d   1     -46.651  11.462  22.584  0.00  0.00    -0.200 OA
BRANCH   7  10
ATOM     10  C   UNL d   1     -45.670  11.518  23.213  0.00  0.00     0.104 A 
ATOM     11  C   UNL d   1     -44.960  11.758  22.875  0.00  0.00     0.015 A 
ATOM     12  C   UNL d   1     -44.286  11.287  22.948  0.00  0.00     0.028 A 
ATOM     13  C   UNL d   1     -43.574  11.532  22.607  0.00  0.00     0.002 C 
ATOM     14  C   UNL d   1     -44.323  10.576  23.360  0.00  0.00     0.140 A 
ATOM     15  C   UNL d   1     -45.033  10.335  23.698  0.00  0.00     0.030 A 
ATOM     16  F   UNL d   1     -43.650  10.105  23.433  0.00  0.00    -0.204 F 
ATOM     17  C   UNL d   1     -45.707  10.806  23.625  0.00  0.00     0.015 A 
ENDBRANCH   7  10
ENDBRANCH   1   7
BRANCH   2  18
ATOM     18  C   UNL d   1     -49.031  13.866  22.848  0.00  0.00     0.064 A 
ATOM     19  C   UNL d   1     -49.583  13.708  22.259  0.00  0.00     0.016 A 
ATOM     20  C   UNL d   1     -50.257  14.179  22.186  0.00  0.00     0.001 A 
ATOM     21  C   UNL d   1     -49.463  13.076  21.739  0.00  0.00     0.002 C 
ATOM     22  C   UNL d   1     -50.379  14.808  22.702  0.00  0.00     0.000 A 
ATOM     23  C   UNL d   1     -49.826  14.967  23.291  0.00  0.00     0.002 A 
ATOM     24  C   UNL d   1     -51.051  15.278  22.628  0.00  0.00     0.000 C 
ATOM     25  C   UNL d   1     -49.153  14.496  23.364  0.00  0.00     0.018 A 
ENDBRANCH   2  18
TORSDOF 3
ENDMDL
MODEL 3
REMARK VINA RESULT:      -5.7      9.140     10.541
REMARK  3 active torsions:
REMARK  status: ('A' for Active; 'I' for Inactive)
REMARK    1  A    between atoms: N_2  and  S_1 
REMARK    2  A    between atoms: C_3  and  S_1 
REMARK    3  A    between atoms: C_5  and  N_4 
ROOT
ATOM      1  N   UNL d   1     -38.649  14.532  19.336  0.00  0.00    -0.226 N 
ATOM      2  N   UNL d   1     -38.420  14.247  17.736  0.00  0.00    -0.301 N 
ATOM      3  C   UNL d   1     -38.055  14.928  18.928  0.00  0.00     0.111 A 
ATOM      4  C   UNL d   1     -39.128  13.992  18.941  0.00  0.00     0.111 A 
ATOM      5  C   UNL d   1     -37.940  14.785  18.123  0.00  0.00     0.100 A 
ATOM      6  C   UNL d   1     -39.013  13.849  18.136  0.00  0.00     0.100 A 
ENDROOT
BRANCH   1   7
ATOM      7  S   UNL d   1     -38.764  14.675  20.140  0.00  0.00     0.271 S 
ATOM      8  O   UNL d   1     -37.969  14.512  20.283  0.00  0.00    -0.200 OA
ATOM      9  O   UNL d   1     -39.560  14.839  19.997  0.00  0.00    -0.200 OA
BRANCH   7  10
ATOM     10  C   UNL d   1     -38.880  14.819  20.944  0.00  0.00     0.104 A 
ATOM     11  C   UNL d   1     -38.786  14.210  21.490  0.00  0.00     0.015 A 
ATOM     12  C   UNL d   1     -38.901  14.354  22.294  0.00  0.00     0.028 A 
ATOM     13  C   UNL d   1     -38.806  13.740  22.840  0.00  0.00     0.002 C 
ATOM     14  C   UNL d   1     -39.110  15.106  22.552  0.00  0.00     0.140 A 
ATOM     15  C   UNL d   1     -39.204  15.715  22.008  0.00  0.00     0.030 A 
ATOM     16  F   UNL d   1     -39.226  15.249  23.357  0.00  0.00    -0.204 F 
ATOM     17  C   UNL d   1     -39.089  15.572  21.203  0.00  0.00     0.015 A 
ENDBRANCH   7  10
ENDBRANCH   1   7
BRANCH   2  18
ATOM     18  C   UNL d   1     -38.304  14.103  16.932  0.00  0.00     0.064 A 
ATOM     19  C   UNL d   1     -38.067  13.358  16.675  0.00  0.00     0.016 A 
ATOM     20  C   UNL d   1     -37.952  13.214  15.871  0.00  0.00     0.001 A 
ATOM     21  C   UNL d   1     -37.945  12.751  17.225  0.00  0.00     0.002 C 
ATOM     22  C   UNL d   1     -38.074  13.816  15.322  0.00  0.00     0.000 A 
ATOM     23  C   UNL d   1     -38.310  14.561  15.579  0.00  0.00     0.002 A 
ATOM     24  C   UNL d   1     -37.958  13.673  14.519  0.00  0.00     0.000 C 
ATOM     25  C   UNL d   1     -38.426  14.705  16.383  0.00  0.00     0.018 A 
ENDBRANCH   2  18
TORSDOF 3
ENDMDL
MODEL 4
REMARK VINA RESULT:      -5.4      8.682      9.261
REMARK  3 active torsions:
REMARK  status: ('A' for Active; 'I' for Inactive)
REMARK    1  A    between atoms: N_2  and  S_1 
REMARK    2  A    between atoms: C_3  and  S_1 
REMARK    3  A    between atoms: C_5  and  N_4 
ROOT
ATOM      1  N   UNL d   1     -39.677  14.933  19.193  0.00  0.00    -0.226 N 
ATOM      2  N   UNL d   1     -39.129  14.540  20.689  0.00  0.00    -0.301 N 
ATOM      3  C   UNL d   1     -40.108  14.417  19.667  0.00  0.00     0.111 A 
ATOM      4  C   UNL d   1     -38.971  15.251  19.470  0.00  0.00     0.111 A 
ATOM      5  C   UNL d   1     -39.833  14.220  20.419  0.00  0.00     0.100 A 
ATOM      6  C   UNL d   1     -38.695  15.053  20.222  0.00  0.00     0.100 A 
ENDROOT
BRANCH   1   7
ATOM      7  S   UNL d   1     -39.952  15.131  18.441  0.00  0.00     0.271 S 
ATOM      8  O   UNL d   1     -40.222  15.855  18.730  0.00  0.00    -0.200 OA
ATOM      9  O   UNL d   1     -39.682  14.407  18.152  0.00  0.00    -0.200 OA
BRANCH   7  10
ATOM     10  C   UNL d   1     -40.227  15.329  17.689  0.00  0.00     0.104 A 
ATOM     11  C   UNL d   1     -41.022  15.508  17.574  0.00  0.00     0.015 A 
ATOM     12  C   UNL d   1     -41.298  15.706  16.822  0.00  0.00     0.028 A 
ATOM     13  C   UNL d   1     -42.097  15.886  16.710  0.00  0.00     0.002 C 
ATOM     14  C   UNL d   1     -40.778  15.724  16.184  0.00  0.00     0.140 A 
ATOM     15  C   UNL d   1     -39.983  15.545  16.298  0.00  0.00     0.030 A 
ATOM     16  F   UNL d   1     -41.053  15.922  15.432  0.00  0.00    -0.204 F 
ATOM     17  C   UNL d   1     -39.708  15.347  17.050  0.00  0.00     0.015 A 
ENDBRANCH   7  10
ENDBRANCH   1   7
BRANCH   2  18
ATOM     18  C   UNL d   1     -38.854  14.342  21.441  0.00  0.00     0.064 A 
ATOM     19  C   UNL d   1     -38.940  14.872  22.065  0.00  0.00     0.016 A 
ATOM     20  C   UNL d   1     -38.665  14.674  22.817  0.00  0.00     0.001 A 
ATOM     21  C   UNL d   1     -39.303  15.605  21.938  0.00  0.00     0.002 C 
ATOM     22  C   UNL d   1     -38.303  13.946  22.947  0.00  0.00     0.000 A 
ATOM     23  C   UNL d   1     -38.217  13.416  22.323  0.00  0.00     0.002 A 
ATOM     24  C   UNL d   1     -38.028  13.749  23.698  0.00  0.00     0.000 C 
ATOM     25  C   UNL d   1     -38.493  13.614  21.571  0.00  0.00     0.018 A 
ENDBRANCH   2  18
TORSDOF 3
ENDMDL
