MODEL 1
REMARK VINA RESULT:      14.5      0.000      0.000
REMARK  4 active torsions:
REMARK  status: ('A' for Active; 'I' for Inactive)
REMARK    1  A    between atoms: N_3  and  C_1 
REMARK    2  A    between atoms: C_4  and  C_2 
REMARK       I    between atoms: C_6  and  N_3 
REMARK    3  A    between atoms: C_11  and  C_6 
REMARK    4  A    between atoms: C_13  and  C_11 
ROOT
ATOM      1  N   UNL d   1      23.103  12.630  -1.476  0.00  0.00    -0.201 NA
ATOM      2  C   UNL d   1      23.284  12.597  -2.273  0.00  0.00     0.280 C 
ATOM      3  O   UNL d   1      22.680  12.701  -2.835  0.00  0.00    -0.265 OA
ENDROOT
BRANCH   2   4
ATOM      4  C   UNL d   1      24.050  12.464  -2.530  0.00  0.00     0.062 C 
BRANCH   4   5
ATOM      5  C   UNL d   1      24.229  12.457  -3.333  0.00  0.00     0.005 A 
ATOM      6  C   UNL d   1      24.058  13.119  -3.803  0.00  0.00     0.003 A 
ATOM      7  C   UNL d   1      24.241  13.105  -4.609  0.00  0.00     0.030 A 
ATOM      8  C   UNL d   1      24.592  12.441  -4.948  0.00  0.00     0.140 A 
ATOM      9  C   UNL d   1      24.759  11.791  -4.481  0.00  0.00     0.030 A 
ATOM     10  F   UNL d   1      24.767  12.441  -5.747  0.00  0.00    -0.204 F 
ATOM     11  C   UNL d   1      24.583  11.787  -3.675  0.00  0.00     0.003 A 
ENDBRANCH   4   5
ENDBRANCH   2   4
BRANCH   1  12
ATOM     12  C   UNL d   1      23.704  12.527  -0.922  0.00  0.00     0.119 A 
ATOM     13  C   UNL d   1      24.079  13.129  -0.510  0.00  0.00     0.084 A 
ATOM     14  C   UNL d   1      24.644  12.784  -0.016  0.00  0.00     0.014 A 
ATOM     15  C   UNL d   1      24.613  11.960  -0.128  0.00  0.00     0.037 A 
ATOM     16  S   UNL d   1      24.030  11.815  -0.690  0.00  0.00    -0.067 SA
BRANCH  13  17
ATOM     17  C   UNL d   1      23.925  13.938  -0.572  0.00  0.00     0.299 C 
ATOM     18  O   UNL d   1      23.161  14.225  -0.479  0.00  0.00    -0.264 OA
ATOM     19  N   UNL d   1      24.549  14.461  -0.729  0.00  0.00    -0.102 N 
ENDBRANCH  13  17
ENDBRANCH   1  12
TORSDOF 4
ENDMDL
