MODEL 1
REMARK VINA RESULT:      -4.2      0.000      0.000
REMARK  4 active torsions:
REMARK  status: ('A' for Active; 'I' for Inactive)
REMARK    1  A    between atoms: N_2  and  S_1 
REMARK    2  A    between atoms: C_5  and  S_1 
REMARK    3  A    between atoms: C_4  and  C_3 
REMARK    4  A    between atoms: C_12  and  C_3 
ROOT
ATOM      1  N   UNL d   1     -41.650-121.855 -51.812  0.00  0.00    -0.230 N 
ATOM      2  C   UNL d   1     -41.960-122.632 -50.390  0.00  0.00     0.137 A 
ATOM      3  C   UNL d   1     -41.950-121.815 -50.425  0.00  0.00     0.011 A 
ATOM      4  C   UNL d   1     -41.813-123.065 -51.078  0.00  0.00     0.011 A 
ATOM      5  C   UNL d   1     -41.658-122.676 -51.789  0.00  0.00     0.088 A 
ATOM      6  C   UNL d   1     -41.795-121.426 -51.135  0.00  0.00     0.088 A 
ENDROOT
BRANCH   1   7
ATOM      7  S   UNL d   1     -41.495-121.466 -52.523  0.00  0.00     0.271 S 
ATOM      8  O   UNL d   1     -41.123-120.732 -52.518  0.00  0.00    -0.200 OA
ATOM      9  O   UNL d   1     -41.209-120.970 -51.933  0.00  0.00    -0.200 OA
BRANCH   7  10
ATOM     10  C   UNL d   1     -41.712-121.812 -53.238  0.00  0.00     0.104 A 
ATOM     11  C   UNL d   1     -42.358-121.529 -53.650  0.00  0.00     0.013 A 
ATOM     12  C   UNL d   1     -42.582-121.871 -54.369  0.00  0.00     0.001 A 
ATOM     13  C   UNL d   1     -42.139-122.512 -54.669  0.00  0.00     0.000 A 
ATOM     14  C   UNL d   1     -41.488-122.793 -54.247  0.00  0.00     0.001 A 
ATOM     15  C   UNL d   1     -42.363-122.855 -55.388  0.00  0.00     0.000 C 
ATOM     16  C   UNL d   1     -41.278-122.444 -53.536  0.00  0.00     0.013 A 
ENDBRANCH   7  10
ENDBRANCH   1   7
BRANCH   2  17
ATOM     17  C   UNL d   1     -41.908-123.425 -50.643  0.00  0.00     0.196 C 
ATOM     18  O   UNL d   1     -42.569-123.817 -50.924  0.00  0.00    -0.647 OA
ATOM     19  O   UNL d   1     -41.180-123.815 -50.608  0.00  0.00    -0.647 OA
ENDBRANCH   2  17
BRANCH   2  20
ATOM     20  C   UNL d   1     -42.130-122.829 -49.607  0.00  0.00    -0.005 A 
ATOM     21  C   UNL d   1     -42.887-123.090 -49.417  0.00  0.00    -0.003 A 
ATOM     22  C   UNL d   1     -43.065-123.289 -48.633  0.00  0.00    -0.000 A 
ATOM     23  C   UNL d   1     -42.487-123.228 -48.044  0.00  0.00    -0.000 A 
ATOM     24  C   UNL d   1     -41.726-122.964 -48.246  0.00  0.00    -0.000 A 
ATOM     25  C   UNL d   1     -41.556-122.768 -49.022  0.00  0.00    -0.003 A 
ENDBRANCH   2  20
TORSDOF 4
ENDMDL
