MODEL 1
REMARK VINA RESULT:      -6.6      0.000      0.000
REMARK  3 active torsions:
REMARK  status: ('A' for Active; 'I' for Inactive)
REMARK    1  A    between atoms: N_2  and  C_1 
REMARK       I    between atoms: C_4  and  N_2 
REMARK    2  A    between atoms: C_8  and  C_4 
REMARK    3  A    between atoms: C_10  and  C_5 
ROOT
ATOM      1  C   UNL d   1     -41.553-122.622 -51.682  0.00  0.00     0.197 A 
ATOM      2  N   UNL d   1     -41.832-122.934 -52.379  0.00  0.00    -0.221 NA
ATOM      3  C   UNL d   1     -41.557-122.393 -52.987  0.00  0.00     0.090 A 
ATOM      4  S   UNL d   1     -41.123-121.924 -51.811  0.00  0.00    -0.046 SA
ATOM      5  C   UNL d   1     -41.123-121.781 -52.609  0.00  0.00     0.058 A 
ENDROOT
BRANCH   1   6
ATOM      6  N   UNL d   1     -41.685-122.967 -50.919  0.00  0.00    -0.183 NA
ATOM      7  C   UNL d   1     -42.264-122.614 -50.416  0.00  0.00     0.281 C 
ATOM      8  O   UNL d   1     -42.691-121.948 -50.665  0.00  0.00    -0.265 OA
BRANCH   7   9
ATOM      9  C   UNL d   1     -42.419-122.923 -49.667  0.00  0.00     0.058 A 
ATOM     10  C   UNL d   1     -41.957-122.673 -49.042  0.00  0.00     0.005 A 
ATOM     11  C   UNL d   1     -42.107-122.982 -48.277  0.00  0.00     0.000 A 
ATOM     12  C   UNL d   1     -42.707-123.527 -48.143  0.00  0.00     0.000 A 
ATOM     13  C   UNL d   1     -43.177-123.777 -48.795  0.00  0.00     0.000 A 
ATOM     14  C   UNL d   1     -42.859-123.817 -47.460  0.00  0.00     0.000 C 
ATOM     15  C   UNL d   1     -43.027-123.470 -49.556  0.00  0.00     0.005 A 
ENDBRANCH   7   9
ENDBRANCH   1   6
BRANCH   3  16
ATOM     16  C   UNL d   1     -41.683-122.446 -53.794  0.00  0.00     0.018 A 
ATOM     17  C   UNL d   1     -42.157-121.894 -54.159  0.00  0.00     0.002 A 
ATOM     18  C   UNL d   1     -42.295-121.935 -54.982  0.00  0.00     0.000 A 
ATOM     19  C   UNL d   1     -41.955-122.531 -55.432  0.00  0.00     0.000 A 
ATOM     20  C   UNL d   1     -41.469-123.100 -55.066  0.00  0.00     0.000 A 
ATOM     21  C   UNL d   1     -41.339-123.046 -54.242  0.00  0.00     0.002 A 
ENDBRANCH   3  16
TORSDOF 3
ENDMDL
