MODEL 1
REMARK VINA RESULT:      -9.2      0.000      0.000
REMARK  5 active torsions:
REMARK  status: ('A' for Active; 'I' for Inactive)
REMARK    1  A    between atoms: O_4  and  C_1 
REMARK    2  A    between atoms: C_10  and  C_2 
REMARK    3  A    between atoms: C_5  and  O_4 
REMARK    4  A    between atoms: C_7  and  C_5 
REMARK    5  A    between atoms: N_12  and  C_10 
ROOT
ATOM      1  C   UNL d   1      53.221  32.983  53.917  0.00  0.00     0.122 A 
ATOM      2  C   UNL d   1      52.790  33.469  53.405  0.00  0.00     0.043 A 
ATOM      3  C   UNL d   1      53.697  33.323  54.502  0.00  0.00     0.105 A 
ATOM      4  C   UNL d   1      53.742  34.143  54.574  0.00  0.00     0.030 A 
ATOM      5  C   UNL d   1      53.310  34.618  54.062  0.00  0.00     0.059 A 
ATOM      6  C   UNL d   1      52.834  34.290  53.478  0.00  0.00     0.015 A 
ATOM      7  N   UNL d   1      54.125  32.837  55.008  0.00  0.00    -0.242 NA
ATOM      8 CL   UNL d   1      53.372  35.448  54.155  0.00  0.00    -0.082 Cl
ATOM      9  C   UNL d   1      54.214  34.473  55.153  0.00  0.00     0.004 A 
ATOM     10  C   UNL d   1      54.601  33.177  55.593  0.00  0.00     0.099 A 
ATOM     11  C   UNL d   1      54.646  33.998  55.665  0.00  0.00     0.021 A 
ENDROOT
BRANCH   1  12
ATOM     12  O   UNL d   1      53.188  32.238  53.860  0.00  0.00    -0.271 OA
BRANCH  12  13
ATOM     13  C   UNL d   1      53.616  31.501  53.405  0.00  0.00     0.306 C 
ATOM     14  O   UNL d   1      54.407  31.768  52.842  0.00  0.00    -0.258 OA
BRANCH  13  15
ATOM     15  C   UNL d   1      53.339  30.727  53.485  0.00  0.00     0.093 A 
ATOM     16  S   UNL d   1      52.840  30.344  52.963  0.00  0.00    -0.081 SA
ATOM     17  C   UNL d   1      52.709  29.562  53.274  0.00  0.00     0.036 A 
ATOM     18  C   UNL d   1      53.133  29.498  53.973  0.00  0.00     0.008 A 
ATOM     19  C   UNL d   1      53.526  30.236  54.097  0.00  0.00     0.012 A 
ENDBRANCH  13  15
ENDBRANCH  12  13
ENDBRANCH   1  12
BRANCH   2  20
ATOM     20  C   UNL d   1      52.223  33.284  52.715  0.00  0.00     0.082 C 
BRANCH  20  21
ATOM     21  N   UNL d   1      51.465  33.605  52.717  0.00  0.00    -0.299 N 
ATOM     22  C   UNL d   1      50.922  33.382  53.282  0.00  0.00     0.107 A 
ATOM     23  C   UNL d   1      50.166  33.700  53.286  0.00  0.00     0.142 A 
ATOM     24  O   UNL d   1      49.956  34.255  52.706  0.00  0.00    -0.300 OA
ATOM     25  C   UNL d   1      50.495  34.484  52.136  0.00  0.00     0.142 A 
ATOM     26  C   UNL d   1      51.255  34.152  52.147  0.00  0.00     0.107 A 
ENDBRANCH  20  21
ENDBRANCH   2  20
TORSDOF 5
ENDMDL
MODEL 2
REMARK VINA RESULT:      -9.2      1.093      3.074
REMARK  5 active torsions:
REMARK  status: ('A' for Active; 'I' for Inactive)
REMARK    1  A    between atoms: O_4  and  C_1 
REMARK    2  A    between atoms: C_10  and  C_2 
REMARK    3  A    between atoms: C_5  and  O_4 
REMARK    4  A    between atoms: C_7  and  C_5 
REMARK    5  A    between atoms: N_12  and  C_10 
ROOT
ATOM      1  C   UNL d   1      52.686  32.739  53.445  0.00  0.00     0.122 A 
ATOM      2  C   UNL d   1      53.385  33.173  53.543  0.00  0.00     0.043 A 
ATOM      3  C   UNL d   1      51.981  33.132  53.267  0.00  0.00     0.105 A 
ATOM      4  C   UNL d   1      51.973  33.953  53.187  0.00  0.00     0.030 A 
ATOM      5  C   UNL d   1      52.670  34.375  53.285  0.00  0.00     0.059 A 
ATOM      6  C   UNL d   1      53.376  33.994  53.462  0.00  0.00     0.015 A 
ATOM      7  N   UNL d   1      51.289  32.699  53.171  0.00  0.00    -0.242 NA
ATOM      8 CL   UNL d   1      52.637  35.208  53.199  0.00  0.00    -0.082 Cl
ATOM      9  C   UNL d   1      51.273  34.335  53.011  0.00  0.00     0.004 A 
ATOM     10  C   UNL d   1      50.584  33.092  52.993  0.00  0.00     0.099 A 
ATOM     11  C   UNL d   1      50.576  33.913  52.913  0.00  0.00     0.021 A 
ENDROOT
BRANCH   1  12
ATOM     12  O   UNL d   1      52.683  31.995  53.516  0.00  0.00    -0.271 OA
BRANCH  12  13
ATOM     13  C   UNL d   1      52.862  31.192  53.009  0.00  0.00     0.306 C 
ATOM     14  O   UNL d   1      52.988  31.350  52.022  0.00  0.00    -0.258 OA
BRANCH  13  15
ATOM     15  C   UNL d   1      52.904  30.453  53.373  0.00  0.00     0.093 A 
ATOM     16  S   UNL d   1      52.301  29.902  53.401  0.00  0.00    -0.081 SA
ATOM     17  C   UNL d   1      52.598  29.230  53.832  0.00  0.00     0.036 A 
ATOM     18  C   UNL d   1      53.372  29.397  54.051  0.00  0.00     0.008 A 
ATOM     19  C   UNL d   1      53.554  30.168  53.757  0.00  0.00     0.012 A 
ENDBRANCH  13  15
ENDBRANCH  12  13
ENDBRANCH   1  12
BRANCH   2  20
ATOM     20  C   UNL d   1      54.240  32.924  53.737  0.00  0.00     0.082 C 
BRANCH  20  21
ATOM     21  N   UNL d   1      54.613  33.239  54.399  0.00  0.00    -0.299 N 
ATOM     22  C   UNL d   1      54.331  33.080  55.147  0.00  0.00     0.107 A 
ATOM     23  C   UNL d   1      54.701  33.393  55.810  0.00  0.00     0.142 A 
ATOM     24  O   UNL d   1      55.369  33.876  55.711  0.00  0.00    -0.300 OA
ATOM     25  C   UNL d   1      55.657  34.040  54.964  0.00  0.00     0.142 A 
ATOM     26  C   UNL d   1      55.271  33.715  54.306  0.00  0.00     0.107 A 
ENDBRANCH  20  21
ENDBRANCH   2  20
TORSDOF 5
ENDMDL
MODEL 3
REMARK VINA RESULT:      -8.5      1.687      3.422
REMARK  5 active torsions:
REMARK  status: ('A' for Active; 'I' for Inactive)
REMARK    1  A    between atoms: O_4  and  C_1 
REMARK    2  A    between atoms: C_10  and  C_2 
REMARK    3  A    between atoms: C_5  and  O_4 
REMARK    4  A    between atoms: C_7  and  C_5 
REMARK    5  A    between atoms: N_12  and  C_10 
ROOT
ATOM      1  C   UNL d   1      52.725  33.365  53.571  0.00  0.00     0.122 A 
ATOM      2  C   UNL d   1      53.064  32.655  53.315  0.00  0.00     0.043 A 
ATOM      3  C   UNL d   1      53.109  33.820  54.145  0.00  0.00     0.105 A 
ATOM      4  C   UNL d   1      53.829  33.567  54.460  0.00  0.00     0.030 A 
ATOM      5  C   UNL d   1      54.158  32.861  54.200  0.00  0.00     0.059 A 
ATOM      6  C   UNL d   1      53.783  32.402  53.630  0.00  0.00     0.015 A 
ATOM      7  N   UNL d   1      52.770  34.525  54.397  0.00  0.00    -0.242 NA
ATOM      8 CL   UNL d   1      54.888  32.626  54.535  0.00  0.00    -0.082 Cl
ATOM      9  C   UNL d   1      54.203  34.020  55.026  0.00  0.00     0.004 A 
ATOM     10  C   UNL d   1      53.155  34.979  54.971  0.00  0.00     0.099 A 
ATOM     11  C   UNL d   1      53.874  34.726  55.286  0.00  0.00     0.021 A 
ENDROOT
BRANCH   1  12
ATOM     12  O   UNL d   1      52.073  33.604  53.292  0.00  0.00    -0.271 OA
BRANCH  12  13
ATOM     13  C   UNL d   1      51.718  34.144  52.574  0.00  0.00     0.306 C 
ATOM     14  O   UNL d   1      52.421  34.554  51.981  0.00  0.00    -0.258 OA
BRANCH  13  15
ATOM     15  C   UNL d   1      50.905  34.247  52.475  0.00  0.00     0.093 A 
ATOM     16  S   UNL d   1      50.498  34.168  51.770  0.00  0.00    -0.081 SA
ATOM     17  C   UNL d   1      49.678  34.325  51.938  0.00  0.00     0.036 A 
ATOM     18  C   UNL d   1      49.616  34.495  52.739  0.00  0.00     0.008 A 
ATOM     19  C   UNL d   1      50.393  34.443  53.067  0.00  0.00     0.012 A 
ENDBRANCH  13  15
ENDBRANCH  12  13
ENDBRANCH   1  12
BRANCH   2  20
ATOM     20  C   UNL d   1      52.796  32.032  52.705  0.00  0.00     0.082 C 
BRANCH  20  21
ATOM     21  N   UNL d   1      52.662  31.258  52.950  0.00  0.00    -0.299 N 
ATOM     22  C   UNL d   1      51.978  31.063  53.349  0.00  0.00     0.107 A 
ATOM     23  C   UNL d   1      51.841  30.292  53.595  0.00  0.00     0.142 A 
ATOM     24  O   UNL d   1      52.409  29.708  53.433  0.00  0.00    -0.300 OA
ATOM     25  C   UNL d   1      53.096  29.896  53.033  0.00  0.00     0.142 A 
ATOM     26  C   UNL d   1      53.218  30.680  52.793  0.00  0.00     0.107 A 
ENDBRANCH  20  21
ENDBRANCH   2  20
TORSDOF 5
ENDMDL
MODEL 4
REMARK VINA RESULT:      -6.9      1.791      4.073
REMARK  5 active torsions:
REMARK  status: ('A' for Active; 'I' for Inactive)
REMARK    1  A    between atoms: O_4  and  C_1 
REMARK    2  A    between atoms: C_10  and  C_2 
REMARK    3  A    between atoms: C_5  and  O_4 
REMARK    4  A    between atoms: C_7  and  C_5 
REMARK    5  A    between atoms: N_12  and  C_10 
ROOT
ATOM      1  C   UNL d   1      52.796  32.276  53.347  0.00  0.00     0.122 A 
ATOM      2  C   UNL d   1      53.578  32.513  53.479  0.00  0.00     0.043 A 
ATOM      3  C   UNL d   1      52.616  31.472  53.286  0.00  0.00     0.105 A 
ATOM      4  C   UNL d   1      53.213  30.907  53.356  0.00  0.00     0.030 A 
ATOM      5  C   UNL d   1      53.987  31.151  53.486  0.00  0.00     0.059 A 
ATOM      6  C   UNL d   1      54.175  31.949  53.549  0.00  0.00     0.015 A 
ATOM      7  N   UNL d   1      51.839  31.239  53.155  0.00  0.00    -0.242 NA
ATOM      8 CL   UNL d   1      54.575  30.560  53.554  0.00  0.00    -0.082 Cl
ATOM      9  C   UNL d   1      53.030  30.114  53.294  0.00  0.00     0.004 A 
ATOM     10  C   UNL d   1      51.659  30.435  53.094  0.00  0.00     0.099 A 
ATOM     11  C   UNL d   1      52.256  29.870  53.164  0.00  0.00     0.021 A 
ENDROOT
BRANCH   1  12
ATOM     12  O   UNL d   1      52.247  32.780  53.282  0.00  0.00    -0.271 OA
BRANCH  12  13
ATOM     13  C   UNL d   1      51.863  33.392  52.641  0.00  0.00     0.306 C 
ATOM     14  O   UNL d   1      52.372  33.452  51.774  0.00  0.00    -0.258 OA
BRANCH  13  15
ATOM     15  C   UNL d   1      51.176  33.819  52.810  0.00  0.00     0.093 A 
ATOM     16  S   UNL d   1      50.637  34.090  52.260  0.00  0.00    -0.081 SA
ATOM     17  C   UNL d   1      50.025  34.496  52.691  0.00  0.00     0.036 A 
ATOM     18  C   UNL d   1      50.215  34.457  53.489  0.00  0.00     0.008 A 
ATOM     19  C   UNL d   1      50.941  34.029  53.553  0.00  0.00     0.012 A 
ENDBRANCH  13  15
ENDBRANCH  12  13
ENDBRANCH   1  12
BRANCH   2  20
ATOM     20  C   UNL d   1      53.962  33.334  53.572  0.00  0.00     0.082 C 
BRANCH  20  21
ATOM     21  N   UNL d   1      54.367  33.515  54.266  0.00  0.00    -0.299 N 
ATOM     22  C   UNL d   1      53.968  33.579  54.974  0.00  0.00     0.107 A 
ATOM     23  C   UNL d   1      54.369  33.759  55.667  0.00  0.00     0.142 A 
ATOM     24  O   UNL d   1      55.191  33.875  55.642  0.00  0.00    -0.300 OA
ATOM     25  C   UNL d   1      55.598  33.813  54.936  0.00  0.00     0.142 A 
ATOM     26  C   UNL d   1      55.176  33.630  54.245  0.00  0.00     0.107 A 
ENDBRANCH  20  21
ENDBRANCH   2  20
TORSDOF 5
ENDMDL
MODEL 5
REMARK VINA RESULT:      -6.3      1.718      3.167
REMARK  5 active torsions:
REMARK  status: ('A' for Active; 'I' for Inactive)
REMARK    1  A    between atoms: O_4  and  C_1 
REMARK    2  A    between atoms: C_10  and  C_2 
REMARK    3  A    between atoms: C_5  and  O_4 
REMARK    4  A    between atoms: C_7  and  C_5 
REMARK    5  A    between atoms: N_12  and  C_10 
ROOT
ATOM      1  C   UNL d   1      53.342  31.864  53.686  0.00  0.00     0.122 A 
ATOM      2  C   UNL d   1      52.872  32.179  53.082  0.00  0.00     0.043 A 
ATOM      3  C   UNL d   1      53.353  31.048  53.814  0.00  0.00     0.105 A 
ATOM      4  C   UNL d   1      52.897  30.548  53.342  0.00  0.00     0.030 A 
ATOM      5  C   UNL d   1      52.433  30.869  52.745  0.00  0.00     0.059 A 
ATOM      6  C   UNL d   1      52.415  31.679  52.610  0.00  0.00     0.015 A 
ATOM      7  N   UNL d   1      53.821  30.738  54.415  0.00  0.00    -0.242 NA
ATOM      8 CL   UNL d   1      51.979  30.341  52.280  0.00  0.00    -0.082 Cl
ATOM      9  C   UNL d   1      52.912  29.743  53.474  0.00  0.00     0.004 A 
ATOM     10  C   UNL d   1      53.832  29.922  54.543  0.00  0.00     0.099 A 
ATOM     11  C   UNL d   1      53.376  29.422  54.071  0.00  0.00     0.021 A 
ENDROOT
BRANCH   1  12
ATOM     12  O   UNL d   1      53.759  32.308  54.120  0.00  0.00    -0.271 OA
BRANCH  12  13
ATOM     13  C   UNL d   1      54.592  32.798  54.111  0.00  0.00     0.306 C 
ATOM     14  O   UNL d   1      55.150  32.644  53.287  0.00  0.00    -0.258 OA
BRANCH  13  15
ATOM     15  C   UNL d   1      54.807  33.294  54.734  0.00  0.00     0.093 A 
ATOM     16  S   UNL d   1      55.316  33.931  54.682  0.00  0.00    -0.081 SA
ATOM     17  C   UNL d   1      55.368  34.273  55.461  0.00  0.00     0.036 A 
ATOM     18  C   UNL d   1      54.888  33.830  55.959  0.00  0.00     0.008 A 
ATOM     19  C   UNL d   1      54.539  33.218  55.492  0.00  0.00     0.012 A 
ENDBRANCH  13  15
ENDBRANCH  12  13
ENDBRANCH   1  12
BRANCH   2  20
ATOM     20  C   UNL d   1      52.731  33.033  52.795  0.00  0.00     0.082 C 
BRANCH  20  21
ATOM     21  N   UNL d   1      51.975  33.354  52.835  0.00  0.00    -0.299 N 
ATOM     22  C   UNL d   1      51.558  33.346  53.535  0.00  0.00     0.107 A 
ATOM     23  C   UNL d   1      50.803  33.665  53.578  0.00  0.00     0.142 A 
ATOM     24  O   UNL d   1      50.464  33.999  52.897  0.00  0.00    -0.300 OA
ATOM     25  C   UNL d   1      50.876  34.011  52.192  0.00  0.00     0.142 A 
ATOM     26  C   UNL d   1      51.638  33.684  52.167  0.00  0.00     0.107 A 
ENDBRANCH  20  21
ENDBRANCH   2  20
TORSDOF 5
ENDMDL
