MODEL 1
REMARK VINA RESULT:      -6.7      0.000      0.000
REMARK  4 active torsions:
REMARK  status: ('A' for Active; 'I' for Inactive)
REMARK    1  A    between atoms: N_6  and  C_1 
REMARK    2  A    between atoms: C_7  and  N_2 
REMARK    3  A    between atoms: C_11  and  N_6 
REMARK    4  A    between atoms: C_14  and  C_11 
ROOT
ATOM      1  C   UNL d   1     -47.903  12.818  23.092  0.00  0.00     0.735 A 
ATOM      2  N   UNL d   1     -48.699  12.942  22.915  0.00  0.00    -0.139 N 
ATOM      3  N   UNL d   1     -47.514  13.570  23.022  0.00  0.00    -0.059 NA
ATOM      4  C   UNL d   1     -48.817  13.719  22.744  0.00  0.00     0.100 A 
ATOM      5  C   UNL d   1     -48.069  14.115  22.811  0.00  0.00     0.116 A 
ATOM      6  C   UNL d   1     -49.491  14.144  22.533  0.00  0.00     0.020 A 
ATOM      7  C   UNL d   1     -48.082  14.924  22.654  0.00  0.00     0.021 A 
ATOM      8  C   UNL d   1     -49.428  14.931  22.395  0.00  0.00     0.002 A 
ATOM      9  C   UNL d   1     -48.702  15.316  22.460  0.00  0.00     0.002 A 
ENDROOT
BRANCH   1  10
ATOM     10  N   UNL d   1     -47.516  12.119  23.300  0.00  0.00    -0.056 NA
BRANCH  10  11
ATOM     11  C   UNL d   1     -46.736  12.147  23.482  0.00  0.00     0.163 C 
BRANCH  11  12
ATOM     12  C   UNL d   1     -46.351  11.449  23.697  0.00  0.00     0.255 C 
ATOM     13  O   UNL d   1     -45.513  11.424  23.697  0.00  0.00    -0.281 OA
ENDBRANCH  11  12
ENDBRANCH  10  11
ENDBRANCH   1  10
BRANCH   2  14
ATOM     14  C   UNL d   1     -49.123  12.266  22.964  0.00  0.00     0.082 C 
ATOM     15  C   UNL d   1     -49.207  11.792  22.289  0.00  0.00     0.020 C 
ATOM     16  C   UNL d   1     -49.467  12.055  23.684  0.00  0.00     0.020 C 
ENDBRANCH   2  14
TORSDOF 4
ENDMDL
MODEL 2
REMARK VINA RESULT:      -6.6      1.145      2.434
REMARK  4 active torsions:
REMARK  status: ('A' for Active; 'I' for Inactive)
REMARK    1  A    between atoms: N_6  and  C_1 
REMARK    2  A    between atoms: C_7  and  N_2 
REMARK    3  A    between atoms: C_11  and  N_6 
REMARK    4  A    between atoms: C_14  and  C_11 
ROOT
ATOM      1  C   UNL d   1     -48.281  13.389  23.003  0.00  0.00     0.735 A 
ATOM      2  N   UNL d   1     -49.073  13.603  22.914  0.00  0.00    -0.139 N 
ATOM      3  N   UNL d   1     -48.271  12.599  23.314  0.00  0.00    -0.059 NA
ATOM      4  C   UNL d   1     -49.541  12.994  23.152  0.00  0.00     0.100 A 
ATOM      5  C   UNL d   1     -49.035  12.361  23.404  0.00  0.00     0.116 A 
ATOM      6  C   UNL d   1     -50.360  12.904  23.183  0.00  0.00     0.020 A 
ATOM      7  C   UNL d   1     -49.422  11.683  23.669  0.00  0.00     0.021 A 
ATOM      8  C   UNL d   1     -50.667  12.214  23.453  0.00  0.00     0.002 A 
ATOM      9  C   UNL d   1     -50.175  11.599  23.698  0.00  0.00     0.002 A 
ENDROOT
BRANCH   1  10
ATOM     10  N   UNL d   1     -47.601  13.826  22.835  0.00  0.00    -0.056 NA
BRANCH  10  11
ATOM     11  C   UNL d   1     -46.884  13.473  22.913  0.00  0.00     0.163 C 
BRANCH  11  12
ATOM     12  C   UNL d   1     -46.203  13.932  22.836  0.00  0.00     0.255 C 
ATOM     13  O   UNL d   1     -45.506  13.585  22.526  0.00  0.00    -0.281 OA
ENDBRANCH  11  12
ENDBRANCH  10  11
ENDBRANCH   1  10
BRANCH   2  14
ATOM     14  C   UNL d   1     -49.150  14.344  22.623  0.00  0.00     0.082 C 
ATOM     15  C   UNL d   1     -49.200  14.982  23.149  0.00  0.00     0.020 C 
ATOM     16  C   UNL d   1     -49.179  14.454  21.805  0.00  0.00     0.020 C 
ENDBRANCH   2  14
TORSDOF 4
ENDMDL
MODEL 3
REMARK VINA RESULT:      -6.5      1.557      2.660
REMARK  4 active torsions:
REMARK  status: ('A' for Active; 'I' for Inactive)
REMARK    1  A    between atoms: N_6  and  C_1 
REMARK    2  A    between atoms: C_7  and  N_2 
REMARK    3  A    between atoms: C_11  and  N_6 
REMARK    4  A    between atoms: C_14  and  C_11 
ROOT
ATOM      1  C   UNL d   1     -48.598  13.120  23.084  0.00  0.00     0.735 A 
ATOM      2  N   UNL d   1     -48.318  13.859  22.850  0.00  0.00    -0.139 N 
ATOM      3  N   UNL d   1     -47.919  12.629  23.220  0.00  0.00    -0.059 NA
ATOM      4  C   UNL d   1     -47.514  13.847  22.835  0.00  0.00     0.100 A 
ATOM      5  C   UNL d   1     -47.262  13.071  23.068  0.00  0.00     0.116 A 
ATOM      6  C   UNL d   1     -46.955  14.422  22.644  0.00  0.00     0.020 A 
ATOM      7  C   UNL d   1     -46.447  12.954  23.085  0.00  0.00     0.021 A 
ATOM      8  C   UNL d   1     -46.176  14.236  22.683  0.00  0.00     0.002 A 
ATOM      9  C   UNL d   1     -45.931  13.482  22.910  0.00  0.00     0.002 A 
ENDROOT
BRANCH   1  10
ATOM     10  N   UNL d   1     -49.377  12.863  23.182  0.00  0.00    -0.056 NA
BRANCH  10  11
ATOM     11  C   UNL d   1     -49.510  12.106  23.411  0.00  0.00     0.163 C 
BRANCH  11  12
ATOM     12  C   UNL d   1     -50.288  11.852  23.518  0.00  0.00     0.255 C 
ATOM     13  O   UNL d   1     -50.437  11.048  23.698  0.00  0.00    -0.281 OA
ENDBRANCH  11  12
ENDBRANCH  10  11
ENDBRANCH   1  10
BRANCH   2  14
ATOM     14  C   UNL d   1     -48.915  14.372  22.706  0.00  0.00     0.082 C 
ATOM     15  C   UNL d   1     -49.225  14.425  21.939  0.00  0.00     0.020 C 
ATOM     16  C   UNL d   1     -49.208  14.834  23.323  0.00  0.00     0.020 C 
ENDBRANCH   2  14
TORSDOF 4
ENDMDL
MODEL 4
REMARK VINA RESULT:      -5.5      1.284      2.105
REMARK  4 active torsions:
REMARK  status: ('A' for Active; 'I' for Inactive)
REMARK    1  A    between atoms: N_6  and  C_1 
REMARK    2  A    between atoms: C_7  and  N_2 
REMARK    3  A    between atoms: C_11  and  N_6 
REMARK    4  A    between atoms: C_14  and  C_11 
ROOT
ATOM      1  C   UNL d   1     -48.962  13.416  23.118  0.00  0.00     0.735 A 
ATOM      2  N   UNL d   1     -48.776  14.180  22.867  0.00  0.00    -0.139 N 
ATOM      3  N   UNL d   1     -49.724  13.455  23.490  0.00  0.00    -0.059 NA
ATOM      4  C   UNL d   1     -49.377  14.678  23.062  0.00  0.00     0.100 A 
ATOM      5  C   UNL d   1     -49.975  14.221  23.455  0.00  0.00     0.116 A 
ATOM      6  C   UNL d   1     -49.486  15.487  22.948  0.00  0.00     0.020 A 
ATOM      7  C   UNL d   1     -50.640  14.642  23.698  0.00  0.00     0.021 A 
ATOM      8  C   UNL d   1     -50.160  15.831  23.211  0.00  0.00     0.002 A 
ATOM      9  C   UNL d   1     -50.742  15.387  23.593  0.00  0.00     0.002 A 
ENDROOT
BRANCH   1  10
ATOM     10  N   UNL d   1     -48.522  12.721  23.044  0.00  0.00    -0.056 NA
BRANCH  10  11
ATOM     11  C   UNL d   1     -48.810  12.044  23.365  0.00  0.00     0.163 C 
BRANCH  11  12
ATOM     12  C   UNL d   1     -48.285  11.432  23.541  0.00  0.00     0.255 C 
ATOM     13  O   UNL d   1     -48.254  10.761  23.041  0.00  0.00    -0.281 OA
ENDBRANCH  11  12
ENDBRANCH  10  11
ENDBRANCH   1  10
BRANCH   2  14
ATOM     14  C   UNL d   1     -48.063  14.210  22.506  0.00  0.00     0.082 C 
ATOM     15  C   UNL d   1     -48.014  14.043  21.696  0.00  0.00     0.020 C 
ATOM     16  C   UNL d   1     -47.395  14.406  22.949  0.00  0.00     0.020 C 
ENDBRANCH   2  14
TORSDOF 4
ENDMDL
