MODEL 1
REMARK VINA RESULT:      44.0      0.000      0.000
REMARK  7 active torsions:
REMARK  status: ('A' for Active; 'I' for Inactive)
REMARK    1  A    between atoms: C_11  and  C_3 
REMARK    2  A    between atoms: C_10  and  C_4 
REMARK    3  A    between atoms: O_16  and  C_10 
REMARK    4  A    between atoms: N_15  and  C_11 
REMARK    5  A    between atoms: C_21  and  N_15 
REMARK    6  A    between atoms: C_23  and  O_16 
REMARK    7  A    between atoms: C_18  and  C_21 
ROOT
ATOM      1  C   UNL d   1     -58.505 -98.822 -44.108  0.00  0.00     0.035 A 
ATOM      2  C   UNL d   1     -59.208 -98.806 -44.539  0.00  0.00     0.100 A 
ATOM      3  C   UNL d   1     -57.776 -98.825 -44.495  0.00  0.00     0.060 A 
ATOM      4  C   UNL d   1     -58.704 -98.831 -43.303  0.00  0.00     0.088 A 
ATOM      5  O   UNL d   1     -59.828 -98.806 -44.006  0.00  0.00    -0.307 OA
ATOM      6  C   UNL d   1     -59.510 -98.821 -43.277  0.00  0.00     0.105 A 
ATOM      7  C   UNL d   1     -57.743 -98.814 -45.317  0.00  0.00     0.197 A 
ATOM      8  C   UNL d   1     -59.168 -98.795 -45.358  0.00  0.00     0.026 A 
ATOM      9  C   UNL d   1     -58.440 -98.799 -45.745  0.00  0.00     0.041 A 
ATOM     10  O   UNL d   1     -57.018 -98.817 -45.701  0.00  0.00    -0.286 OA
ATOM     11  C   UNL d   1     -59.958 -98.826 -42.559  0.00  0.00     0.027 C 
ATOM     12  C   UNL d   1     -59.874 -98.780 -45.793  0.00  0.00     0.002 A 
ATOM     13  C   UNL d   1     -58.408 -98.787 -46.571  0.00  0.00     0.003 A 
ATOM     14  C   UNL d   1     -59.105 -98.772 -46.999  0.00  0.00     0.000 A 
ATOM     15  C   UNL d   1     -59.834 -98.768 -46.612  0.00  0.00     0.000 A 
ENDROOT
BRANCH   3  16
ATOM     16  C   UNL d   1     -57.045 -98.841 -44.059  0.00  0.00     0.102 C 
BRANCH  16  17
ATOM     17  N   UNL d   1     -56.308 -98.769 -44.446  0.00  0.00    -0.241 NA
BRANCH  17  18
ATOM     18  C   UNL d   1     -55.632 -99.030 -44.073  0.00  0.00     0.118 C 
BRANCH  18  19
ATOM     19  C   UNL d   1     -55.377 -99.821 -44.189  0.00  0.00     0.101 A 
ATOM     20  N   UNL d   1     -55.519-100.395 -43.620  0.00  0.00    -0.242 NA
ATOM     21  C   UNL d   1     -55.268-101.172 -43.734  0.00  0.00     0.099 A 
ATOM     22  C   UNL d   1     -54.871-101.385 -44.417  0.00  0.00     0.021 A 
ATOM     23  C   UNL d   1     -54.726-100.814 -44.990  0.00  0.00     0.003 A 
ATOM     24  C   UNL d   1     -54.977-100.036 -44.877  0.00  0.00     0.021 A 
ENDBRANCH  18  19
ENDBRANCH  17  18
ENDBRANCH  16  17
ENDBRANCH   3  16
BRANCH   4  25
ATOM     25  C   UNL d   1     -58.190 -98.848 -42.621  0.00  0.00     0.302 C 
ATOM     26  O   UNL d   1     -57.378 -98.913 -42.736  0.00  0.00    -0.259 OA
BRANCH  25  27
ATOM     27  O   UNL d   1     -58.498 -98.800 -41.889  0.00  0.00    -0.271 OA
BRANCH  27  28
ATOM     28  C   UNL d   1     -59.313 -98.761 -41.774  0.00  0.00     0.126 C 
ATOM     29  C   UNL d   1     -59.636 -98.848 -41.012  0.00  0.00     0.029 C 
ENDBRANCH  27  28
ENDBRANCH  25  27
ENDBRANCH   4  25
TORSDOF 7
ENDMDL
