MODEL 1
REMARK VINA RESULT:      36.6      0.000      0.000
REMARK  4 active torsions:
REMARK  status: ('A' for Active; 'I' for Inactive)
REMARK    1  A    between atoms: S_9  and  C_3 
REMARK    2  A    between atoms: C_12  and  S_9 
REMARK    3  A    between atoms: C_11  and  C_12 
REMARK    4  A    between atoms: O_16  and  C_11 
ROOT
ATOM      1  C   UNL d   1     -58.344 -98.775 -44.284  0.00  0.00     0.155 A 
ATOM      2  C   UNL d   1     -57.926 -98.765 -44.999  0.00  0.00     0.107 A 
ATOM      3  C   UNL d   1     -56.697 -98.762 -44.275  0.00  0.00     0.182 A 
ATOM      4  N   UNL d   1     -57.108 -98.772 -43.566  0.00  0.00    -0.250 N 
ATOM      5  N   UNL d   1     -57.097 -98.759 -44.994  0.00  0.00    -0.220 NA
ATOM      6  C   UNL d   1     -57.938 -98.778 -43.571  0.00  0.00     0.285 A 
ATOM      7  N   UNL d   1     -59.149 -98.779 -44.457  0.00  0.00    -0.239 NA
ATOM      8  C   UNL d   1     -58.468 -98.764 -45.617  0.00  0.00     0.037 A 
ATOM      9  C   UNL d   1     -59.233 -98.773 -45.282  0.00  0.00     0.083 A 
ATOM     10  O   UNL d   1     -58.349 -98.788 -42.850  0.00  0.00    -0.265 OA
ATOM     11  C   UNL d   1     -56.696 -98.775 -42.847  0.00  0.00     0.104 C 
ATOM     12  C   UNL d   1     -58.380 -98.755 -46.434  0.00  0.00     0.003 A 
ATOM     13  C   UNL d   1     -59.900 -98.773 -45.771  0.00  0.00     0.019 A 
ATOM     14  C   UNL d   1     -59.048 -98.756 -46.923  0.00  0.00     0.000 A 
ATOM     15  C   UNL d   1     -59.802 -98.765 -46.591  0.00  0.00     0.002 A 
ENDROOT
BRANCH   3  16
ATOM     16  S   UNL d   1     -55.871 -98.756 -44.267  0.00  0.00    -0.044 SA
BRANCH  16  17
ATOM     17  C   UNL d   1     -55.446 -99.262 -44.760  0.00  0.00     0.095 C 
ATOM     18  C   UNL d   1     -55.186 -99.000 -45.495  0.00  0.00     0.013 C 
BRANCH  17  19
ATOM     19  C   UNL d   1     -55.286-100.031 -44.509  0.00  0.00     0.302 C 
ATOM     20  O   UNL d   1     -54.728-100.168 -43.937  0.00  0.00    -0.259 OA
BRANCH  19  21
ATOM     21  O   UNL d   1     -55.696-100.671 -44.842  0.00  0.00    -0.295 OA
ATOM     22  C   UNL d   1     -55.343-101.422 -44.870  0.00  0.00     0.185 C 
ENDBRANCH  19  21
ENDBRANCH  17  19
ENDBRANCH  16  17
ENDBRANCH   3  16
TORSDOF 4
ENDMDL
