MODEL 1
REMARK VINA RESULT:      59.5      0.000      0.000
REMARK  7 active torsions:
REMARK  status: ('A' for Active; 'I' for Inactive)
REMARK    1  A    between atoms: O_8  and  C_1 
REMARK    2  A    between atoms: C_10  and  C_5 
REMARK    3  A    between atoms: C_12  and  O_8 
REMARK    4  A    between atoms: N_9  and  C_10 
REMARK    5  A    between atoms: C_25  and  N_14 
REMARK    6  A    between atoms: O_24  and  C_17 
REMARK    7  A    between atoms: C_29  and  C_25 
ROOT
ATOM      1  C   UNL d   1      13.882  12.574  -2.862  0.00  0.00     0.161 A 
ATOM      2  C   UNL d   1      13.495  13.962  -3.696  0.00  0.00     0.108 A 
ATOM      3  C   UNL d   1      13.348  13.211  -4.034  0.00  0.00     0.064 A 
ATOM      4  C   UNL d   1      13.539  12.524  -3.623  0.00  0.00     0.222 A 
ATOM      5  C   UNL d   1      13.300  14.646  -4.117  0.00  0.00     0.079 A 
ATOM      6  O   UNL d   1      13.834  14.018  -2.944  0.00  0.00    -0.305 OA
ATOM      7  C   UNL d   1      14.029  13.321  -2.524  0.00  0.00     0.126 A 
ATOM      8  C   UNL d   1      13.005  13.164  -4.793  0.00  0.00     0.009 A 
ATOM      9  C   UNL d   1      12.963  14.601  -4.863  0.00  0.00     0.199 A 
ATOM     10  O   UNL d   1      13.395  11.781  -3.953  0.00  0.00    -0.284 OA
ATOM     11  C   UNL d   1      12.814  13.852  -5.205  0.00  0.00     0.042 A 
ATOM     12  O   UNL d   1      12.770  15.276  -5.279  0.00  0.00    -0.286 OA
ATOM     13  C   UNL d   1      14.367  13.373  -1.776  0.00  0.00     0.029 C 
ENDROOT
BRANCH   5  14
ATOM     14  C   UNL d   1      13.446  15.380  -3.781  0.00  0.00     0.086 C 
BRANCH  14  15
ATOM     15  N   UNL d   1      14.045  15.861  -4.087  0.00  0.00    -0.300 N 
ATOM     16  C   UNL d   1      14.003  16.119  -4.870  0.00  0.00     0.100 A 
ATOM     17  C   UNL d   1      14.599  16.598  -5.175  0.00  0.00     0.100 A 
ATOM     18  N   UNL d   1      15.237  16.820  -4.698  0.00  0.00    -0.297 N 
ATOM     19  C   UNL d   1      15.275  16.561  -3.916  0.00  0.00     0.100 A 
ATOM     20  C   UNL d   1      14.676  16.076  -3.603  0.00  0.00     0.100 A 
BRANCH  18  21
ATOM     21  C   UNL d   1      15.833  17.299  -5.003  0.00  0.00     0.126 C 
BRANCH  21  22
ATOM     22  C   UNL d   1      15.842  18.106  -4.831  0.00  0.00     0.253 C 
ATOM     23  O   UNL d   1      16.016  18.654  -5.429  0.00  0.00    -0.281 OA
ENDBRANCH  21  22
ENDBRANCH  18  21
ENDBRANCH  14  15
ENDBRANCH   5  14
BRANCH   1  24
ATOM     24  O   UNL d   1      14.073  11.887  -2.449  0.00  0.00    -0.300 OA
BRANCH  24  25
ATOM     25  C   UNL d   1      13.969  11.859  -1.639  0.00  0.00     0.122 A 
ATOM     26  C   UNL d   1      14.618  11.807  -1.145  0.00  0.00     0.117 A 
ATOM     27  C   UNL d   1      14.515  11.780  -0.331  0.00  0.00     0.026 A 
ATOM     28  C   UNL d   1      13.751  11.805  -0.017  0.00  0.00     0.002 A 
ATOM     29  C   UNL d   1      13.102  11.857  -0.511  0.00  0.00     0.002 A 
ATOM     30  C   UNL d   1      13.207  11.885  -1.329  0.00  0.00     0.027 A 
BRANCH  26  31
ATOM     31  O   UNL d   1      15.374  11.783  -1.470  0.00  0.00    -0.326 OA
ATOM     32  C   UNL d   1      16.027  12.006  -1.017  0.00  0.00     0.181 C 
ENDBRANCH  26  31
ENDBRANCH  24  25
ENDBRANCH   1  24
TORSDOF 7
ENDMDL
