MODEL 1
REMARK VINA RESULT:      -5.7      0.000      0.000
REMARK  5 active torsions:
REMARK  status: ('A' for Active; 'I' for Inactive)
REMARK    1  A    between atoms: C_2  and  S_1 
REMARK    2  A    between atoms: N_3  and  S_1 
REMARK    3  A    between atoms: C_11  and  N_3 
REMARK    4  A    between atoms: O_13  and  C_5 
REMARK    5  A    between atoms: C_14  and  C_11 
ROOT
ATOM      1  S   UNL d   1     -41.418-123.043 -52.289  0.00  0.00     0.285 S 
ATOM      2  O   UNL d   1     -41.714-123.812 -52.321  0.00  0.00    -0.198 OA
ATOM      3  O   UNL d   1     -41.122-122.275 -52.254  0.00  0.00    -0.198 OA
ENDROOT
BRANCH   1   4
ATOM      4  C   UNL d   1     -41.410-123.011 -53.113  0.00  0.00     0.107 A 
ATOM      5  C   UNL d   1     -41.682-122.337 -53.501  0.00  0.00     0.039 A 
ATOM      6  C   UNL d   1     -41.675-122.305 -54.326  0.00  0.00     0.122 A 
ATOM      7  C   UNL d   1     -41.394-122.950 -54.762  0.00  0.00     0.162 A 
ATOM      8  C   UNL d   1     -41.124-123.621 -54.371  0.00  0.00     0.032 A 
ATOM      9  F   UNL d   1     -41.388-122.915 -55.584  0.00  0.00    -0.202 F 
ATOM     10  C   UNL d   1     -41.130-123.656 -53.549  0.00  0.00     0.015 A 
BRANCH   6  11
ATOM     11  O   UNL d   1     -41.947-121.630 -54.714  0.00  0.00    -0.326 OA
ATOM     12  C   UNL d   1     -42.745-121.565 -54.921  0.00  0.00     0.181 C 
ENDBRANCH   6  11
ENDBRANCH   1   4
BRANCH   1  13
ATOM     13  N   UNL d   1     -41.426-123.075 -51.461  0.00  0.00    -0.157 NA
BRANCH  13  14
ATOM     14  C   UNL d   1     -41.953-122.604 -51.035  0.00  0.00     0.112 C 
BRANCH  14  15
ATOM     15  C   UNL d   1     -42.086-122.756 -50.235  0.00  0.00     0.020 A 
ATOM     16  C   UNL d   1     -42.825-122.603 -49.901  0.00  0.00     0.002 A 
ATOM     17  C   UNL d   1     -42.955-122.757 -49.093  0.00  0.00     0.000 A 
ATOM     18  C   UNL d   1     -42.346-123.064 -48.628  0.00  0.00     0.000 A 
ATOM     19  C   UNL d   1     -41.606-123.217 -48.962  0.00  0.00     0.000 A 
ATOM     20  C   UNL d   1     -41.474-123.065 -49.763  0.00  0.00     0.002 A 
ENDBRANCH  14  15
ENDBRANCH  13  14
ENDBRANCH   1  13
TORSDOF 5
ENDMDL
MODEL 2
REMARK VINA RESULT:      -5.6      1.810      4.424
REMARK  5 active torsions:
REMARK  status: ('A' for Active; 'I' for Inactive)
REMARK    1  A    between atoms: C_2  and  S_1 
REMARK    2  A    between atoms: N_3  and  S_1 
REMARK    3  A    between atoms: C_11  and  N_3 
REMARK    4  A    between atoms: O_13  and  C_5 
REMARK    5  A    between atoms: C_14  and  C_11 
ROOT
ATOM      1  S   UNL d   1     -41.487-122.667 -52.012  0.00  0.00     0.285 S 
ATOM      2  O   UNL d   1     -41.820-123.378 -52.264  0.00  0.00    -0.198 OA
ATOM      3  O   UNL d   1     -41.154-121.956 -51.762  0.00  0.00    -0.198 OA
ENDROOT
BRANCH   1   4
ATOM      4  C   UNL d   1     -41.550-122.915 -51.228  0.00  0.00     0.107 A 
ATOM      5  C   UNL d   1     -42.042-122.507 -50.706  0.00  0.00     0.039 A 
ATOM      6  C   UNL d   1     -42.106-122.755 -49.922  0.00  0.00     0.122 A 
ATOM      7  C   UNL d   1     -41.678-123.413 -49.660  0.00  0.00     0.162 A 
ATOM      8  C   UNL d   1     -41.189-123.817 -50.183  0.00  0.00     0.032 A 
ATOM      9  F   UNL d   1     -41.744-123.658 -48.877  0.00  0.00    -0.202 F 
ATOM     10  C   UNL d   1     -41.122-123.572 -50.965  0.00  0.00     0.015 A 
BRANCH   6  11
ATOM     11  O   UNL d   1     -42.597-122.347 -49.400  0.00  0.00    -0.326 OA
ATOM     12  C   UNL d   1     -43.375-122.601 -49.279  0.00  0.00     0.181 C 
ENDBRANCH   6  11
ENDBRANCH   1   4
BRANCH   1  13
ATOM     13  N   UNL d   1     -41.423-122.418 -52.800  0.00  0.00    -0.157 NA
BRANCH  13  14
ATOM     14  C   UNL d   1     -41.881-122.779 -53.384  0.00  0.00     0.112 C 
BRANCH  14  15
ATOM     15  C   UNL d   1     -41.899-122.461 -54.145  0.00  0.00     0.020 A 
ATOM     16  C   UNL d   1     -42.473-121.903 -54.347  0.00  0.00     0.002 A 
ATOM     17  C   UNL d   1     -42.489-121.584 -55.116  0.00  0.00     0.000 A 
ATOM     18  C   UNL d   1     -41.932-121.826 -55.675  0.00  0.00     0.000 A 
ATOM     19  C   UNL d   1     -41.358-122.385 -55.473  0.00  0.00     0.000 A 
ATOM     20  C   UNL d   1     -41.339-122.703 -54.712  0.00  0.00     0.002 A 
ENDBRANCH  14  15
ENDBRANCH  13  14
ENDBRANCH   1  13
TORSDOF 5
ENDMDL
MODEL 3
REMARK VINA RESULT:      -4.9      2.036      4.635
REMARK  5 active torsions:
REMARK  status: ('A' for Active; 'I' for Inactive)
REMARK    1  A    between atoms: C_2  and  S_1 
REMARK    2  A    between atoms: N_3  and  S_1 
REMARK    3  A    between atoms: C_11  and  N_3 
REMARK    4  A    between atoms: O_13  and  C_5 
REMARK    5  A    between atoms: C_14  and  C_11 
ROOT
ATOM      1  S   UNL d   1     -41.942-122.729 -51.258  0.00  0.00     0.285 S 
ATOM      2  O   UNL d   1     -42.288-121.995 -51.108  0.00  0.00    -0.198 OA
ATOM      3  O   UNL d   1     -41.597-123.461 -51.410  0.00  0.00    -0.198 OA
ENDROOT
BRANCH   1   4
ATOM      4  C   UNL d   1     -41.868-122.859 -50.447  0.00  0.00     0.107 A 
ATOM      5  C   UNL d   1     -42.468-123.249 -50.036  0.00  0.00     0.039 A 
ATOM      6  C   UNL d   1     -42.394-123.380 -49.225  0.00  0.00     0.122 A 
ATOM      7  C   UNL d   1     -41.719-123.120 -48.824  0.00  0.00     0.162 A 
ATOM      8  C   UNL d   1     -41.123-122.732 -49.236  0.00  0.00     0.032 A 
ATOM      9  F   UNL d   1     -41.649-123.252 -48.015  0.00  0.00    -0.202 F 
ATOM     10  C   UNL d   1     -41.193-122.600 -50.045  0.00  0.00     0.015 A 
BRANCH   6  11
ATOM     11  O   UNL d   1     -42.994-123.770 -48.815  0.00  0.00    -0.326 OA
ATOM     12  C   UNL d   1     -43.754-123.818 -49.139  0.00  0.00     0.181 C 
ENDBRANCH   6  11
ENDBRANCH   1   4
BRANCH   1  13
ATOM     13  N   UNL d   1     -42.017-122.597 -52.072  0.00  0.00    -0.157 NA
BRANCH  13  14
ATOM     14  C   UNL d   1     -41.345-122.592 -52.552  0.00  0.00     0.112 C 
BRANCH  14  15
ATOM     15  C   UNL d   1     -41.428-122.585 -53.373  0.00  0.00     0.020 A 
ATOM     16  C   UNL d   1     -41.125-123.206 -53.825  0.00  0.00     0.002 A 
ATOM     17  C   UNL d   1     -41.211-123.196 -54.653  0.00  0.00     0.000 A 
ATOM     18  C   UNL d   1     -41.597-122.566 -55.021  0.00  0.00     0.000 A 
ATOM     19  C   UNL d   1     -41.900-121.945 -54.569  0.00  0.00     0.000 A 
ATOM     20  C   UNL d   1     -41.817-121.952 -53.748  0.00  0.00     0.002 A 
ENDBRANCH  14  15
ENDBRANCH  13  14
ENDBRANCH   1  13
TORSDOF 5
ENDMDL
