MODEL 1
REMARK VINA RESULT:       4.9      0.000      0.000
REMARK  5 active torsions:
REMARK  status: ('A' for Active; 'I' for Inactive)
REMARK    1  A    between atoms: C_14  and  N_3 
REMARK    2  A    between atoms: C_15  and  C_9 
REMARK    3  A    between atoms: O_22  and  C_12 
REMARK    4  A    between atoms: O_23  and  C_13 
REMARK    5  A    between atoms: C_16  and  C_14 
ROOT
ATOM      1  C   UNL d   1      58.855   0.655  32.417  0.00  0.00     0.056 A 
ATOM      2  C   UNL d   1      59.369   0.659  31.765  0.00  0.00     0.107 A 
ATOM      3  N   UNL d   1      57.738   0.627  31.520  0.00  0.00    -0.304 N 
ATOM      4  C   UNL d   1      59.067   0.647  30.999  0.00  0.00     0.038 A 
ATOM      5  N   UNL d   1      60.139   0.676  32.057  0.00  0.00    -0.148 NA
ATOM      6  C   UNL d   1      58.039   0.639  32.294  0.00  0.00     0.083 A 
ATOM      7  N   UNL d   1      60.100   0.682  32.881  0.00  0.00    -0.148 NA
ATOM      8  C   UNL d   1      58.252   0.631  30.877  0.00  0.00     0.068 A 
ATOM      9  C   UNL d   1      59.311   0.669  33.109  0.00  0.00     0.106 A 
ATOM     10  C   UNL d   1      57.949   0.619  30.111  0.00  0.00     0.044 A 
ATOM     11  C   UNL d   1      59.581   0.651  30.355  0.00  0.00     0.029 A 
ATOM     12  C   UNL d   1      58.463   0.623  29.468  0.00  0.00     0.118 A 
ATOM     13  C   UNL d   1      59.279   0.639  29.590  0.00  0.00     0.116 A 
ENDROOT
BRANCH   3  14
ATOM     14  C   UNL d   1      56.922   0.611  31.398  0.00  0.00     0.080 C 
BRANCH  14  15
ATOM     15  C   UNL d   1      56.444   0.136  31.871  0.00  0.00     0.020 A 
ATOM     16  C   UNL d   1      55.859   0.482  32.353  0.00  0.00     0.031 A 
ATOM     17  C   UNL d   1      55.381   0.008  32.827  0.00  0.00     0.140 A 
ATOM     18  F   UNL d   1      54.803   0.354  33.303  0.00  0.00    -0.204 F 
ATOM     19  C   UNL d   1      55.478  -0.821  32.826  0.00  0.00     0.030 A 
ATOM     20  C   UNL d   1      56.063  -1.167  32.344  0.00  0.00     0.002 A 
ATOM     21  C   UNL d   1      56.542  -0.688  31.869  0.00  0.00     0.002 A 
ENDBRANCH  14  15
ENDBRANCH   3  14
BRANCH   9  22
ATOM     22  C   UNL d   1      59.111   0.672  33.909  0.00  0.00     0.020 A 
ATOM     23  C   UNL d   1      58.315   0.679  34.135  0.00  0.00     0.004 A 
ATOM     24  C   UNL d   1      58.119   0.682  34.941  0.00  0.00     0.030 A 
ATOM     25  C   UNL d   1      58.704   0.679  35.506  0.00  0.00     0.140 A 
ATOM     26  C   UNL d   1      59.499   0.672  35.284  0.00  0.00     0.030 A 
ATOM     27  F   UNL d   1      58.496   0.682  36.307  0.00  0.00    -0.204 F 
ATOM     28  C   UNL d   1      59.704   0.669  34.481  0.00  0.00     0.004 A 
ENDBRANCH   9  22
BRANCH  12  29
ATOM     29  O   UNL d   1      58.150   0.610  28.688  0.00  0.00    -0.326 OA
ATOM     30  C   UNL d   1      57.343   0.475  28.572  0.00  0.00     0.181 C 
ENDBRANCH  12  29
BRANCH  13  31
ATOM     31  O   UNL d   1      59.794   0.643  28.934  0.00  0.00    -0.326 OA
ATOM     32  C   UNL d   1      60.467   0.162  28.936  0.00  0.00     0.181 C 
ENDBRANCH  13  31
TORSDOF 5
ENDMDL
MODEL 2
REMARK VINA RESULT:       5.2      2.627      4.872
REMARK  5 active torsions:
REMARK  status: ('A' for Active; 'I' for Inactive)
REMARK    1  A    between atoms: C_14  and  N_3 
REMARK    2  A    between atoms: C_15  and  C_9 
REMARK    3  A    between atoms: O_22  and  C_12 
REMARK    4  A    between atoms: O_23  and  C_13 
REMARK    5  A    between atoms: C_16  and  C_14 
ROOT
ATOM      1  C   UNL d   1      58.004  -1.259  30.889  0.00  0.00     0.056 A 
ATOM      2  C   UNL d   1      57.271  -1.439  31.236  0.00  0.00     0.107 A 
ATOM      3  N   UNL d   1      58.032  -0.025  31.615  0.00  0.00    -0.304 N 
ATOM      4  C   UNL d   1      56.925  -0.914  31.767  0.00  0.00     0.038 A 
ATOM      5  N   UNL d   1      57.031  -2.171  30.943  0.00  0.00    -0.148 NA
ATOM      6  C   UNL d   1      58.384  -0.552  31.078  0.00  0.00     0.083 A 
ATOM      7  N   UNL d   1      57.611  -2.440  30.421  0.00  0.00    -0.148 NA
ATOM      8  C   UNL d   1      57.306  -0.208  31.956  0.00  0.00     0.068 A 
ATOM      9  C   UNL d   1      58.212  -1.883  30.383  0.00  0.00     0.106 A 
ATOM     10  C   UNL d   1      56.960   0.318  32.488  0.00  0.00     0.044 A 
ATOM     11  C   UNL d   1      56.198  -1.096  32.109  0.00  0.00     0.029 A 
ATOM     12  C   UNL d   1      56.233   0.136  32.830  0.00  0.00     0.118 A 
ATOM     13  C   UNL d   1      55.853  -0.571  32.640  0.00  0.00     0.116 A 
ENDROOT
BRANCH   3  14
ATOM     14  C   UNL d   1      58.413   0.682  31.805  0.00  0.00     0.080 C 
BRANCH  14  15
ATOM     15  C   UNL d   1      59.216   0.682  31.985  0.00  0.00     0.020 A 
ATOM     16  C   UNL d   1      59.464   0.682  32.781  0.00  0.00     0.031 A 
ATOM     17  C   UNL d   1      60.267   0.681  32.963  0.00  0.00     0.140 A 
ATOM     18  F   UNL d   1      60.509   0.681  33.751  0.00  0.00    -0.204 F 
ATOM     19  C   UNL d   1      60.836   0.681  32.352  0.00  0.00     0.030 A 
ATOM     20  C   UNL d   1      60.588   0.682  31.557  0.00  0.00     0.002 A 
ATOM     21  C   UNL d   1      59.781   0.682  31.378  0.00  0.00     0.002 A 
ENDBRANCH  14  15
ENDBRANCH   3  14
BRANCH   9  22
ATOM     22  C   UNL d   1      58.867  -2.013  29.898  0.00  0.00     0.020 A 
ATOM     23  C   UNL d   1      59.598  -2.203  30.235  0.00  0.00     0.004 A 
ATOM     24  C   UNL d   1      60.253  -2.333  29.744  0.00  0.00     0.030 A 
ATOM     25  C   UNL d   1      60.178  -2.274  28.935  0.00  0.00     0.140 A 
ATOM     26  C   UNL d   1      59.450  -2.084  28.596  0.00  0.00     0.030 A 
ATOM     27  F   UNL d   1      60.840  -2.406  28.455  0.00  0.00    -0.204 F 
ATOM     28  C   UNL d   1      58.790  -1.953  29.080  0.00  0.00     0.004 A 
ENDBRANCH   9  22
BRANCH  12  29
ATOM     29  O   UNL d   1      55.884   0.674  33.372  0.00  0.00    -0.326 OA
ATOM     30  C   UNL d   1      56.100   0.652  34.170  0.00  0.00     0.181 C 
ENDBRANCH  12  29
BRANCH  13  31
ATOM     31  O   UNL d   1      55.117  -0.750  32.990  0.00  0.00    -0.326 OA
ATOM     32  C   UNL d   1      54.983  -1.503  33.306  0.00  0.00     0.181 C 
ENDBRANCH  13  31
TORSDOF 5
ENDMDL
MODEL 3
REMARK VINA RESULT:       7.9      2.311      4.233
REMARK  5 active torsions:
REMARK  status: ('A' for Active; 'I' for Inactive)
REMARK    1  A    between atoms: C_14  and  N_3 
REMARK    2  A    between atoms: C_15  and  C_9 
REMARK    3  A    between atoms: O_22  and  C_12 
REMARK    4  A    between atoms: O_23  and  C_13 
REMARK    5  A    between atoms: C_16  and  C_14 
ROOT
ATOM      1  C   UNL d   1      58.321   0.658  32.531  0.00  0.00     0.056 A 
ATOM      2  C   UNL d   1      58.746   0.667  33.245  0.00  0.00     0.107 A 
ATOM      3  N   UNL d   1      57.096   0.645  33.273  0.00  0.00    -0.304 N 
ATOM      4  C   UNL d   1      58.346   0.665  33.964  0.00  0.00     0.038 A 
ATOM      5  N   UNL d   1      59.547   0.676  33.056  0.00  0.00    -0.148 NA
ATOM      6  C   UNL d   1      57.496   0.647  32.545  0.00  0.00     0.083 A 
ATOM      7  N   UNL d   1      59.616   0.674  32.234  0.00  0.00    -0.148 NA
ATOM      8  C   UNL d   1      57.521   0.654  33.978  0.00  0.00     0.068 A 
ATOM      9  C   UNL d   1      58.865   0.662  31.905  0.00  0.00     0.106 A 
ATOM     10  C   UNL d   1      57.120   0.652  34.698  0.00  0.00     0.044 A 
ATOM     11  C   UNL d   1      58.770   0.674  34.670  0.00  0.00     0.029 A 
ATOM     12  C   UNL d   1      57.545   0.661  35.403  0.00  0.00     0.118 A 
ATOM     13  C   UNL d   1      58.370   0.672  35.389  0.00  0.00     0.116 A 
ENDROOT
BRANCH   3  14
ATOM     14  C   UNL d   1      56.271   0.635  33.288  0.00  0.00     0.080 C 
BRANCH  14  15
ATOM     15  C   UNL d   1      55.867  -0.078  33.206  0.00  0.00     0.020 A 
ATOM     16  C   UNL d   1      56.067  -0.603  32.591  0.00  0.00     0.031 A 
ATOM     17  C   UNL d   1      55.664  -1.316  32.509  0.00  0.00     0.140 A 
ATOM     18  F   UNL d   1      55.866  -1.833  31.899  0.00  0.00    -0.204 F 
ATOM     19  C   UNL d   1      55.053  -1.516  33.040  0.00  0.00     0.030 A 
ATOM     20  C   UNL d   1      54.852  -0.991  33.655  0.00  0.00     0.002 A 
ATOM     21  C   UNL d   1      55.259  -0.276  33.735  0.00  0.00     0.002 A 
ENDBRANCH  14  15
ENDBRANCH   3  14
BRANCH   9  22
ATOM     22  C   UNL d   1      58.772   0.657  31.085  0.00  0.00     0.020 A 
ATOM     23  C   UNL d   1      58.012   0.677  30.757  0.00  0.00     0.004 A 
ATOM     24  C   UNL d   1      57.923   0.672  29.932  0.00  0.00     0.030 A 
ATOM     25  C   UNL d   1      58.578   0.647  29.449  0.00  0.00     0.140 A 
ATOM     26  C   UNL d   1      59.336   0.628  29.774  0.00  0.00     0.030 A 
ATOM     27  F   UNL d   1      58.476   0.643  28.627  0.00  0.00    -0.204 F 
ATOM     28  C   UNL d   1      59.434   0.633  30.596  0.00  0.00     0.004 A 
ENDBRANCH   9  22
BRANCH  12  29
ATOM     29  O   UNL d   1      57.133   0.659  36.135  0.00  0.00    -0.326 OA
ATOM     30  C   UNL d   1      56.307   0.629  36.140  0.00  0.00     0.181 C 
ENDBRANCH  12  29
BRANCH  13  31
ATOM     31  O   UNL d   1      58.795   0.681  36.107  0.00  0.00    -0.326 OA
ATOM     32  C   UNL d   1      59.599   0.485  36.113  0.00  0.00     0.181 C 
ENDBRANCH  13  31
TORSDOF 5
ENDMDL
