MODEL 1
REMARK VINA RESULT:      -1.0      0.000      0.000
REMARK  8 active torsions:
REMARK  status: ('A' for Active; 'I' for Inactive)
REMARK    1  A    between atoms: C_8  and  C_5 
REMARK    2  A    between atoms: S_22  and  C_6 
REMARK    3  A    between atoms: C_9  and  C_7 
REMARK    4  A    between atoms: C_12  and  C_9 
REMARK    5  A    between atoms: C_25  and  S_22 
REMARK    6  A    between atoms: O_24  and  C_26 
REMARK    7  A    between atoms: C_27  and  O_24 
REMARK    8  A    between atoms: C_26  and  C_25 
ROOT
ATOM      1  C   UNL d   1      33.205  21.627 -21.911  0.00  0.00     0.082 A 
ATOM      2  N   UNL d   1      33.221  20.798 -22.068  0.00  0.00    -0.238 NA
ATOM      3  C   UNL d   1      33.213  21.087 -23.493  0.00  0.00     0.092 A 
ATOM      4  C   UNL d   1      33.194  22.159 -22.541  0.00  0.00     0.019 A 
ATOM      5  C   UNL d   1      33.197  21.894 -23.325  0.00  0.00     0.019 A 
ATOM      6  C   UNL d   1      33.225  20.533 -22.849  0.00  0.00     0.120 A 
ATOM      7  C   UNL d   1      33.199  22.052 -21.205  0.00  0.00     0.018 A 
ATOM      8  C   UNL d   1      33.216  20.826 -24.299  0.00  0.00     0.103 C 
ATOM      9  N   UNL d   1      33.220  20.567 -25.097  0.00  0.00    -0.191 NA
ATOM     10  C   UNL d   1      33.179  22.918 -22.218  0.00  0.00     0.002 A 
ATOM     11  C   UNL d   1      33.182  22.857 -21.387  0.00  0.00     0.002 A 
ENDROOT
BRANCH   5  12
ATOM     12  C   UNL d   1      33.185  22.448 -23.951  0.00  0.00     0.030 A 
ATOM     13  S   UNL d   1      33.183  23.241 -23.778  0.00  0.00    -0.086 SA
ATOM     14  C   UNL d   1      33.171  23.662 -24.481  0.00  0.00     0.035 A 
ATOM     15  C   UNL d   1      33.165  23.109 -25.084  0.00  0.00     0.007 A 
ATOM     16  C   UNL d   1      33.175  22.363 -24.747  0.00  0.00     0.007 A 
ENDBRANCH   5  12
BRANCH   6  17
ATOM     17  S   UNL d   1      33.241  19.724 -23.002  0.00  0.00    -0.065 SA
BRANCH  17  18
ATOM     18  C   UNL d   1      32.622  19.233 -22.738  0.00  0.00     0.064 C 
BRANCH  18  19
ATOM     19  C   UNL d   1      32.783  18.443 -22.481  0.00  0.00     0.130 C 
BRANCH  19  20
ATOM     20  O   UNL d   1      32.417  17.810 -22.872  0.00  0.00    -0.303 OA
BRANCH  20  21
ATOM     21  C   UNL d   1      32.857  17.099 -23.004  0.00  0.00     0.123 C 
ATOM     22  C   UNL d   1      32.468  16.422 -23.216  0.00  0.00     0.029 C 
ENDBRANCH  20  21
ENDBRANCH  19  20
ENDBRANCH  18  19
ENDBRANCH  17  18
ENDBRANCH   6  17
BRANCH   7  23
ATOM     23  C   UNL d   1      33.206  21.739 -20.417  0.00  0.00     0.008 C 
BRANCH  23  24
ATOM     24  C   UNL d   1      32.971  22.224 -19.782  0.00  0.00     0.029 A 
ATOM     25  S   UNL d   1      32.874  23.032 -19.726  0.00  0.00    -0.086 SA
ATOM     26  C   UNL d   1      32.630  23.193 -18.950  0.00  0.00     0.035 A 
ATOM     27  C   UNL d   1      32.586  22.488 -18.561  0.00  0.00     0.007 A 
ATOM     28  C   UNL d   1      32.790  21.888 -19.053  0.00  0.00     0.007 A 
ENDBRANCH  23  24
ENDBRANCH   7  23
TORSDOF 8
ENDMDL
MODEL 2
REMARK VINA RESULT:      -0.7      1.392      4.126
REMARK  8 active torsions:
REMARK  status: ('A' for Active; 'I' for Inactive)
REMARK    1  A    between atoms: C_8  and  C_5 
REMARK    2  A    between atoms: S_22  and  C_6 
REMARK    3  A    between atoms: C_9  and  C_7 
REMARK    4  A    between atoms: C_12  and  C_9 
REMARK    5  A    between atoms: C_25  and  S_22 
REMARK    6  A    between atoms: O_24  and  C_26 
REMARK    7  A    between atoms: C_27  and  O_24 
REMARK    8  A    between atoms: C_26  and  C_25 
ROOT
ATOM      1  C   UNL d   1      33.231  20.418 -22.947  0.00  0.00     0.082 A 
ATOM      2  N   UNL d   1      33.234  20.659 -22.139  0.00  0.00    -0.238 NA
ATOM      3  C   UNL d   1      33.229  22.047 -22.574  0.00  0.00     0.092 A 
ATOM      4  C   UNL d   1      33.227  20.989 -23.541  0.00  0.00     0.019 A 
ATOM      5  C   UNL d   1      33.226  21.796 -23.359  0.00  0.00     0.019 A 
ATOM      6  C   UNL d   1      33.233  21.464 -21.956  0.00  0.00     0.120 A 
ATOM      7  C   UNL d   1      33.231  19.671 -23.296  0.00  0.00     0.018 A 
ATOM      8  C   UNL d   1      33.228  22.875 -22.397  0.00  0.00     0.103 C 
ATOM      9  N   UNL d   1      33.227  23.696 -22.222  0.00  0.00    -0.191 NA
ATOM     10  C   UNL d   1      33.225  20.590 -24.263  0.00  0.00     0.002 A 
ATOM     11  C   UNL d   1      33.227  19.769 -24.117  0.00  0.00     0.002 A 
ENDROOT
BRANCH   5  12
ATOM     12  C   UNL d   1      33.222  22.361 -23.975  0.00  0.00     0.030 A 
ATOM     13  S   UNL d   1      33.226  23.151 -23.788  0.00  0.00    -0.086 SA
ATOM     14  C   UNL d   1      33.221  23.585 -24.483  0.00  0.00     0.035 A 
ATOM     15  C   UNL d   1      33.214  23.043 -25.096  0.00  0.00     0.007 A 
ATOM     16  C   UNL d   1      33.215  22.291 -24.772  0.00  0.00     0.007 A 
ENDBRANCH   5  12
BRANCH   6  17
ATOM     17  S   UNL d   1      33.236  21.700 -21.166  0.00  0.00    -0.065 SA
BRANCH  17  18
ATOM     18  C   UNL d   1      32.973  21.181 -20.571  0.00  0.00     0.064 C 
BRANCH  18  19
ATOM     19  C   UNL d   1      32.632  21.485 -19.859  0.00  0.00     0.130 C 
BRANCH  19  20
ATOM     20  O   UNL d   1      33.011  22.109 -19.465  0.00  0.00    -0.303 OA
BRANCH  20  21
ATOM     21  C   UNL d   1      32.840  22.244 -18.648  0.00  0.00     0.123 C 
ATOM     22  C   UNL d   1      32.897  22.993 -18.346  0.00  0.00     0.029 C 
ENDBRANCH  20  21
ENDBRANCH  19  20
ENDBRANCH  18  19
ENDBRANCH  17  18
ENDBRANCH   6  17
BRANCH   7  23
ATOM     23  C   UNL d   1      33.235  18.920 -22.904  0.00  0.00     0.008 C 
BRANCH  23  24
ATOM     24  C   UNL d   1      32.833  18.276 -23.249  0.00  0.00     0.029 A 
ATOM     25  S   UNL d   1      32.070  18.200 -23.525  0.00  0.00    -0.086 SA
ATOM     26  C   UNL d   1      31.991  17.425 -23.807  0.00  0.00     0.035 A 
ATOM     27  C   UNL d   1      32.699  17.056 -23.695  0.00  0.00     0.007 A 
ATOM     28  C   UNL d   1      33.223  17.560 -23.357  0.00  0.00     0.007 A 
ENDBRANCH  23  24
ENDBRANCH   7  23
TORSDOF 8
ENDMDL
MODEL 3
REMARK VINA RESULT:       0.0      1.456      3.496
REMARK  8 active torsions:
REMARK  status: ('A' for Active; 'I' for Inactive)
REMARK    1  A    between atoms: C_8  and  C_5 
REMARK    2  A    between atoms: S_22  and  C_6 
REMARK    3  A    between atoms: C_9  and  C_7 
REMARK    4  A    between atoms: C_12  and  C_9 
REMARK    5  A    between atoms: C_25  and  S_22 
REMARK    6  A    between atoms: O_24  and  C_26 
REMARK    7  A    between atoms: C_27  and  O_24 
REMARK    8  A    between atoms: C_26  and  C_25 
ROOT
ATOM      1  C   UNL d   1      33.099  20.915 -22.024  0.00  0.00     0.082 A 
ATOM      2  N   UNL d   1      33.192  21.405 -22.703  0.00  0.00    -0.238 NA
ATOM      3  C   UNL d   1      33.015  20.235 -23.548  0.00  0.00     0.092 A 
ATOM      4  C   UNL d   1      32.969  20.106 -22.122  0.00  0.00     0.019 A 
ATOM      5  C   UNL d   1      32.927  19.768 -22.876  0.00  0.00     0.019 A 
ATOM      6  C   UNL d   1      33.150  21.069 -23.455  0.00  0.00     0.120 A 
ATOM      7  C   UNL d   1      33.113  21.085 -21.217  0.00  0.00     0.018 A 
ATOM      8  C   UNL d   1      32.971  19.880 -24.316  0.00  0.00     0.103 C 
ATOM      9  N   UNL d   1      32.926  19.528 -25.077  0.00  0.00    -0.191 NA
ATOM     10  C   UNL d   1      32.902  19.777 -21.368  0.00  0.00     0.002 A 
ATOM     11  C   UNL d   1      32.991  20.382 -20.801  0.00  0.00     0.002 A 
ENDROOT
BRANCH   5  12
ATOM     12  C   UNL d   1      32.794  18.946 -22.956  0.00  0.00     0.030 A 
ATOM     13  S   UNL d   1      32.189  18.688 -23.431  0.00  0.00    -0.086 SA
ATOM     14  C   UNL d   1      32.176  17.868 -23.415  0.00  0.00     0.035 A 
ATOM     15  C   UNL d   1      32.786  17.635 -22.921  0.00  0.00     0.007 A 
ATOM     16  C   UNL d   1      33.161  18.307 -22.643  0.00  0.00     0.007 A 
ENDBRANCH   5  12
BRANCH   6  17
ATOM     17  S   UNL d   1      33.240  21.549 -24.119  0.00  0.00    -0.065 SA
BRANCH  17  18
ATOM     18  C   UNL d   1      33.236  22.378 -24.043  0.00  0.00     0.064 C 
BRANCH  18  19
ATOM     19  C   UNL d   1      32.891  22.861 -24.645  0.00  0.00     0.130 C 
BRANCH  19  20
ATOM     20  O   UNL d   1      32.065  22.930 -24.682  0.00  0.00    -0.303 OA
BRANCH  20  21
ATOM     21  C   UNL d   1      31.724  23.666 -24.924  0.00  0.00     0.123 C 
ATOM     22  C   UNL d   1      30.934  23.702 -25.096  0.00  0.00     0.029 C 
ENDBRANCH  20  21
ENDBRANCH  19  20
ENDBRANCH  18  19
ENDBRANCH  17  18
ENDBRANCH   6  17
BRANCH   7  23
ATOM     23  C   UNL d   1      33.231  21.842 -20.854  0.00  0.00     0.008 C 
BRANCH  23  24
ATOM     24  C   UNL d   1      32.818  22.029 -20.154  0.00  0.00     0.029 A 
ATOM     25  S   UNL d   1      33.034  21.978 -19.370  0.00  0.00    -0.086 SA
ATOM     26  C   UNL d   1      32.388  22.244 -18.924  0.00  0.00     0.035 A 
ATOM     27  C   UNL d   1      31.805  22.447 -19.443  0.00  0.00     0.007 A 
ATOM     28  C   UNL d   1      32.051  22.322 -20.196  0.00  0.00     0.007 A 
ENDBRANCH  23  24
ENDBRANCH   7  23
TORSDOF 8
ENDMDL
MODEL 4
REMARK VINA RESULT:       0.2      2.760      4.888
REMARK  8 active torsions:
REMARK  status: ('A' for Active; 'I' for Inactive)
REMARK    1  A    between atoms: C_8  and  C_5 
REMARK    2  A    between atoms: S_22  and  C_6 
REMARK    3  A    between atoms: C_9  and  C_7 
REMARK    4  A    between atoms: C_12  and  C_9 
REMARK    5  A    between atoms: C_25  and  S_22 
REMARK    6  A    between atoms: O_24  and  C_26 
REMARK    7  A    between atoms: C_27  and  O_24 
REMARK    8  A    between atoms: C_26  and  C_25 
ROOT
ATOM      1  C   UNL d   1      31.841  18.500 -23.567  0.00  0.00     0.082 A 
ATOM      2  N   UNL d   1      31.018  18.479 -23.747  0.00  0.00    -0.238 NA
ATOM      3  C   UNL d   1      31.192  17.146 -24.301  0.00  0.00     0.092 A 
ATOM      4  C   UNL d   1      32.314  17.851 -23.756  0.00  0.00     0.019 A 
ATOM      5  C   UNL d   1      31.995  17.180 -24.120  0.00  0.00     0.019 A 
ATOM      6  C   UNL d   1      30.698  17.811 -24.109  0.00  0.00     0.120 A 
ATOM      7  C   UNL d   1      32.311  19.077 -23.213  0.00  0.00     0.018 A 
ATOM      8  C   UNL d   1      30.874  16.455 -24.674  0.00  0.00     0.103 C 
ATOM      9  N   UNL d   1      30.559  15.770 -25.042  0.00  0.00    -0.191 NA
ATOM     10  C   UNL d   1      33.083  18.033 -23.517  0.00  0.00     0.002 A 
ATOM     11  C   UNL d   1      33.087  18.794 -23.178  0.00  0.00     0.002 A 
ENDROOT
BRANCH   5  12
ATOM     12  C   UNL d   1      32.490  16.533 -24.304  0.00  0.00     0.030 A 
ATOM     13  S   UNL d   1      32.774  16.454 -25.061  0.00  0.00    -0.086 SA
ATOM     14  C   UNL d   1      33.241  15.781 -25.097  0.00  0.00     0.035 A 
ATOM     15  C   UNL d   1      33.234  15.453 -24.347  0.00  0.00     0.007 A 
ATOM     16  C   UNL d   1      32.768  15.924 -23.866  0.00  0.00     0.007 A 
ENDBRANCH   5  12
BRANCH   6  17
ATOM     17  S   UNL d   1      29.893  17.790 -24.285  0.00  0.00    -0.065 SA
BRANCH  17  18
ATOM     18  C   UNL d   1      29.336  18.085 -23.741  0.00  0.00     0.064 C 
BRANCH  18  19
ATOM     19  C   UNL d   1      28.543  17.791 -23.740  0.00  0.00     0.130 C 
BRANCH  19  20
ATOM     20  O   UNL d   1      28.014  18.062 -23.160  0.00  0.00    -0.303 OA
BRANCH  20  21
ATOM     21  C   UNL d   1      27.320  17.608 -22.994  0.00  0.00     0.123 C 
ATOM     22  C   UNL d   1      27.339  16.803 -23.076  0.00  0.00     0.029 C 
ENDBRANCH  20  21
ENDBRANCH  19  20
ENDBRANCH  18  19
ENDBRANCH  17  18
ENDBRANCH   6  17
BRANCH   7  23
ATOM     23  C   UNL d   1      32.065  19.836 -22.928  0.00  0.00     0.008 C 
BRANCH  23  24
ATOM     24  C   UNL d   1      32.521  20.223 -22.347  0.00  0.00     0.029 A 
ATOM     25  S   UNL d   1      32.739  19.998 -21.594  0.00  0.00    -0.086 SA
ATOM     26  C   UNL d   1      33.195  20.616 -21.281  0.00  0.00     0.035 A 
ATOM     27  C   UNL d   1      33.240  21.191 -21.844  0.00  0.00     0.007 A 
ATOM     28  C   UNL d   1      32.835  20.967 -22.499  0.00  0.00     0.007 A 
ENDBRANCH  23  24
ENDBRANCH   7  23
TORSDOF 8
ENDMDL
