MODEL 1
REMARK VINA RESULT:      -6.9      0.000      0.000
REMARK  7 active torsions:
REMARK  status: ('A' for Active; 'I' for Inactive)
REMARK    1  A    between atoms: N_2  and  S_1 
REMARK    2  A    between atoms: C_5  and  S_1 
REMARK    3  A    between atoms: C_3  and  N_2 
REMARK    4  A    between atoms: C_4  and  C_3 
REMARK    5  A    between atoms: C_13  and  C_3 
REMARK    6  A    between atoms: C_9  and  C_8 
REMARK    7  A    between atoms: O_22  and  C_19 
ROOT
ATOM      1  C   UNL d   1     -48.145  13.665  22.989  0.00  0.00     0.105 A 
ATOM      2  C   UNL d   1     -46.612  13.170  22.647  0.00  0.00     0.000 A 
ATOM      3  C   UNL d   1     -47.996  12.871  22.831  0.00  0.00     0.013 A 
ATOM      4  C   UNL d   1     -47.527  14.212  22.975  0.00  0.00     0.013 A 
ATOM      5  C   UNL d   1     -46.761  13.964  22.804  0.00  0.00     0.001 A 
ATOM      6  C   UNL d   1     -47.229  12.623  22.660  0.00  0.00     0.001 A 
ENDROOT
BRANCH   1   7
ATOM      7  S   UNL d   1     -48.922  13.918  23.162  0.00  0.00     0.285 S 
ATOM      8  O   UNL d   1     -48.746  14.668  22.841  0.00  0.00    -0.198 OA
ATOM      9  O   UNL d   1     -49.091  13.166  23.482  0.00  0.00    -0.198 OA
BRANCH   7  10
ATOM     10  N   UNL d   1     -49.692  14.169  23.335  0.00  0.00    -0.152 NA
BRANCH  10  11
ATOM     11  C   UNL d   1     -50.314  14.001  22.810  0.00  0.00     0.158 C 
BRANCH  11  12
ATOM     12  C   UNL d   1     -50.448  14.492  22.161  0.00  0.00     0.230 C 
ATOM     13  O   UNL d   1     -50.430  14.183  21.399  0.00  0.00    -0.643 OA
ATOM     14  O   UNL d   1     -50.599  15.294  22.276  0.00  0.00    -0.643 OA
ENDBRANCH  11  12
BRANCH  11  15
ATOM     15  C   UNL d   1     -50.796  13.345  22.938  0.00  0.00     0.025 C 
ATOM     16  C   UNL d   1     -51.011  12.854  22.300  0.00  0.00     0.002 C 
ATOM     17  C   UNL d   1     -51.064  13.176  23.698  0.00  0.00     0.002 C 
ENDBRANCH  11  15
ENDBRANCH  10  11
ENDBRANCH   7  10
ENDBRANCH   1   7
BRANCH   2  18
ATOM     18  C   UNL d   1     -45.846  12.923  22.476  0.00  0.00     0.000 A 
ATOM     19  C   UNL d   1     -45.509  12.306  22.905  0.00  0.00     0.002 A 
ATOM     20  C   UNL d   1     -44.736  12.053  22.735  0.00  0.00     0.024 A 
ATOM     21  C   UNL d   1     -44.302  12.426  22.130  0.00  0.00     0.094 A 
ATOM     22  C   UNL d   1     -44.645  13.048  21.699  0.00  0.00     0.024 A 
ATOM     23  C   UNL d   1     -45.412  13.296  21.871  0.00  0.00     0.002 A 
BRANCH  21  24
ATOM     24  O   UNL d   1     -43.531  12.179  21.956  0.00  0.00    -0.328 OA
ATOM     25  C   UNL d   1     -43.049  12.634  21.450  0.00  0.00     0.181 C 
ENDBRANCH  21  24
ENDBRANCH   2  18
TORSDOF 7
ENDMDL
MODEL 2
REMARK VINA RESULT:      -4.8      9.385     10.138
REMARK  7 active torsions:
REMARK  status: ('A' for Active; 'I' for Inactive)
REMARK    1  A    between atoms: N_2  and  S_1 
REMARK    2  A    between atoms: C_5  and  S_1 
REMARK    3  A    between atoms: C_3  and  N_2 
REMARK    4  A    between atoms: C_4  and  C_3 
REMARK    5  A    between atoms: C_13  and  C_3 
REMARK    6  A    between atoms: C_9  and  C_8 
REMARK    7  A    between atoms: O_22  and  C_19 
ROOT
ATOM      1  C   UNL d   1     -38.887  15.381  18.898  0.00  0.00     0.105 A 
ATOM      2  C   UNL d   1     -38.652  14.853  20.440  0.00  0.00     0.000 A 
ATOM      3  C   UNL d   1     -38.151  15.086  19.123  0.00  0.00     0.013 A 
ATOM      4  C   UNL d   1     -39.504  15.411  19.444  0.00  0.00     0.013 A 
ATOM      5  C   UNL d   1     -39.387  15.148  20.214  0.00  0.00     0.001 A 
ATOM      6  C   UNL d   1     -38.034  14.822  19.894  0.00  0.00     0.001 A 
ENDROOT
BRANCH   1   7
ATOM      7  S   UNL d   1     -39.008  15.650  18.116  0.00  0.00     0.285 S 
ATOM      8  O   UNL d   1     -38.229  15.422  17.921  0.00  0.00    -0.198 OA
ATOM      9  O   UNL d   1     -39.785  15.874  18.318  0.00  0.00    -0.198 OA
BRANCH   7  10
ATOM     10  N   UNL d   1     -39.128  15.916  17.341  0.00  0.00    -0.152 NA
BRANCH  10  11
ATOM     11  C   UNL d   1     -39.399  15.392  16.756  0.00  0.00     0.158 C 
BRANCH  11  12
ATOM     12  C   UNL d   1     -40.206  15.232  16.691  0.00  0.00     0.230 C 
ATOM     13  O   UNL d   1     -40.485  14.466  16.799  0.00  0.00    -0.643 OA
ATOM     14  O   UNL d   1     -40.733  15.841  16.516  0.00  0.00    -0.643 OA
ENDBRANCH  11  12
BRANCH  11  15
ATOM     15  C   UNL d   1     -38.865  15.033  16.244  0.00  0.00     0.025 C 
ATOM     16  C   UNL d   1     -38.819  14.202  16.201  0.00  0.00     0.002 C 
ATOM     17  C   UNL d   1     -38.374  15.498  15.772  0.00  0.00     0.002 C 
ENDBRANCH  11  15
ENDBRANCH  10  11
ENDBRANCH   7  10
ENDBRANCH   1   7
BRANCH   2  18
ATOM     18  C   UNL d   1     -38.535  14.589  21.211  0.00  0.00     0.000 A 
ATOM     19  C   UNL d   1     -38.458  15.133  21.824  0.00  0.00     0.002 A 
ATOM     20  C   UNL d   1     -38.339  14.871  22.603  0.00  0.00     0.024 A 
ATOM     21  C   UNL d   1     -38.299  14.054  22.763  0.00  0.00     0.094 A 
ATOM     22  C   UNL d   1     -38.377  13.508  22.142  0.00  0.00     0.024 A 
ATOM     23  C   UNL d   1     -38.495  13.772  21.370  0.00  0.00     0.002 A 
BRANCH  21  24
ATOM     24  O   UNL d   1     -38.181  13.787  23.538  0.00  0.00    -0.328 OA
ATOM     25  C   UNL d   1     -38.145  12.968  23.697  0.00  0.00     0.181 C 
ENDBRANCH  21  24
ENDBRANCH   2  18
TORSDOF 7
ENDMDL
