MODEL 1
REMARK VINA RESULT:      -2.2      0.000      0.000
REMARK  7 active torsions:
REMARK  status: ('A' for Active; 'I' for Inactive)
REMARK       I    between atoms: C_2  and  N_1 
REMARK    1  A    between atoms: C_3  and  N_1 
REMARK    2  A    between atoms: C_4  and  C_2 
REMARK    3  A    between atoms: N_9  and  C_3 
REMARK    4  A    between atoms: O_19  and  C_6 
REMARK    5  A    between atoms: C_7  and  C_18 
REMARK    6  A    between atoms: C_18  and  N_9 
REMARK    7  A    between atoms: O_20  and  C_12 
ROOT
ATOM      1  N   UNL d   1      33.238  19.290 -23.693  0.00  0.00    -0.179 NA
ATOM      2  C   UNL d   1      32.962  18.795 -24.296  0.00  0.00     0.281 C 
ATOM      3  O   UNL d   1      33.142  18.961 -25.087  0.00  0.00    -0.265 OA
ENDROOT
BRANCH   2   4
ATOM      4  C   UNL d   1      32.505  18.131 -24.115  0.00  0.00     0.060 A 
ATOM      5  C   UNL d   1      31.688  18.137 -24.245  0.00  0.00     0.031 A 
ATOM      6  C   UNL d   1      31.234  17.472 -24.063  0.00  0.00     0.116 A 
ATOM      7  C   UNL d   1      31.601  16.799 -23.749  0.00  0.00     0.116 A 
ATOM      8  C   UNL d   1      32.419  16.793 -23.619  0.00  0.00     0.026 A 
ATOM      9  C   UNL d   1      32.863  17.466 -23.805  0.00  0.00     0.007 A 
BRANCH   6  10
ATOM     10  O   UNL d   1      30.417  17.478 -24.193  0.00  0.00    -0.326 OA
ATOM     11  C   UNL d   1      30.067  18.087 -24.625  0.00  0.00     0.181 C 
ENDBRANCH   6  10
BRANCH   7  12
ATOM     12  O   UNL d   1      31.142  16.132 -23.568  0.00  0.00    -0.326 OA
ATOM     13  C   UNL d   1      31.481  15.487 -23.182  0.00  0.00     0.181 C 
ENDBRANCH   7  12
ENDBRANCH   2   4
BRANCH   1  14
ATOM     14  C   UNL d   1      33.055  19.120 -22.909  0.00  0.00     0.224 C 
ATOM     15  S   UNL d   1      33.240  18.420 -22.498  0.00  0.00    -0.037 SA
BRANCH  14  16
ATOM     16  N   UNL d   1      32.650  19.620 -22.380  0.00  0.00    -0.214 NA
BRANCH  16  17
ATOM     17  C   UNL d   1      32.994  20.217 -21.920  0.00  0.00     0.126 C 
BRANCH  17  18
ATOM     18  C   UNL d   1      32.512  20.741 -21.507  0.00  0.00     0.119 A 
ATOM     19  O   UNL d   1      31.762  20.659 -21.178  0.00  0.00    -0.304 OA
ATOM     20  C   UNL d   1      31.560  21.377 -20.830  0.00  0.00     0.123 A 
ATOM     21  C   UNL d   1      32.185  21.900 -20.944  0.00  0.00     0.029 A 
ATOM     22  C   UNL d   1      32.774  21.509 -21.362  0.00  0.00     0.028 A 
ENDBRANCH  17  18
ENDBRANCH  16  17
ENDBRANCH  14  16
ENDBRANCH   1  14
TORSDOF 7
ENDMDL
MODEL 2
REMARK VINA RESULT:      -0.2      2.290      4.329
REMARK  7 active torsions:
REMARK  status: ('A' for Active; 'I' for Inactive)
REMARK       I    between atoms: C_2  and  N_1 
REMARK    1  A    between atoms: C_3  and  N_1 
REMARK    2  A    between atoms: C_4  and  C_2 
REMARK    3  A    between atoms: N_9  and  C_3 
REMARK    4  A    between atoms: O_19  and  C_6 
REMARK    5  A    between atoms: C_7  and  C_18 
REMARK    6  A    between atoms: C_18  and  N_9 
REMARK    7  A    between atoms: O_20  and  C_12 
ROOT
ATOM      1  N   UNL d   1      31.967  15.656 -23.752  0.00  0.00    -0.179 NA
ATOM      2  C   UNL d   1      32.634  16.092 -23.529  0.00  0.00     0.281 C 
ATOM      3  O   UNL d   1      33.172  15.780 -22.981  0.00  0.00    -0.265 OA
ENDROOT
BRANCH   2   4
ATOM      4  C   UNL d   1      32.770  16.841 -23.848  0.00  0.00     0.060 A 
ATOM      5  C   UNL d   1      32.837  17.501 -23.354  0.00  0.00     0.031 A 
ATOM      6  C   UNL d   1      32.973  18.249 -23.677  0.00  0.00     0.116 A 
ATOM      7  C   UNL d   1      33.041  18.334 -24.499  0.00  0.00     0.116 A 
ATOM      8  C   UNL d   1      32.974  17.674 -24.993  0.00  0.00     0.026 A 
ATOM      9  C   UNL d   1      32.838  16.929 -24.657  0.00  0.00     0.007 A 
BRANCH   6  10
ATOM     10  O   UNL d   1      33.040  18.910 -23.183  0.00  0.00    -0.326 OA
ATOM     11  C   UNL d   1      32.697  18.907 -22.434  0.00  0.00     0.181 C 
ENDBRANCH   6  10
BRANCH   7  12
ATOM     12  O   UNL d   1      33.177  19.087 -24.819  0.00  0.00    -0.326 OA
ATOM     13  C   UNL d   1      32.547  19.540 -25.097  0.00  0.00     0.181 C 
ENDBRANCH   7  12
ENDBRANCH   2   4
BRANCH   1  14
ATOM     14  C   UNL d   1      31.436  15.971 -24.295  0.00  0.00     0.224 C 
ATOM     15  S   UNL d   1      31.590  16.143 -25.096  0.00  0.00    -0.037 SA
BRANCH  14  16
ATOM     16  N   UNL d   1      30.643  16.178 -24.145  0.00  0.00    -0.214 NA
BRANCH  16  17
ATOM     17  C   UNL d   1      30.046  15.657 -23.906  0.00  0.00     0.126 C 
BRANCH  17  18
ATOM     18  C   UNL d   1      29.297  15.951 -23.728  0.00  0.00     0.119 A 
ATOM     19  O   UNL d   1      28.687  16.230 -24.203  0.00  0.00    -0.304 OA
ATOM     20  C   UNL d   1      28.065  16.451 -23.711  0.00  0.00     0.123 A 
ATOM     21  C   UNL d   1      28.293  16.308 -22.934  0.00  0.00     0.029 A 
ATOM     22  C   UNL d   1      29.054  15.998 -22.941  0.00  0.00     0.028 A 
ENDBRANCH  17  18
ENDBRANCH  16  17
ENDBRANCH  14  16
ENDBRANCH   1  14
TORSDOF 7
ENDMDL
MODEL 3
REMARK VINA RESULT:       0.4      1.241      4.689
REMARK  7 active torsions:
REMARK  status: ('A' for Active; 'I' for Inactive)
REMARK       I    between atoms: C_2  and  N_1 
REMARK    1  A    between atoms: C_3  and  N_1 
REMARK    2  A    between atoms: C_4  and  C_2 
REMARK    3  A    between atoms: N_9  and  C_3 
REMARK    4  A    between atoms: O_19  and  C_6 
REMARK    5  A    between atoms: C_7  and  C_18 
REMARK    6  A    between atoms: C_18  and  N_9 
REMARK    7  A    between atoms: O_20  and  C_12 
ROOT
ATOM      1  N   UNL d   1      33.009  19.279 -21.968  0.00  0.00    -0.179 NA
ATOM      2  C   UNL d   1      33.037  19.919 -21.445  0.00  0.00     0.281 C 
ATOM      3  O   UNL d   1      33.213  19.796 -20.644  0.00  0.00    -0.265 OA
ENDROOT
BRANCH   2   4
ATOM      4  C   UNL d   1      32.891  20.685 -21.714  0.00  0.00     0.060 A 
ATOM      5  C   UNL d   1      32.393  21.191 -21.289  0.00  0.00     0.031 A 
ATOM      6  C   UNL d   1      32.249  21.958 -21.561  0.00  0.00     0.116 A 
ATOM      7  C   UNL d   1      32.606  22.217 -22.262  0.00  0.00     0.116 A 
ATOM      8  C   UNL d   1      33.104  21.711 -22.688  0.00  0.00     0.026 A 
ATOM      9  C   UNL d   1      33.241  20.945 -22.405  0.00  0.00     0.007 A 
BRANCH   6  10
ATOM     10  O   UNL d   1      31.751  22.463 -21.135  0.00  0.00    -0.326 OA
ATOM     11  C   UNL d   1      31.692  22.399 -20.315  0.00  0.00     0.181 C 
ENDBRANCH   6  10
BRANCH   7  12
ATOM     12  O   UNL d   1      32.459  22.987 -22.532  0.00  0.00    -0.326 OA
ATOM     13  C   UNL d   1      32.705  23.217 -23.286  0.00  0.00     0.181 C 
ENDBRANCH   7  12
ENDBRANCH   2   4
BRANCH   1  14
ATOM     14  C   UNL d   1      32.834  19.407 -22.761  0.00  0.00     0.224 C 
ATOM     15  S   UNL d   1      33.239  19.916 -23.282  0.00  0.00    -0.037 SA
BRANCH  14  16
ATOM     16  N   UNL d   1      32.217  19.050 -23.192  0.00  0.00    -0.214 NA
BRANCH  16  17
ATOM     17  C   UNL d   1      32.295  18.403 -23.703  0.00  0.00     0.126 C 
BRANCH  17  18
ATOM     18  C   UNL d   1      31.631  17.962 -23.907  0.00  0.00     0.119 A 
ATOM     19  O   UNL d   1      30.855  18.178 -24.075  0.00  0.00    -0.304 OA
ATOM     20  C   UNL d   1      30.433  17.492 -24.243  0.00  0.00     0.123 A 
ATOM     21  C   UNL d   1      30.949  16.855 -24.179  0.00  0.00     0.029 A 
ATOM     22  C   UNL d   1      31.689  17.142 -23.971  0.00  0.00     0.028 A 
ENDBRANCH  17  18
ENDBRANCH  16  17
ENDBRANCH  14  16
ENDBRANCH   1  14
TORSDOF 7
ENDMDL
