MODEL 1
REMARK VINA RESULT:     101.9      0.000      0.000
REMARK  9 active torsions:
REMARK  status: ('A' for Active; 'I' for Inactive)
REMARK    1  A    between atoms: C_8  and  N_1 
REMARK    2  A    between atoms: C_6  and  C_2 
REMARK    3  A    between atoms: O_12  and  C_11 
REMARK    4  A    between atoms: C_18  and  O_12 
REMARK    5  A    between atoms: C_14  and  C_18 
REMARK    6  A    between atoms: C_16  and  C_14 
REMARK    7  A    between atoms: N_15  and  C_16 
REMARK    8  A    between atoms: C_23  and  N_15 
REMARK    9  A    between atoms: C_24  and  N_15 
ROOT
ATOM      1  N   UNL d   1      59.217  48.309  50.874  0.00  0.00    -0.306 N 
ATOM      2  C   UNL d   1      60.600  48.436  51.034  0.00  0.00     0.057 A 
ATOM      3  C   UNL d   1      59.853  48.894  50.986  0.00  0.00     0.067 A 
ATOM      4  C   UNL d   1      59.577  47.523  50.855  0.00  0.00     0.064 A 
ATOM      5  C   UNL d   1      60.393  47.598  50.949  0.00  0.00     0.023 A 
ATOM      6  C   UNL d   1      59.250  46.792  50.765  0.00  0.00     0.020 A 
ATOM      7  C   UNL d   1      60.863  46.939  50.952  0.00  0.00     0.026 A 
ATOM      8  C   UNL d   1      60.531  46.205  50.861  0.00  0.00     0.100 A 
ATOM      9  C   UNL d   1      59.773  49.706  51.038  0.00  0.00     0.019 C 
ATOM     10  C   UNL d   1      59.714  46.131  50.767  0.00  0.00     0.026 A 
ENDROOT
BRANCH   8  11
ATOM     11  O   UNL d   1      61.006  45.487  50.860  0.00  0.00    -0.302 OA
BRANCH  11  12
ATOM     12  C   UNL d   1      61.294  45.169  50.177  0.00  0.00     0.166 C 
BRANCH  12  13
ATOM     13  C   UNL d   1      61.697  44.406  50.164  0.00  0.00     0.238 C 
ATOM     14  O   UNL d   1      62.176  44.205  49.457  0.00  0.00    -0.283 OA
BRANCH  13  15
ATOM     15  C   UNL d   1      61.643  43.883  50.778  0.00  0.00     0.125 C 
BRANCH  15  16
ATOM     16  N   UNL d   1      62.179  43.215  50.853  0.00  0.00    -0.300 N 
BRANCH  16  17
ATOM     17  C   UNL d   1      62.845  42.933  50.404  0.00  0.00     0.080 C 
ATOM     18  C   UNL d   1      63.158  42.308  50.827  0.00  0.00     0.021 C 
ENDBRANCH  16  17
BRANCH  16  19
ATOM     19  C   UNL d   1      62.114  42.677  51.459  0.00  0.00     0.080 C 
ATOM     20  C   UNL d   1      62.680  42.039  51.564  0.00  0.00     0.021 C 
ENDBRANCH  16  19
ENDBRANCH  15  16
ENDBRANCH  13  15
ENDBRANCH  12  13
ENDBRANCH  11  12
ENDBRANCH   8  11
BRANCH   2  21
ATOM     21  C   UNL d   1      61.324  48.795  51.139  0.00  0.00     0.197 C 
ATOM     22  O   UNL d   1      61.834  49.170  50.514  0.00  0.00    -0.286 OA
ATOM     23  C   UNL d   1      61.549  48.777  51.924  0.00  0.00     0.045 C 
ENDBRANCH   2  21
BRANCH   1  24
ATOM     24  C   UNL d   1      58.440  48.532  50.806  0.00  0.00     0.064 A 
ATOM     25  C   UNL d   1      57.760  48.023  50.748  0.00  0.00     0.018 A 
ATOM     26  C   UNL d   1      56.970  48.330  50.679  0.00  0.00     0.002 A 
ATOM     27  C   UNL d   1      56.854  49.146  50.667  0.00  0.00     0.000 A 
ATOM     28  C   UNL d   1      57.486  49.691  50.720  0.00  0.00     0.002 A 
ATOM     29  C   UNL d   1      58.279  49.388  50.790  0.00  0.00     0.018 A 
ENDBRANCH   1  24
TORSDOF 9
ENDMDL
MODEL 2
REMARK VINA RESULT:     103.7      1.380      5.582
REMARK  9 active torsions:
REMARK  status: ('A' for Active; 'I' for Inactive)
REMARK    1  A    between atoms: C_8  and  N_1 
REMARK    2  A    between atoms: C_6  and  C_2 
REMARK    3  A    between atoms: O_12  and  C_11 
REMARK    4  A    between atoms: C_18  and  O_12 
REMARK    5  A    between atoms: C_14  and  C_18 
REMARK    6  A    between atoms: C_16  and  C_14 
REMARK    7  A    between atoms: N_15  and  C_16 
REMARK    8  A    between atoms: C_23  and  N_15 
REMARK    9  A    between atoms: C_24  and  N_15 
ROOT
ATOM      1  N   UNL d   1      61.582  44.635  50.488  0.00  0.00    -0.306 N 
ATOM      2  C   UNL d   1      60.551  45.308  51.150  0.00  0.00     0.057 A 
ATOM      3  C   UNL d   1      60.924  44.520  51.046  0.00  0.00     0.067 A 
ATOM      4  C   UNL d   1      61.600  45.470  50.264  0.00  0.00     0.064 A 
ATOM      5  C   UNL d   1      60.992  45.867  50.655  0.00  0.00     0.023 A 
ATOM      6  C   UNL d   1      62.090  45.876  49.769  0.00  0.00     0.020 A 
ATOM      7  C   UNL d   1      60.887  46.661  50.541  0.00  0.00     0.026 A 
ATOM      8  C   UNL d   1      61.381  47.066  50.042  0.00  0.00     0.100 A 
ATOM      9  C   UNL d   1      60.697  43.821  51.404  0.00  0.00     0.019 C 
ATOM     10  C   UNL d   1      61.989  46.669  49.651  0.00  0.00     0.026 A 
ENDROOT
BRANCH   8  11
ATOM     11  O   UNL d   1      61.293  47.912  49.901  0.00  0.00    -0.302 OA
BRANCH  11  12
ATOM     12  C   UNL d   1      61.084  48.421  50.491  0.00  0.00     0.166 C 
BRANCH  12  13
ATOM     13  C   UNL d   1      61.036  49.273  50.361  0.00  0.00     0.238 C 
ATOM     14  O   UNL d   1      61.716  49.669  49.973  0.00  0.00    -0.283 OA
BRANCH  13  15
ATOM     15  C   UNL d   1      60.390  49.705  50.586  0.00  0.00     0.125 C 
BRANCH  15  16
ATOM     16  N   UNL d   1      60.084  49.678  51.388  0.00  0.00    -0.300 N 
BRANCH  16  17
ATOM     17  C   UNL d   1      60.441  49.683  52.162  0.00  0.00     0.080 C 
ATOM     18  C   UNL d   1      61.249  49.707  52.041  0.00  0.00     0.021 C 
ENDBRANCH  16  17
BRANCH  16  19
ATOM     19  C   UNL d   1      59.287  49.639  51.544  0.00  0.00     0.080 C 
ATOM     20  C   UNL d   1      58.719  49.382  50.953  0.00  0.00     0.021 C 
ENDBRANCH  16  19
ENDBRANCH  15  16
ENDBRANCH  13  15
ENDBRANCH  12  13
ENDBRANCH  11  12
ENDBRANCH   8  11
BRANCH   2  21
ATOM     21  C   UNL d   1      59.909  45.423  51.638  0.00  0.00     0.197 C 
ATOM     22  O   UNL d   1      59.059  45.226  51.464  0.00  0.00    -0.286 OA
ATOM     23  C   UNL d   1      60.136  45.759  52.347  0.00  0.00     0.045 C 
ENDBRANCH   2  21
BRANCH   1  24
ATOM     24  C   UNL d   1      62.059  44.020  50.257  0.00  0.00     0.064 A 
ATOM     25  C   UNL d   1      62.154  43.706  49.472  0.00  0.00     0.018 A 
ATOM     26  C   UNL d   1      62.675  43.056  49.305  0.00  0.00     0.002 A 
ATOM     27  C   UNL d   1      63.105  42.715  49.920  0.00  0.00     0.000 A 
ATOM     28  C   UNL d   1      63.049  42.983  50.710  0.00  0.00     0.002 A 
ATOM     29  C   UNL d   1      62.528  43.635  50.882  0.00  0.00     0.018 A 
ENDBRANCH   1  24
TORSDOF 9
ENDMDL
