MODEL 1
REMARK VINA RESULT:      63.5      0.000      0.000
REMARK  2 active torsions:
REMARK  status: ('A' for Active; 'I' for Inactive)
REMARK    1  A    between atoms: C_9  and  C_4 
REMARK    2  A    between atoms: N_6  and  C_8 
ROOT
ATOM      1  N   UNL d   1     -55.075-100.508 -43.610  0.00  0.00    -0.211 NA
ATOM      2  C   UNL d   1     -55.103-100.343 -44.418  0.00  0.00     0.140 A 
ATOM      3  C   UNL d   1     -54.982-100.948 -44.957  0.00  0.00     0.051 A 
ATOM      4  C   UNL d   1     -54.928-101.273 -43.345  0.00  0.00     0.183 A 
ATOM      5  C   UNL d   1     -54.832-101.721 -44.701  0.00  0.00     0.104 A 
ATOM      6  O   UNL d   1     -54.805-101.886 -43.884  0.00  0.00    -0.289 OA
ATOM      7  S   UNL d   1     -55.251 -99.578 -44.679  0.00  0.00    -0.057 SA
ATOM      8  C   UNL d   1     -55.009-100.788 -45.765  0.00  0.00     0.004 A 
ATOM      9  C   UNL d   1     -54.711-102.327 -45.240  0.00  0.00     0.025 A 
ATOM     10  C   UNL d   1     -54.887-101.393 -46.317  0.00  0.00     0.000 A 
ATOM     11  C   UNL d   1     -54.739-102.158 -46.051  0.00  0.00     0.002 A 
ENDROOT
BRANCH   4  12
ATOM     12  C   UNL d   1     -54.902-101.429 -42.532  0.00  0.00     0.041 A 
ATOM     13  C   UNL d   1     -54.845-100.794 -42.002  0.00  0.00     0.005 A 
ATOM     14  C   UNL d   1     -54.819-100.949 -41.194  0.00  0.00     0.024 A 
ATOM     15  C   UNL d   1     -54.849-101.726 -40.911  0.00  0.00     0.127 A 
ATOM     16  C   UNL d   1     -54.907-102.355 -41.452  0.00  0.00     0.024 A 
ATOM     17  C   UNL d   1     -54.932-102.202 -42.261  0.00  0.00     0.005 A 
BRANCH  15  18
ATOM     18  N   UNL d   1     -54.823-101.872 -40.099  0.00  0.00    -0.114 N 
ATOM     19  O   UNL d   1     -54.713-101.253 -39.568  0.00  0.00    -0.532 OA
ATOM     20  O   UNL d   1     -54.907-102.644 -39.813  0.00  0.00    -0.532 OA
ENDBRANCH  15  18
ENDBRANCH   4  12
TORSDOF 2
ENDMDL
