MODEL 1
REMARK VINA RESULT:      -4.2      0.000      0.000
REMARK  5 active torsions:
REMARK  status: ('A' for Active; 'I' for Inactive)
REMARK    1  A    between atoms: C_6  and  C_1 
REMARK    2  A    between atoms: C_7  and  C_4 
REMARK    3  A    between atoms: O_14  and  C_6 
REMARK    4  A    between atoms: O_15  and  C_9 
REMARK    5  A    between atoms: O_16  and  C_10 
ROOT
ATOM      1  C   UNL d   1      57.455   0.087  31.476  0.00  0.00     0.027 A 
ATOM      2  C   UNL d   1      56.816  -0.369  31.742  0.00  0.00     0.028 A 
ATOM      3  C   UNL d   1      56.554  -0.300  32.517  0.00  0.00     0.116 A 
ATOM      4  C   UNL d   1      56.927   0.227  33.035  0.00  0.00     0.116 A 
ATOM      5  C   UNL d   1      57.828   0.614  31.995  0.00  0.00     0.004 A 
ATOM      6  C   UNL d   1      57.560   0.681  32.775  0.00  0.00     0.026 A 
ENDROOT
BRANCH   1   7
ATOM      7  C   UNL d   1      57.720   0.019  30.698  0.00  0.00     0.127 A 
ATOM      8  C   UNL d   1      58.421  -0.340  30.461  0.00  0.00     0.054 A 
ATOM      9  C   UNL d   1      58.468  -0.284  29.638  0.00  0.00     0.173 A 
ATOM     10  N   UNL d   1      57.794   0.110  29.373  0.00  0.00    -0.121 NA
ATOM     11  O   UNL d   1      57.335   0.295  30.034  0.00  0.00    -0.211 OA
BRANCH   9  12
ATOM     12  C   UNL d   1      59.075  -0.569  29.166  0.00  0.00     0.316 C 
ATOM     13  O   UNL d   1      59.008  -1.313  28.807  0.00  0.00    -0.257 OA
BRANCH  12  14
ATOM     14  O   UNL d   1      59.754  -0.117  29.050  0.00  0.00    -0.294 OA
ATOM     15  C   UNL d   1      60.388  -0.435  28.639  0.00  0.00     0.185 C 
ENDBRANCH  12  14
ENDBRANCH   9  12
ENDBRANCH   1   7
BRANCH   3  16
ATOM     16  O   UNL d   1      55.920  -0.754  32.777  0.00  0.00    -0.326 OA
ATOM     17  C   UNL d   1      55.890  -1.555  32.599  0.00  0.00     0.181 C 
ENDBRANCH   3  16
BRANCH   4  18
ATOM     18  O   UNL d   1      56.662   0.293  33.808  0.00  0.00    -0.326 OA
ATOM     19  C   UNL d   1      57.125   0.682  34.367  0.00  0.00     0.181 C 
ENDBRANCH   4  18
TORSDOF 5
ENDMDL
MODEL 2
REMARK VINA RESULT:      -3.7      0.907      1.559
REMARK  5 active torsions:
REMARK  status: ('A' for Active; 'I' for Inactive)
REMARK    1  A    between atoms: C_6  and  C_1 
REMARK    2  A    between atoms: C_7  and  C_4 
REMARK    3  A    between atoms: O_14  and  C_6 
REMARK    4  A    between atoms: O_15  and  C_9 
REMARK    5  A    between atoms: O_16  and  C_10 
ROOT
ATOM      1  C   UNL d   1      57.012  -0.083  31.830  0.00  0.00     0.027 A 
ATOM      2  C   UNL d   1      57.310   0.311  32.495  0.00  0.00     0.028 A 
ATOM      3  C   UNL d   1      56.898   0.290  33.205  0.00  0.00     0.116 A 
ATOM      4  C   UNL d   1      56.184  -0.125  33.259  0.00  0.00     0.116 A 
ATOM      5  C   UNL d   1      56.298  -0.499  31.883  0.00  0.00     0.004 A 
ATOM      6  C   UNL d   1      55.886  -0.517  32.602  0.00  0.00     0.026 A 
ENDROOT
BRANCH   1   7
ATOM      7  C   UNL d   1      57.424  -0.064  31.115  0.00  0.00     0.127 A 
ATOM      8  C   UNL d   1      57.754  -0.714  30.736  0.00  0.00     0.054 A 
ATOM      9  C   UNL d   1      58.113  -0.446  30.040  0.00  0.00     0.173 A 
ATOM     10  N   UNL d   1      58.000   0.370  29.997  0.00  0.00    -0.121 NA
ATOM     11  O   UNL d   1      57.573   0.600  30.666  0.00  0.00    -0.211 OA
BRANCH   9  12
ATOM     12  C   UNL d   1      58.510  -0.906  29.491  0.00  0.00     0.316 C 
ATOM     13  O   UNL d   1      58.755  -0.576  28.772  0.00  0.00    -0.257 OA
BRANCH  12  14
ATOM     14  O   UNL d   1      58.666  -1.699  29.653  0.00  0.00    -0.294 OA
ATOM     15  C   UNL d   1      59.032  -2.164  29.085  0.00  0.00     0.185 C 
ENDBRANCH  12  14
ENDBRANCH   9  12
ENDBRANCH   1   7
BRANCH   3  16
ATOM     16  O   UNL d   1      57.196   0.682  33.863  0.00  0.00    -0.326 OA
ATOM     17  C   UNL d   1      58.004   0.679  34.010  0.00  0.00     0.181 C 
ENDBRANCH   3  16
BRANCH   4  18
ATOM     18  O   UNL d   1      55.776  -0.144  33.969  0.00  0.00    -0.326 OA
ATOM     19  C   UNL d   1      54.971   0.026  33.983  0.00  0.00     0.181 C 
ENDBRANCH   4  18
TORSDOF 5
ENDMDL
MODEL 3
REMARK VINA RESULT:      -3.6      1.032      4.334
REMARK  5 active torsions:
REMARK  status: ('A' for Active; 'I' for Inactive)
REMARK    1  A    between atoms: C_6  and  C_1 
REMARK    2  A    between atoms: C_7  and  C_4 
REMARK    3  A    between atoms: O_14  and  C_6 
REMARK    4  A    between atoms: O_15  and  C_9 
REMARK    5  A    between atoms: O_16  and  C_10 
ROOT
ATOM      1  C   UNL d   1      58.192  -0.373  30.268  0.00  0.00     0.027 A 
ATOM      2  C   UNL d   1      58.848   0.104  30.103  0.00  0.00     0.028 A 
ATOM      3  C   UNL d   1      59.440  -0.165  29.602  0.00  0.00     0.116 A 
ATOM      4  C   UNL d   1      59.381  -0.916  29.258  0.00  0.00     0.116 A 
ATOM      5  C   UNL d   1      58.133  -1.124  29.924  0.00  0.00     0.004 A 
ATOM      6  C   UNL d   1      58.732  -1.393  29.419  0.00  0.00     0.026 A 
ENDROOT
BRANCH   1   7
ATOM      7  C   UNL d   1      57.596  -0.104  30.771  0.00  0.00     0.127 A 
ATOM      8  C   UNL d   1      57.341  -0.482  31.455  0.00  0.00     0.054 A 
ATOM      9  C   UNL d   1      56.739  -0.024  31.788  0.00  0.00     0.173 A 
ATOM     10  N   UNL d   1      56.628   0.635  31.305  0.00  0.00    -0.121 NA
ATOM     11  O   UNL d   1      57.161   0.579  30.678  0.00  0.00    -0.211 OA
BRANCH   9  12
ATOM     12  C   UNL d   1      56.325  -0.192  32.476  0.00  0.00     0.316 C 
ATOM     13  O   UNL d   1      55.966  -0.933  32.574  0.00  0.00    -0.257 OA
BRANCH  12  14
ATOM     14  O   UNL d   1      56.265   0.374  33.071  0.00  0.00    -0.294 OA
ATOM     15  C   UNL d   1      55.766   0.242  33.708  0.00  0.00     0.185 C 
ENDBRANCH  12  14
ENDBRANCH   9  12
ENDBRANCH   1   7
BRANCH   3  16
ATOM     16  O   UNL d   1      60.089   0.311  29.441  0.00  0.00    -0.326 OA
ATOM     17  C   UNL d   1      60.488   0.682  30.056  0.00  0.00     0.181 C 
ENDBRANCH   3  16
BRANCH   4  18
ATOM     18  O   UNL d   1      59.973  -1.182  28.758  0.00  0.00    -0.326 OA
ATOM     19  C   UNL d   1      59.940  -1.947  28.455  0.00  0.00     0.181 C 
ENDBRANCH   4  18
TORSDOF 5
ENDMDL
MODEL 4
REMARK VINA RESULT:      -3.3      1.184      1.605
REMARK  5 active torsions:
REMARK  status: ('A' for Active; 'I' for Inactive)
REMARK    1  A    between atoms: C_6  and  C_1 
REMARK    2  A    between atoms: C_7  and  C_4 
REMARK    3  A    between atoms: O_14  and  C_6 
REMARK    4  A    between atoms: O_15  and  C_9 
REMARK    5  A    between atoms: O_16  and  C_10 
ROOT
ATOM      1  C   UNL d   1      56.831   0.045  32.591  0.00  0.00     0.027 A 
ATOM      2  C   UNL d   1      56.081  -0.187  32.855  0.00  0.00     0.028 A 
ATOM      3  C   UNL d   1      55.828   0.014  33.610  0.00  0.00     0.116 A 
ATOM      4  C   UNL d   1      56.323   0.450  34.110  0.00  0.00     0.116 A 
ATOM      5  C   UNL d   1      57.326   0.481  33.092  0.00  0.00     0.004 A 
ATOM      6  C   UNL d   1      57.068   0.681  33.852  0.00  0.00     0.026 A 
ENDROOT
BRANCH   1   7
ATOM      7  C   UNL d   1      57.087  -0.155  31.833  0.00  0.00     0.127 A 
ATOM      8  C   UNL d   1      57.530   0.325  31.335  0.00  0.00     0.054 A 
ATOM      9  C   UNL d   1      57.663  -0.091  30.633  0.00  0.00     0.173 A 
ATOM     10  N   UNL d   1      57.300  -0.828  30.705  0.00  0.00    -0.121 NA
ATOM     11  O   UNL d   1      56.945  -0.861  31.450  0.00  0.00    -0.211 OA
BRANCH   9  12
ATOM     12  C   UNL d   1      58.081   0.178  29.981  0.00  0.00     0.316 C 
ATOM     13  O   UNL d   1      58.892   0.339  30.045  0.00  0.00    -0.257 OA
BRANCH  12  14
ATOM     14  O   UNL d   1      57.697   0.288  29.261  0.00  0.00    -0.294 OA
ATOM     15  C   UNL d   1      58.129   0.511  28.601  0.00  0.00     0.185 C 
ENDBRANCH  12  14
ENDBRANCH   9  12
ENDBRANCH   1   7
BRANCH   3  16
ATOM     16  O   UNL d   1      55.084  -0.218  33.868  0.00  0.00    -0.326 OA
ATOM     17  C   UNL d   1      54.417  -0.010  33.435  0.00  0.00     0.181 C 
ENDBRANCH   3  16
BRANCH   4  18
ATOM     18  O   UNL d   1      56.068   0.648  34.863  0.00  0.00    -0.326 OA
ATOM     19  C   UNL d   1      56.603   0.652  35.489  0.00  0.00     0.181 C 
ENDBRANCH   4  18
TORSDOF 5
ENDMDL
MODEL 5
REMARK VINA RESULT:      -3.1      1.765      4.574
REMARK  5 active torsions:
REMARK  status: ('A' for Active; 'I' for Inactive)
REMARK    1  A    between atoms: C_6  and  C_1 
REMARK    2  A    between atoms: C_7  and  C_4 
REMARK    3  A    between atoms: O_14  and  C_6 
REMARK    4  A    between atoms: O_15  and  C_9 
REMARK    5  A    between atoms: O_16  and  C_10 
ROOT
ATOM      1  C   UNL d   1      57.100  -0.168  32.022  0.00  0.00     0.027 A 
ATOM      2  C   UNL d   1      57.646   0.283  31.593  0.00  0.00     0.028 A 
ATOM      3  C   UNL d   1      57.967  -0.008  30.896  0.00  0.00     0.116 A 
ATOM      4  C   UNL d   1      57.744  -0.756  30.619  0.00  0.00     0.116 A 
ATOM      5  C   UNL d   1      56.877  -0.916  31.745  0.00  0.00     0.004 A 
ATOM      6  C   UNL d   1      57.203  -1.207  31.041  0.00  0.00     0.026 A 
ENDROOT
BRANCH   1   7
ATOM      7  C   UNL d   1      56.777   0.123  32.723  0.00  0.00     0.127 A 
ATOM      8  C   UNL d   1      55.979   0.114  32.922  0.00  0.00     0.054 A 
ATOM      9  C   UNL d   1      55.901   0.459  33.669  0.00  0.00     0.173 A 
ATOM     10  N   UNL d   1      56.653   0.679  33.925  0.00  0.00    -0.121 NA
ATOM     11  O   UNL d   1      57.191   0.468  33.335  0.00  0.00    -0.211 OA
BRANCH   9  12
ATOM     12  C   UNL d   1      55.201   0.565  34.083  0.00  0.00     0.316 C 
ATOM     13  O   UNL d   1      55.208   0.581  34.912  0.00  0.00    -0.257 OA
BRANCH  12  14
ATOM     14  O   UNL d   1      54.491   0.655  33.677  0.00  0.00    -0.294 OA
ATOM     15  C   UNL d   1      53.785   0.681  34.094  0.00  0.00     0.185 C 
ENDBRANCH  12  14
ENDBRANCH   9  12
ENDBRANCH   1   7
BRANCH   3  16
ATOM     16  O   UNL d   1      58.508   0.442  30.474  0.00  0.00    -0.326 OA
ATOM     17  C   UNL d   1      59.209   0.680  30.829  0.00  0.00     0.181 C 
ENDBRANCH   3  16
BRANCH   4  18
ATOM     18  O   UNL d   1      58.066  -1.045  29.923  0.00  0.00    -0.326 OA
ATOM     19  C   UNL d   1      58.140  -1.857  29.812  0.00  0.00     0.181 C 
ENDBRANCH   4  18
TORSDOF 5
ENDMDL
