MODEL 1
REMARK VINA RESULT:      -5.2      0.000      0.000
REMARK  3 active torsions:
REMARK  status: ('A' for Active; 'I' for Inactive)
REMARK    1  A    between atoms: C_15  and  C_4 
REMARK    2  A    between atoms: C_8  and  S_16 
REMARK    3  A    between atoms: S_16  and  C_15 
ROOT
ATOM      1  N   UNL d   1     -42.267-123.305 -49.059  0.00  0.00    -0.133 N 
ATOM      2  C   UNL d   1     -41.519-122.969 -49.052  0.00  0.00     0.736 A 
ATOM      3  C   UNL d   1     -42.492-123.410 -49.845  0.00  0.00     0.135 A 
ATOM      4  C   UNL d   1     -41.881-123.139 -50.327  0.00  0.00     0.129 A 
ATOM      5  N   UNL d   1     -41.277-122.865 -49.832  0.00  0.00    -0.058 NA
ATOM      6  C   UNL d   1     -42.650-123.472 -48.358  0.00  0.00     0.084 A 
ATOM      7  N   UNL d   1     -41.147-122.798 -48.343  0.00  0.00    -0.060 NA
ATOM      8  C   UNL d   1     -42.283-123.303 -47.633  0.00  0.00     0.038 A 
ATOM      9  C   UNL d   1     -41.535-122.967 -47.626  0.00  0.00     0.101 A 
ATOM     10 BR   UNL d   1     -43.222-123.739 -50.125  0.00  0.00    -0.028 Br
ATOM     11  C   UNL d   1     -43.413-123.814 -48.366  0.00  0.00     0.020 C 
ATOM     12  C   UNL d   1     -41.186-122.806 -46.876  0.00  0.00     0.021 C 
ENDROOT
BRANCH   4  13
ATOM     13  C   UNL d   1     -41.886-123.147 -51.151  0.00  0.00     0.059 C 
BRANCH  13  14
ATOM     14  S   UNL d   1     -41.359-122.699 -51.600  0.00  0.00    -0.059 SA
BRANCH  14  15
ATOM     15  C   UNL d   1     -41.491-122.561 -52.397  0.00  0.00     0.141 A 
ATOM     16  N   UNL d   1     -41.954-122.010 -52.812  0.00  0.00    -0.232 NA
ATOM     17  C   UNL d   1     -41.867-122.137 -53.595  0.00  0.00     0.088 A 
ATOM     18  C   UNL d   1     -42.204-121.745 -54.233  0.00  0.00     0.020 A 
ATOM     19  C   UNL d   1     -41.365-122.748 -53.720  0.00  0.00     0.049 A 
ATOM     20  C   UNL d   1     -42.025-121.983 -55.008  0.00  0.00     0.002 A 
ATOM     21  C   UNL d   1     -41.521-122.597 -55.139  0.00  0.00     0.001 A 
ATOM     22  C   UNL d   1     -41.183-122.989 -54.495  0.00  0.00     0.008 A 
ATOM     23  S   UNL d   1     -41.123-123.022 -52.964  0.00  0.00    -0.060 SA
ENDBRANCH  14  15
ENDBRANCH  13  14
ENDBRANCH   4  13
TORSDOF 3
ENDMDL
