MODEL 1
REMARK VINA RESULT:      33.2      0.000      0.000
REMARK  4 active torsions:
REMARK  status: ('A' for Active; 'I' for Inactive)
REMARK    1  A    between atoms: C_2  and  C_1 
REMARK    2  A    between atoms: C_3  and  C_2 
REMARK    3  A    between atoms: C_5  and  C_3 
REMARK    4  A    between atoms: C_13  and  C_5 
ROOT
ATOM      1  C   UNL d   1     -56.939 -98.781 -43.257  0.00  0.00     0.042 C 
ENDROOT
BRANCH   1   2
ATOM      2  C   UNL d   1     -57.364 -98.768 -43.965  0.00  0.00     0.199 C 
ATOM      3  O   UNL d   1     -56.974 -98.758 -44.680  0.00  0.00    -0.286 OA
BRANCH   2   4
ATOM      4  C   UNL d   1     -58.181 -98.765 -43.939  0.00  0.00     0.078 A 
ATOM      5  C   UNL d   1     -58.639 -98.760 -44.610  0.00  0.00     0.199 A 
ATOM      6  C   UNL d   1     -59.443 -98.757 -44.575  0.00  0.00     0.042 A 
ATOM      7  O   UNL d   1     -58.233 -98.756 -45.393  0.00  0.00    -0.286 OA
ATOM      8  C   UNL d   1     -59.843 -98.760 -43.867  0.00  0.00     0.003 A 
ATOM      9  C   UNL d   1     -59.423 -98.766 -43.187  0.00  0.00     0.000 A 
ATOM     10  C   UNL d   1     -58.592 -98.768 -43.209  0.00  0.00     0.006 A 
ATOM     11  C   UNL d   1     -59.672 -98.769 -42.510  0.00  0.00     0.000 C 
ENDBRANCH   2   4
ENDBRANCH   1   2
BRANCH   1  12
ATOM     12  C   UNL d   1     -56.120 -98.799 -43.409  0.00  0.00     0.003 C 
BRANCH  12  13
ATOM     13  C   UNL d   1     -55.773 -99.545 -43.773  0.00  0.00     0.002 A 
ATOM     14  C   UNL d   1     -55.714-100.232 -43.377  0.00  0.00     0.027 A 
ATOM     15  C   UNL d   1     -55.393-100.904 -43.729  0.00  0.00     0.123 A 
ATOM     16  O   UNL d   1     -55.327-101.647 -43.305  0.00  0.00    -0.301 OA
ATOM     17  C   UNL d   1     -55.104-100.899 -44.542  0.00  0.00     0.123 A 
ATOM     18  C   UNL d   1     -55.012-102.325 -43.636  0.00  0.00     0.149 A 
ATOM     19  C   UNL d   1     -54.718-102.311 -44.472  0.00  0.00     0.149 A 
ATOM     20  O   UNL d   1     -54.774-101.608 -44.891  0.00  0.00    -0.301 OA
ATOM     21  C   UNL d   1     -55.160-100.180 -44.973  0.00  0.00     0.027 A 
ATOM     22  C   UNL d   1     -55.482 -99.516 -44.613  0.00  0.00     0.002 A 
ENDBRANCH  12  13
ENDBRANCH   1  12
TORSDOF 4
ENDMDL
