MODEL 1
REMARK VINA RESULT:      -7.4      0.000      0.000
REMARK  4 active torsions:
REMARK  status: ('A' for Active; 'I' for Inactive)
REMARK    1  A    between atoms: N_4  and  C_1 
REMARK       I    between atoms: C_6  and  N_4 
REMARK    2  A    between atoms: C_10  and  C_6 
REMARK    3  A    between atoms: C_8  and  C_11 
REMARK    4  A    between atoms: C_11  and  C_10 
ROOT
ATOM      1  N   UNL d   1      53.412  31.366  53.555  0.00  0.00    -0.187 NA
ATOM      2  C   UNL d   1      52.848  31.883  53.239  0.00  0.00     0.281 C 
ATOM      3  O   UNL d   1      52.113  31.618  52.924  0.00  0.00    -0.265 OA
ENDROOT
BRANCH   2   4
ATOM      4  C   UNL d   1      53.018  32.733  53.230  0.00  0.00     0.063 C 
BRANCH   4   5
ATOM      5  C   UNL d   1      52.465  33.254  53.595  0.00  0.00     0.011 C 
BRANCH   5   6
ATOM      6  C   UNL d   1      52.689  34.020  53.724  0.00  0.00     0.030 A 
ATOM      7  S   UNL d   1      52.968  34.300  54.392  0.00  0.00    -0.086 SA
ATOM      8  C   UNL d   1      53.140  35.105  54.331  0.00  0.00     0.035 A 
ATOM      9  C   UNL d   1      52.955  35.329  53.585  0.00  0.00     0.007 A 
ATOM     10  C   UNL d   1      52.670  34.671  53.180  0.00  0.00     0.007 A 
ENDBRANCH   5   6
ENDBRANCH   4   5
ENDBRANCH   2   4
BRANCH   1  11
ATOM     11  C   UNL d   1      53.251  30.558  53.563  0.00  0.00     0.194 A 
ATOM     12  N   UNL d   1      52.881  30.065  53.032  0.00  0.00    -0.107 NA
ATOM     13  O   UNL d   1      52.881  29.329  53.330  0.00  0.00    -0.210 OA
ATOM     14  C   UNL d   1      53.255  29.305  54.077  0.00  0.00     0.128 A 
ATOM     15  C   UNL d   1      53.484  30.076  54.217  0.00  0.00     0.068 A 
ATOM     16  C   UNL d   1      53.385  28.673  54.590  0.00  0.00     0.029 C 
ENDBRANCH   1  11
TORSDOF 4
ENDMDL
MODEL 2
REMARK VINA RESULT:      -7.2      2.094      4.494
REMARK  4 active torsions:
REMARK  status: ('A' for Active; 'I' for Inactive)
REMARK    1  A    between atoms: N_4  and  C_1 
REMARK       I    between atoms: C_6  and  N_4 
REMARK    2  A    between atoms: C_10  and  C_6 
REMARK    3  A    between atoms: C_8  and  C_11 
REMARK    4  A    between atoms: C_11  and  C_10 
ROOT
ATOM      1  N   UNL d   1      53.483  33.050  54.733  0.00  0.00    -0.187 NA
ATOM      2  C   UNL d   1      53.943  32.575  54.237  0.00  0.00     0.281 C 
ATOM      3  O   UNL d   1      54.551  32.885  53.743  0.00  0.00    -0.265 OA
ENDROOT
BRANCH   2   4
ATOM      4  C   UNL d   1      53.797  31.720  54.222  0.00  0.00     0.063 C 
BRANCH   4   5
ATOM      5  C   UNL d   1      53.673  31.350  53.475  0.00  0.00     0.011 C 
BRANCH   5   6
ATOM      6  C   UNL d   1      53.359  30.605  53.464  0.00  0.00     0.030 A 
ATOM      7  S   UNL d   1      52.763  30.375  53.023  0.00  0.00    -0.086 SA
ATOM      8  C   UNL d   1      52.585  29.580  53.150  0.00  0.00     0.035 A 
ATOM      9  C   UNL d   1      53.101  29.309  53.699  0.00  0.00     0.007 A 
ATOM     10  C   UNL d   1      53.599  29.928  53.916  0.00  0.00     0.007 A 
ENDBRANCH   5   6
ENDBRANCH   4   5
ENDBRANCH   2   4
BRANCH   1  11
ATOM     11  C   UNL d   1      53.622  33.862  54.748  0.00  0.00     0.194 A 
ATOM     12  N   UNL d   1      54.279  34.305  54.932  0.00  0.00    -0.107 NA
ATOM     13  O   UNL d   1      54.096  35.073  54.851  0.00  0.00    -0.210 OA
ATOM     14  C   UNL d   1      53.303  35.170  54.607  0.00  0.00     0.128 A 
ATOM     15  C   UNL d   1      53.012  34.410  54.545  0.00  0.00     0.068 A 
ATOM     16  C   UNL d   1      52.871  35.856  54.453  0.00  0.00     0.029 C 
ENDBRANCH   1  11
TORSDOF 4
ENDMDL
MODEL 3
REMARK VINA RESULT:      -6.7      2.646      3.997
REMARK  4 active torsions:
REMARK  status: ('A' for Active; 'I' for Inactive)
REMARK    1  A    between atoms: N_4  and  C_1 
REMARK       I    between atoms: C_6  and  N_4 
REMARK    2  A    between atoms: C_10  and  C_6 
REMARK    3  A    between atoms: C_8  and  C_11 
REMARK    4  A    between atoms: C_11  and  C_10 
ROOT
ATOM      1  N   UNL d   1      51.659  34.120  53.280  0.00  0.00    -0.187 NA
ATOM      2  C   UNL d   1      52.186  33.483  53.293  0.00  0.00     0.281 C 
ATOM      3  O   UNL d   1      52.226  32.911  52.675  0.00  0.00    -0.265 OA
ENDROOT
BRANCH   2   4
ATOM      4  C   UNL d   1      52.722  33.395  53.969  0.00  0.00     0.063 C 
BRANCH   4   5
ATOM      5  C   UNL d   1      53.528  33.202  53.817  0.00  0.00     0.011 C 
BRANCH   5   6
ATOM      6  C   UNL d   1      54.060  33.278  54.421  0.00  0.00     0.030 A 
ATOM      7  S   UNL d   1      54.739  33.651  54.377  0.00  0.00    -0.086 SA
ATOM      8  C   UNL d   1      55.145  33.621  55.095  0.00  0.00     0.035 A 
ATOM      9  C   UNL d   1      54.688  33.207  55.606  0.00  0.00     0.007 A 
ATOM     10  C   UNL d   1      54.001  32.979  55.213  0.00  0.00     0.007 A 
ENDBRANCH   5   6
ENDBRANCH   4   5
ENDBRANCH   2   4
BRANCH   1  11
ATOM     11  C   UNL d   1      51.150  34.203  52.637  0.00  0.00     0.194 A 
ATOM     12  N   UNL d   1      51.267  34.158  51.833  0.00  0.00    -0.107 NA
ATOM     13  O   UNL d   1      50.572  34.285  51.471  0.00  0.00    -0.210 OA
ATOM     14  C   UNL d   1      49.963  34.421  52.025  0.00  0.00     0.128 A 
ATOM     15  C   UNL d   1      50.330  34.368  52.752  0.00  0.00     0.068 A 
ATOM     16  C   UNL d   1      49.161  34.576  51.911  0.00  0.00     0.029 C 
ENDBRANCH   1  11
TORSDOF 4
ENDMDL
MODEL 4
REMARK VINA RESULT:      -6.6      2.062      4.411
REMARK  4 active torsions:
REMARK  status: ('A' for Active; 'I' for Inactive)
REMARK    1  A    between atoms: N_4  and  C_1 
REMARK       I    between atoms: C_6  and  N_4 
REMARK    2  A    between atoms: C_10  and  C_6 
REMARK    3  A    between atoms: C_8  and  C_11 
REMARK    4  A    between atoms: C_11  and  C_10 
ROOT
ATOM      1  N   UNL d   1      52.048  32.944  53.505  0.00  0.00    -0.187 NA
ATOM      2  C   UNL d   1      52.541  32.476  53.033  0.00  0.00     0.281 C 
ATOM      3  O   UNL d   1      52.687  32.645  52.220  0.00  0.00    -0.265 OA
ENDROOT
BRANCH   2   4
ATOM      4  C   UNL d   1      52.925  31.783  53.385  0.00  0.00     0.063 C 
BRANCH   4   5
ATOM      5  C   UNL d   1      52.917  31.060  52.952  0.00  0.00     0.011 C 
BRANCH   5   6
ATOM      6  C   UNL d   1      53.055  30.373  53.353  0.00  0.00     0.030 A 
ATOM      7  S   UNL d   1      52.634  29.723  53.292  0.00  0.00    -0.086 SA
ATOM      8  C   UNL d   1      52.928  29.127  53.779  0.00  0.00     0.035 A 
ATOM      9  C   UNL d   1      53.565  29.428  54.160  0.00  0.00     0.007 A 
ATOM     10  C   UNL d   1      53.670  30.207  53.915  0.00  0.00     0.007 A 
ENDBRANCH   5   6
ENDBRANCH   4   5
ENDBRANCH   2   4
BRANCH   1  11
ATOM     11  C   UNL d   1      51.683  33.602  53.170  0.00  0.00     0.194 A 
ATOM     12  N   UNL d   1      51.976  34.269  52.809  0.00  0.00    -0.107 NA
ATOM     13  O   UNL d   1      51.365  34.726  52.589  0.00  0.00    -0.210 OA
ATOM     14  C   UNL d   1      50.636  34.376  52.799  0.00  0.00     0.128 A 
ATOM     15  C   UNL d   1      50.841  33.674  53.161  0.00  0.00     0.068 A 
ATOM     16  C   UNL d   1      49.863  34.641  52.686  0.00  0.00     0.029 C 
ENDBRANCH   1  11
TORSDOF 4
ENDMDL
MODEL 5
REMARK VINA RESULT:      -6.5      2.560      3.229
REMARK  4 active torsions:
REMARK  status: ('A' for Active; 'I' for Inactive)
REMARK    1  A    between atoms: N_4  and  C_1 
REMARK       I    between atoms: C_6  and  N_4 
REMARK    2  A    between atoms: C_10  and  C_6 
REMARK    3  A    between atoms: C_8  and  C_11 
REMARK    4  A    between atoms: C_11  and  C_10 
ROOT
ATOM      1  N   UNL d   1      52.661  33.355  54.102  0.00  0.00    -0.187 NA
ATOM      2  C   UNL d   1      52.380  33.211  53.337  0.00  0.00     0.281 C 
ATOM      3  O   UNL d   1      52.860  32.877  52.730  0.00  0.00    -0.265 OA
ENDROOT
BRANCH   2   4
ATOM      4  C   UNL d   1      51.557  33.411  53.148  0.00  0.00     0.063 C 
BRANCH   4   5
ATOM      5  C   UNL d   1      51.414  34.035  52.601  0.00  0.00     0.011 C 
BRANCH   5   6
ATOM      6  C   UNL d   1      50.651  34.270  52.479  0.00  0.00     0.030 A 
ATOM      7  S   UNL d   1      50.255  34.187  51.816  0.00  0.00    -0.086 SA
ATOM      8  C   UNL d   1      49.490  34.488  51.884  0.00  0.00     0.035 A 
ATOM      9  C   UNL d   1      49.413  34.769  52.630  0.00  0.00     0.007 A 
ATOM     10  C   UNL d   1      50.124  34.647  53.028  0.00  0.00     0.007 A 
ENDBRANCH   5   6
ENDBRANCH   4   5
ENDBRANCH   2   4
BRANCH   1  11
ATOM     11  C   UNL d   1      53.442  33.165  54.281  0.00  0.00     0.194 A 
ATOM     12  N   UNL d   1      53.905  32.519  54.108  0.00  0.00    -0.107 NA
ATOM     13  O   UNL d   1      54.624  32.633  54.425  0.00  0.00    -0.210 OA
ATOM     14  C   UNL d   1      54.667  33.365  54.824  0.00  0.00     0.128 A 
ATOM     15  C   UNL d   1      53.925  33.693  54.731  0.00  0.00     0.068 A 
ATOM     16  C   UNL d   1      55.291  33.717  55.231  0.00  0.00     0.029 C 
ENDBRANCH   1  11
TORSDOF 4
ENDMDL
MODEL 6
REMARK VINA RESULT:      -5.8      4.272      5.888
REMARK  4 active torsions:
REMARK  status: ('A' for Active; 'I' for Inactive)
REMARK    1  A    between atoms: N_4  and  C_1 
REMARK       I    between atoms: C_6  and  N_4 
REMARK    2  A    between atoms: C_10  and  C_6 
REMARK    3  A    between atoms: C_8  and  C_11 
REMARK    4  A    between atoms: C_11  and  C_10 
ROOT
ATOM      1  N   UNL d   1      49.011  35.354  53.001  0.00  0.00    -0.187 NA
ATOM      2  C   UNL d   1      49.516  34.828  52.609  0.00  0.00     0.281 C 
ATOM      3  O   UNL d   1      49.357  34.533  51.836  0.00  0.00    -0.265 OA
ENDROOT
BRANCH   2   4
ATOM      4  C   UNL d   1      50.241  34.567  53.008  0.00  0.00     0.063 C 
BRANCH   4   5
ATOM      5  C   UNL d   1      50.848  34.215  52.541  0.00  0.00     0.011 C 
BRANCH   5   6
ATOM      6  C   UNL d   1      51.557  34.055  52.894  0.00  0.00     0.030 A 
ATOM      7  S   UNL d   1      51.785  33.358  53.150  0.00  0.00    -0.086 SA
ATOM      8  C   UNL d   1      52.540  33.392  53.480  0.00  0.00     0.035 A 
ATOM      9  C   UNL d   1      52.788  34.152  53.423  0.00  0.00     0.007 A 
ATOM     10  C   UNL d   1      52.193  34.592  53.060  0.00  0.00     0.007 A 
ENDBRANCH   5   6
ENDBRANCH   4   5
ENDBRANCH   2   4
BRANCH   1  11
ATOM     11  C   UNL d   1      48.323  35.601  52.622  0.00  0.00     0.194 A 
ATOM     12  N   UNL d   1      48.029  35.471  51.875  0.00  0.00    -0.107 NA
ATOM     13  O   UNL d   1      47.333  35.849  51.809  0.00  0.00    -0.210 OA
ATOM     14  C   UNL d   1      47.138  36.247  52.517  0.00  0.00     0.128 A 
ATOM     15  C   UNL d   1      47.760  36.089  53.021  0.00  0.00     0.068 A 
ATOM     16  C   UNL d   1      46.480  36.707  52.708  0.00  0.00     0.029 C 
ENDBRANCH   1  11
TORSDOF 4
ENDMDL
MODEL 7
REMARK VINA RESULT:      -5.0      9.598      9.922
REMARK  4 active torsions:
REMARK  status: ('A' for Active; 'I' for Inactive)
REMARK    1  A    between atoms: N_4  and  C_1 
REMARK       I    between atoms: C_6  and  N_4 
REMARK    2  A    between atoms: C_10  and  C_6 
REMARK    3  A    between atoms: C_8  and  C_11 
REMARK    4  A    between atoms: C_11  and  C_10 
ROOT
ATOM      1  N   UNL d   1      45.174  27.614  58.068  0.00  0.00    -0.187 NA
ATOM      2  C   UNL d   1      45.172  28.433  57.953  0.00  0.00     0.281 C 
ATOM      3  O   UNL d   1      45.235  28.787  57.191  0.00  0.00    -0.265 OA
ENDROOT
BRANCH   2   4
ATOM      4  C   UNL d   1      45.102  28.953  58.643  0.00  0.00     0.063 C 
BRANCH   4   5
ATOM      5  C   UNL d   1      44.987  29.777  58.512  0.00  0.00     0.011 C 
BRANCH   5   6
ATOM      6  C   UNL d   1      44.827  30.247  59.149  0.00  0.00     0.030 A 
ATOM      7  S   UNL d   1      44.352  30.862  59.147  0.00  0.00    -0.086 SA
ATOM      8  C   UNL d   1      44.315  31.216  59.891  0.00  0.00     0.035 A 
ATOM      9  C   UNL d   1      44.794  30.795  60.376  0.00  0.00     0.007 A 
ATOM     10  C   UNL d   1      45.129  30.181  59.940  0.00  0.00     0.007 A 
ENDBRANCH   5   6
ENDBRANCH   4   5
ENDBRANCH   2   4
BRANCH   1  11
ATOM     11  C   UNL d   1      45.241  27.120  57.412  0.00  0.00     0.194 A 
ATOM     12  N   UNL d   1      45.769  27.094  56.794  0.00  0.00    -0.107 NA
ATOM     13  O   UNL d   1      45.566  26.495  56.314  0.00  0.00    -0.210 OA
ATOM     14  C   UNL d   1      44.888  26.097  56.598  0.00  0.00     0.128 A 
ATOM     15  C   UNL d   1      44.690  26.492  57.284  0.00  0.00     0.068 A 
ATOM     16  C   UNL d   1      44.480  25.450  56.290  0.00  0.00     0.029 C 
ENDBRANCH   1  11
TORSDOF 4
ENDMDL
