MODEL 1
REMARK VINA RESULT:      -9.2      0.000      0.000
REMARK  3 active torsions:
REMARK  status: ('A' for Active; 'I' for Inactive)
REMARK    1  A    between atoms: N_3  and  C_1 
REMARK       I    between atoms: C_5  and  N_3 
REMARK    2  A    between atoms: C_6  and  C_5 
REMARK    3  A    between atoms: O_19  and  C_17 
ROOT
ATOM      1  N   UNL d   1      51.323  34.437  52.855  0.00  0.00    -0.181 NA
ATOM      2  C   UNL d   1      50.575  34.103  52.946  0.00  0.00     0.306 C 
ATOM      3  O   UNL d   1      50.491  33.387  53.381  0.00  0.00    -0.263 OA
ENDROOT
BRANCH   1   4
ATOM      4  C   UNL d   1      51.988  34.081  53.184  0.00  0.00     0.197 A 
ATOM      5  N   UNL d   1      52.383  33.428  52.860  0.00  0.00    -0.221 NA
ATOM      6  C   UNL d   1      53.016  33.255  53.368  0.00  0.00     0.090 A 
ATOM      7  C   UNL d   1      53.595  32.671  53.332  0.00  0.00     0.022 A 
ATOM      8  C   UNL d   1      53.000  33.797  53.987  0.00  0.00     0.052 A 
ATOM      9  C   UNL d   1      54.165  32.638  53.933  0.00  0.00     0.026 A 
ATOM     10  C   UNL d   1      54.150  33.174  54.546  0.00  0.00     0.095 A 
ATOM     11  C   UNL d   1      53.570  33.764  54.588  0.00  0.00     0.032 A 
ATOM     12  S   UNL d   1      52.368  34.297  53.864  0.00  0.00    -0.047 SA
BRANCH  10  13
ATOM     13  O   UNL d   1      54.734  33.146  55.170  0.00  0.00    -0.328 OA
ATOM     14  C   UNL d   1      55.306  33.759  55.216  0.00  0.00     0.181 C 
ENDBRANCH  10  13
ENDBRANCH   1   4
BRANCH   2  15
ATOM     15  C   UNL d   1      49.910  34.459  52.617  0.00  0.00     0.182 A 
ATOM     16  O   UNL d   1      49.466  34.973  53.078  0.00  0.00    -0.298 OA
ATOM     17  C   UNL d   1      48.790  35.336  52.747  0.00  0.00     0.123 A 
ATOM     18  C   UNL d   1      48.336  35.857  53.206  0.00  0.00     0.027 A 
ATOM     19  C   UNL d   1      48.581  35.175  51.974  0.00  0.00     0.123 A 
ATOM     20  C   UNL d   1      47.671  36.211  52.872  0.00  0.00     0.002 A 
ATOM     21  C   UNL d   1      47.455  36.058  52.106  0.00  0.00     0.002 A 
ATOM     22  C   UNL d   1      47.909  35.537  51.647  0.00  0.00     0.027 A 
ATOM     23  O   UNL d   1      49.035  34.654  51.515  0.00  0.00    -0.301 OA
ATOM     24  C   UNL d   1      49.697  34.303  51.849  0.00  0.00     0.152 A 
ENDBRANCH   2  15
TORSDOF 3
ENDMDL
MODEL 2
REMARK VINA RESULT:      -9.2      1.203      5.515
REMARK  3 active torsions:
REMARK  status: ('A' for Active; 'I' for Inactive)
REMARK    1  A    between atoms: N_3  and  C_1 
REMARK       I    between atoms: C_5  and  N_3 
REMARK    2  A    between atoms: C_6  and  C_5 
REMARK    3  A    between atoms: O_19  and  C_17 
ROOT
ATOM      1  N   UNL d   1      51.113  34.290  52.747  0.00  0.00    -0.181 NA
ATOM      2  C   UNL d   1      51.243  33.615  53.201  0.00  0.00     0.306 C 
ATOM      3  O   UNL d   1      50.585  33.177  53.490  0.00  0.00    -0.263 OA
ENDROOT
BRANCH   1   4
ATOM      4  C   UNL d   1      50.350  34.542  52.571  0.00  0.00     0.197 A 
ATOM      5  N   UNL d   1      49.884  35.018  53.064  0.00  0.00    -0.221 NA
ATOM      6  C   UNL d   1      49.162  35.135  52.672  0.00  0.00     0.090 A 
ATOM      7  C   UNL d   1      48.489  35.557  52.891  0.00  0.00     0.022 A 
ATOM      8  C   UNL d   1      49.195  34.734  51.955  0.00  0.00     0.052 A 
ATOM      9  C   UNL d   1      47.842  35.571  52.372  0.00  0.00     0.026 A 
ATOM     10  C   UNL d   1      47.875  35.174  51.662  0.00  0.00     0.095 A 
ATOM     11  C   UNL d   1      48.548  34.748  51.436  0.00  0.00     0.032 A 
ATOM     12  S   UNL d   1      49.925  34.375  51.904  0.00  0.00    -0.047 SA
BRANCH  10  13
ATOM     13  O   UNL d   1      47.212  35.184  51.121  0.00  0.00    -0.328 OA
ATOM     14  C   UNL d   1      46.493  35.540  51.368  0.00  0.00     0.181 C 
ENDBRANCH  10  13
ENDBRANCH   1   4
BRANCH   2  15
ATOM     15  C   UNL d   1      52.007  33.364  53.377  0.00  0.00     0.182 A 
ATOM     16  O   UNL d   1      52.412  33.725  53.993  0.00  0.00    -0.298 OA
ATOM     17  C   UNL d   1      53.187  33.472  54.173  0.00  0.00     0.123 A 
ATOM     18  C   UNL d   1      53.604  33.831  54.794  0.00  0.00     0.027 A 
ATOM     19  C   UNL d   1      53.529  32.872  53.737  0.00  0.00     0.123 A 
ATOM     20  C   UNL d   1      54.369  33.576  54.966  0.00  0.00     0.002 A 
ATOM     21  C   UNL d   1      54.717  32.981  54.539  0.00  0.00     0.002 A 
ATOM     22  C   UNL d   1      54.301  32.622  53.918  0.00  0.00     0.027 A 
ATOM     23  O   UNL d   1      53.113  32.513  53.116  0.00  0.00    -0.301 OA
ATOM     24  C   UNL d   1      52.353  32.768  52.947  0.00  0.00     0.152 A 
ENDBRANCH   2  15
TORSDOF 3
ENDMDL
MODEL 3
REMARK VINA RESULT:      -8.7      1.371      5.579
REMARK  3 active torsions:
REMARK  status: ('A' for Active; 'I' for Inactive)
REMARK    1  A    between atoms: N_3  and  C_1 
REMARK       I    between atoms: C_5  and  N_3 
REMARK    2  A    between atoms: C_6  and  C_5 
REMARK    3  A    between atoms: O_19  and  C_17 
ROOT
ATOM      1  N   UNL d   1      50.573  34.120  52.945  0.00  0.00    -0.181 NA
ATOM      2  C   UNL d   1      51.298  34.137  52.555  0.00  0.00     0.306 C 
ATOM      3  O   UNL d   1      51.352  34.496  51.795  0.00  0.00    -0.263 OA
ENDROOT
BRANCH   1   4
ATOM      4  C   UNL d   1      49.900  34.449  52.603  0.00  0.00     0.197 A 
ATOM      5  N   UNL d   1      49.601  34.244  51.859  0.00  0.00    -0.221 NA
ATOM      6  C   UNL d   1      48.923  34.708  51.736  0.00  0.00     0.090 A 
ATOM      7  C   UNL d   1      48.399  34.745  51.101  0.00  0.00     0.022 A 
ATOM      8  C   UNL d   1      48.819  35.185  52.399  0.00  0.00     0.052 A 
ATOM      9  C   UNL d   1      47.762  35.275  51.143  0.00  0.00     0.026 A 
ATOM     10  C   UNL d   1      47.659  35.746  51.798  0.00  0.00     0.095 A 
ATOM     11  C   UNL d   1      48.182  35.714  52.440  0.00  0.00     0.032 A 
ATOM     12  S   UNL d   1      49.422  35.018  52.922  0.00  0.00    -0.047 SA
BRANCH  10  13
ATOM     13  O   UNL d   1      47.005  36.295  51.848  0.00  0.00    -0.328 OA
ATOM     14  C   UNL d   1      46.222  35.996  51.797  0.00  0.00     0.181 C 
ENDBRANCH  10  13
ENDBRANCH   1   4
BRANCH   2  15
ATOM     15  C   UNL d   1      51.970  33.808  52.897  0.00  0.00     0.182 A 
ATOM     16  O   UNL d   1      52.095  32.999  52.829  0.00  0.00    -0.298 OA
ATOM     17  C   UNL d   1      52.777  32.662  53.175  0.00  0.00     0.123 A 
ATOM     18  C   UNL d   1      52.910  31.846  53.111  0.00  0.00     0.027 A 
ATOM     19  C   UNL d   1      53.306  33.139  53.574  0.00  0.00     0.123 A 
ATOM     20  C   UNL d   1      53.585  31.522  53.456  0.00  0.00     0.002 A 
ATOM     21  C   UNL d   1      54.117  31.986  53.854  0.00  0.00     0.002 A 
ATOM     22  C   UNL d   1      53.983  32.802  53.918  0.00  0.00     0.027 A 
ATOM     23  O   UNL d   1      53.172  33.955  53.638  0.00  0.00    -0.301 OA
ATOM     24  C   UNL d   1      52.501  34.276  53.295  0.00  0.00     0.152 A 
ENDBRANCH   2  15
TORSDOF 3
ENDMDL
MODEL 4
REMARK VINA RESULT:      -6.7     10.273     10.982
REMARK  3 active torsions:
REMARK  status: ('A' for Active; 'I' for Inactive)
REMARK    1  A    between atoms: N_3  and  C_1 
REMARK       I    between atoms: C_5  and  N_3 
REMARK    2  A    between atoms: C_6  and  C_5 
REMARK    3  A    between atoms: O_19  and  C_17 
ROOT
ATOM      1  N   UNL d   1      44.487  26.801  56.845  0.00  0.00    -0.181 NA
ATOM      2  C   UNL d   1      45.165  27.258  56.943  0.00  0.00     0.306 C 
ATOM      3  O   UNL d   1      45.894  26.997  56.612  0.00  0.00    -0.263 OA
ENDROOT
BRANCH   1   4
ATOM      4  C   UNL d   1      44.512  26.092  56.427  0.00  0.00     0.197 A 
ATOM      5  N   UNL d   1      44.322  26.010  55.625  0.00  0.00    -0.221 NA
ATOM      6  C   UNL d   1      44.423  25.208  55.435  0.00  0.00     0.090 A 
ATOM      7  C   UNL d   1      44.317  24.802  54.726  0.00  0.00     0.022 A 
ATOM      8  C   UNL d   1      44.670  24.816  56.115  0.00  0.00     0.052 A 
ATOM      9  C   UNL d   1      44.465  23.986  54.710  0.00  0.00     0.026 A 
ATOM     10  C   UNL d   1      44.710  23.598  55.383  0.00  0.00     0.095 A 
ATOM     11  C   UNL d   1      44.818  24.000  56.098  0.00  0.00     0.032 A 
ATOM     12  S   UNL d   1      44.721  25.366  56.715  0.00  0.00    -0.047 SA
BRANCH  10  13
ATOM     13  O   UNL d   1      44.864  22.756  55.374  0.00  0.00    -0.328 OA
ATOM     14  C   UNL d   1      45.218  22.417  54.693  0.00  0.00     0.181 C 
ENDBRANCH  10  13
ENDBRANCH   1   4
BRANCH   2  15
ATOM     15  C   UNL d   1      45.140  27.967  57.362  0.00  0.00     0.182 A 
ATOM     16  O   UNL d   1      44.916  28.652  56.969  0.00  0.00    -0.298 OA
ATOM     17  C   UNL d   1      44.890  29.373  57.390  0.00  0.00     0.123 A 
ATOM     18  C   UNL d   1      44.664  30.069  57.001  0.00  0.00     0.027 A 
ATOM     19  C   UNL d   1      45.086  29.385  58.183  0.00  0.00     0.123 A 
ATOM     20  C   UNL d   1      44.641  30.777  57.425  0.00  0.00     0.002 A 
ATOM     21  C   UNL d   1      44.834  30.800  58.212  0.00  0.00     0.002 A 
ATOM     22  C   UNL d   1      45.059  30.104  58.601  0.00  0.00     0.027 A 
ATOM     23  O   UNL d   1      45.312  28.689  58.572  0.00  0.00    -0.301 OA
ATOM     24  C   UNL d   1      45.334  27.987  58.150  0.00  0.00     0.152 A 
ENDBRANCH   2  15
TORSDOF 3
ENDMDL
