MODEL 1
REMARK VINA RESULT:      31.3      0.000      0.000
REMARK  2 active torsions:
REMARK  status: ('A' for Active; 'I' for Inactive)
REMARK    1  A    between atoms: C_2  and  N_1 
REMARK    2  A    between atoms: C_4  and  C_7 
ROOT
ATOM      1  C   UNL d   1     -55.729 -99.988 -44.661  0.00  0.00     0.146 A 
ATOM      2  C   UNL d   1     -56.465 -99.868 -44.307  0.00  0.00     0.027 A 
ATOM      3  C   UNL d   1     -56.961 -99.244 -44.570  0.00  0.00     0.021 A 
ATOM      4  C   UNL d   1     -55.482 -99.493 -45.273  0.00  0.00     0.125 A 
ATOM      5  C   UNL d   1     -56.709 -98.755 -45.180  0.00  0.00     0.003 A 
ATOM      6  C   UNL d   1     -55.979 -98.869 -45.536  0.00  0.00     0.023 A 
ATOM      7  N   UNL d   1     -54.744 -99.612 -45.630  0.00  0.00    -0.146 N 
ENDROOT
BRANCH   3   8
ATOM      8  C   UNL d   1     -57.692 -99.130 -44.213  0.00  0.00     0.103 A 
ATOM      9  N   UNL d   1     -57.794 -99.246 -43.400  0.00  0.00    -0.145 NA
ATOM     10  N   UNL d   1     -58.525 -99.132 -43.044  0.00  0.00    -0.106 NA
ATOM     11  C   UNL d   1     -59.170 -98.898 -43.503  0.00  0.00     0.297 A 
ATOM     12  C   UNL d   1     -59.075 -98.779 -44.321  0.00  0.00     0.066 A 
ATOM     13  O   UNL d   1     -59.908 -98.781 -43.151  0.00  0.00    -0.264 OA
ATOM     14  C   UNL d   1     -58.337 -98.895 -44.673  0.00  0.00     0.024 A 
ATOM     15  C   UNL d   1     -58.244 -98.776 -45.487  0.00  0.00     0.002 C 
ENDBRANCH   3   8
BRANCH   1  16
ATOM     16  N   UNL d   1     -55.240-100.603 -44.403  0.00  0.00    -0.112 N 
ATOM     17  O   UNL d   1     -54.774-101.015 -44.944  0.00  0.00    -0.532 OA
ATOM     18  O   UNL d   1     -55.219-100.805 -43.603  0.00  0.00    -0.532 OA
ENDBRANCH   1  16
TORSDOF 2
ENDMDL
