MODEL 1
REMARK VINA RESULT:      -8.7      0.000      0.000
REMARK  7 active torsions:
REMARK  status: ('A' for Active; 'I' for Inactive)
REMARK    1  A    between atoms: C_5  and  C_1 
REMARK    2  A    between atoms: N_6  and  C_2 
REMARK       I    between atoms: N_10  and  C_5 
REMARK    3  A    between atoms: C_20  and  N_6 
REMARK    4  A    between atoms: C_9  and  C_12 
REMARK    5  A    between atoms: C_22  and  N_10 
REMARK    6  A    between atoms: C_11  and  C_22 
REMARK    7  A    between atoms: O_30  and  C_25 
ROOT
ATOM      1  C   UNL d   1      52.403  31.935  52.985  0.00  0.00     0.099 A 
ATOM      2  C   UNL d   1      52.926  32.487  53.303  0.00  0.00     0.187 A 
ATOM      3  C   UNL d   1      51.630  32.180  52.777  0.00  0.00     0.010 A 
ATOM      4  O   UNL d   1      52.697  33.267  53.416  0.00  0.00    -0.289 OA
ATOM      5  C   UNL d   1      51.396  32.966  52.889  0.00  0.00     0.025 A 
ATOM      6  C   UNL d   1      51.919  33.506  53.204  0.00  0.00     0.102 A 
ATOM      7  C   UNL d   1      50.635  33.210  52.684  0.00  0.00     0.026 A 
ATOM      8  C   UNL d   1      51.693  34.301  53.322  0.00  0.00     0.027 A 
ATOM      9  C   UNL d   1      50.403  33.988  52.795  0.00  0.00     0.094 A 
ATOM     10  C   UNL d   1      50.926  34.539  53.114  0.00  0.00     0.026 A 
ENDROOT
BRANCH   2  11
ATOM     11  N   UNL d   1      53.699  32.237  53.511  0.00  0.00    -0.222 NA
BRANCH  11  12
ATOM     12  C   UNL d   1      54.151  32.704  54.017  0.00  0.00     0.084 A 
ATOM     13  C   UNL d   1      54.761  33.164  53.707  0.00  0.00     0.019 A 
ATOM     14  C   UNL d   1      55.208  33.625  54.211  0.00  0.00     0.008 A 
ATOM     15  C   UNL d   1      55.057  33.638  55.029  0.00  0.00     0.065 A 
ATOM     16  C   UNL d   1      54.445  33.174  55.335  0.00  0.00     0.008 A 
ATOM     17  C   UNL d   1      53.996  32.710  54.823  0.00  0.00     0.019 A 
BRANCH  15  18
ATOM     18  C   UNL d   1      55.511  34.105  55.534  0.00  0.00     0.211 C 
ATOM     19  O   UNL d   1      55.545  33.931  56.346  0.00  0.00    -0.644 OA
ATOM     20  O   UNL d   1      55.939  34.753  55.246  0.00  0.00    -0.644 OA
ENDBRANCH  15  18
ENDBRANCH  11  12
ENDBRANCH   2  11
BRANCH   1  21
ATOM     21  C   UNL d   1      52.629  31.152  52.871  0.00  0.00     0.283 C 
ATOM     22  N   UNL d   1      52.549  30.596  53.496  0.00  0.00    -0.204 NA
ATOM     23  O   UNL d   1      52.941  30.891  52.139  0.00  0.00    -0.265 OA
BRANCH  22  24
ATOM     24  C   UNL d   1      52.776  29.805  53.383  0.00  0.00     0.127 C 
BRANCH  24  25
ATOM     25  C   UNL d   1      52.977  29.333  54.027  0.00  0.00     0.119 A 
ATOM     26  O   UNL d   1      52.614  29.187  54.755  0.00  0.00    -0.304 OA
ATOM     27  C   UNL d   1      53.073  28.661  55.180  0.00  0.00     0.123 A 
ATOM     28  C   UNL d   1      53.723  28.472  54.733  0.00  0.00     0.029 A 
ATOM     29  C   UNL d   1      53.670  28.884  54.019  0.00  0.00     0.028 A 
ENDBRANCH  24  25
ENDBRANCH  22  24
ENDBRANCH   1  21
BRANCH   9  30
ATOM     30  O   UNL d   1      49.634  34.223  52.586  0.00  0.00    -0.328 OA
ATOM     31  C   UNL d   1      49.391  35.014  52.705  0.00  0.00     0.181 C 
ENDBRANCH   9  30
TORSDOF 7
ENDMDL
MODEL 2
REMARK VINA RESULT:      -7.9      1.621      4.762
REMARK  7 active torsions:
REMARK  status: ('A' for Active; 'I' for Inactive)
REMARK    1  A    between atoms: C_5  and  C_1 
REMARK    2  A    between atoms: N_6  and  C_2 
REMARK       I    between atoms: N_10  and  C_5 
REMARK    3  A    between atoms: C_20  and  N_6 
REMARK    4  A    between atoms: C_9  and  C_12 
REMARK    5  A    between atoms: C_22  and  N_10 
REMARK    6  A    between atoms: C_11  and  C_22 
REMARK    7  A    between atoms: O_30  and  C_25 
ROOT
ATOM      1  C   UNL d   1      51.826  33.983  52.745  0.00  0.00     0.099 A 
ATOM      2  C   UNL d   1      52.173  33.266  52.954  0.00  0.00     0.187 A 
ATOM      3  C   UNL d   1      52.026  34.673  53.173  0.00  0.00     0.010 A 
ATOM      4  O   UNL d   1      52.709  33.223  53.575  0.00  0.00    -0.289 OA
ATOM      5  C   UNL d   1      52.566  34.634  53.800  0.00  0.00     0.025 A 
ATOM      6  C   UNL d   1      52.906  33.920  54.002  0.00  0.00     0.102 A 
ATOM      7  C   UNL d   1      52.765  35.313  54.224  0.00  0.00     0.026 A 
ATOM      8  C   UNL d   1      53.451  33.871  54.631  0.00  0.00     0.027 A 
ATOM      9  C   UNL d   1      53.300  35.275  54.844  0.00  0.00     0.094 A 
ATOM     10  C   UNL d   1      53.647  34.557  55.053  0.00  0.00     0.026 A 
ENDROOT
BRANCH   2  11
ATOM     11  N   UNL d   1      51.970  32.577  52.522  0.00  0.00    -0.222 NA
BRANCH  11  12
ATOM     12  C   UNL d   1      52.232  31.842  52.786  0.00  0.00     0.084 A 
ATOM     13  C   UNL d   1      51.743  31.386  53.268  0.00  0.00     0.019 A 
ATOM     14  C   UNL d   1      52.006  30.658  53.528  0.00  0.00     0.008 A 
ATOM     15  C   UNL d   1      52.757  30.372  53.315  0.00  0.00     0.065 A 
ATOM     16  C   UNL d   1      53.245  30.833  52.832  0.00  0.00     0.008 A 
ATOM     17  C   UNL d   1      52.975  31.567  52.571  0.00  0.00     0.019 A 
BRANCH  15  18
ATOM     18  C   UNL d   1      53.019  29.637  53.580  0.00  0.00     0.211 C 
ATOM     19  O   UNL d   1      52.633  28.943  53.338  0.00  0.00    -0.644 OA
ATOM     20  O   UNL d   1      53.669  29.575  54.090  0.00  0.00    -0.644 OA
ENDBRANCH  15  18
ENDBRANCH  11  12
ENDBRANCH   2  11
BRANCH   1  21
ATOM     21  C   UNL d   1      51.288  34.029  52.123  0.00  0.00     0.283 C 
ATOM     22  N   UNL d   1      50.489  34.239  52.274  0.00  0.00    -0.204 NA
ATOM     23  O   UNL d   1      51.520  33.869  51.335  0.00  0.00    -0.265 OA
BRANCH  22  24
ATOM     24  C   UNL d   1      49.944  34.286  51.649  0.00  0.00     0.127 C 
BRANCH  24  25
ATOM     25  C   UNL d   1      49.221  34.666  51.752  0.00  0.00     0.119 A 
ATOM     26  O   UNL d   1      48.886  35.078  52.385  0.00  0.00    -0.304 OA
ATOM     27  C   UNL d   1      48.143  35.339  52.169  0.00  0.00     0.123 A 
ATOM     28  C   UNL d   1      48.001  35.099  51.407  0.00  0.00     0.029 A 
ATOM     29  C   UNL d   1      48.664  34.682  51.144  0.00  0.00     0.028 A 
ENDBRANCH  24  25
ENDBRANCH  22  24
ENDBRANCH   1  21
BRANCH   9  30
ATOM     30  O   UNL d   1      53.493  35.965  55.266  0.00  0.00    -0.328 OA
ATOM     31  C   UNL d   1      53.230  36.709  54.992  0.00  0.00     0.181 C 
ENDBRANCH   9  30
TORSDOF 7
ENDMDL
