MODEL 1
REMARK VINA RESULT:      -3.2      0.000      0.000
REMARK  4 active torsions:
REMARK  status: ('A' for Active; 'I' for Inactive)
REMARK    1  A    between atoms: C_8  and  C_1 
REMARK    2  A    between atoms: C_10  and  C_5 
REMARK    3  A    between atoms: N_9  and  C_10 
REMARK    4  A    between atoms: O_19  and  C_14 
ROOT
ATOM      1  C   UNL d   1     -41.704-123.031 -50.265  0.00  0.00     0.066 A 
ATOM      2  C   UNL d   1     -41.612-122.231 -50.447  0.00  0.00     0.200 A 
ATOM      3  C   UNL d   1     -41.459-122.554 -51.831  0.00  0.00     0.108 A 
ATOM      4  C   UNL d   1     -41.490-121.987 -51.218  0.00  0.00     0.062 A 
ATOM      5  C   UNL d   1     -41.337-122.300 -52.598  0.00  0.00     0.079 A 
ATOM      6  C   UNL d   1     -41.672-123.597 -50.878  0.00  0.00     0.126 A 
ATOM      7  O   UNL d   1     -41.551-123.365 -51.656  0.00  0.00    -0.305 OA
ATOM      8  C   UNL d   1     -41.399-121.191 -51.398  0.00  0.00     0.009 A 
ATOM      9  C   UNL d   1     -41.245-121.510 -52.784  0.00  0.00     0.199 A 
ATOM     10  O   UNL d   1     -41.644-121.674 -49.844  0.00  0.00    -0.286 OA
ATOM     11  C   UNL d   1     -41.277-120.944 -52.171  0.00  0.00     0.042 A 
ATOM     12  O   UNL d   1     -41.124-121.263 -53.545  0.00  0.00    -0.286 OA
ENDROOT
BRANCH   1  13
ATOM     13  C   UNL d   1     -41.836-123.292 -49.429  0.00  0.00     0.027 A 
ATOM     14  C   UNL d   1     -42.646-123.512 -49.161  0.00  0.00     0.094 A 
ATOM     15  C   UNL d   1     -42.789-123.780 -48.311  0.00  0.00     0.024 A 
ATOM     16  C   UNL d   1     -42.095-123.817 -47.749  0.00  0.00     0.002 A 
ATOM     17  C   UNL d   1     -41.285-123.598 -48.018  0.00  0.00     0.000 A 
ATOM     18  C   UNL d   1     -41.141-123.333 -48.857  0.00  0.00     0.002 A 
BRANCH  14  19
ATOM     19  O   UNL d   1     -43.340-123.474 -49.723  0.00  0.00    -0.328 OA
ATOM     20  C   UNL d   1     -44.135-123.797 -49.487  0.00  0.00     0.181 C 
ENDBRANCH  14  19
ENDBRANCH   1  13
BRANCH   5  21
ATOM     21  C   UNL d   1     -41.305-122.864 -53.208  0.00  0.00     0.085 C 
BRANCH  21  22
ATOM     22  N   UNL d   1     -41.687-122.715 -53.923  0.00  0.00    -0.302 N 
ATOM     23  C   UNL d   1     -41.271-122.770 -54.625  0.00  0.00     0.080 A 
ATOM     24  C   UNL d   1     -41.651-122.623 -55.333  0.00  0.00     0.019 A 
ATOM     25  C   UNL d   1     -42.447-122.420 -55.348  0.00  0.00     0.003 A 
ATOM     26  C   UNL d   1     -42.862-122.365 -54.646  0.00  0.00     0.019 A 
ATOM     27  C   UNL d   1     -42.824-122.273 -56.055  0.00  0.00     0.000 C 
ATOM     28  C   UNL d   1     -42.492-122.510 -53.939  0.00  0.00     0.080 A 
ENDBRANCH  21  22
ENDBRANCH   5  21
TORSDOF 4
ENDMDL
MODEL 2
REMARK VINA RESULT:      -0.9      1.087      4.827
REMARK  4 active torsions:
REMARK  status: ('A' for Active; 'I' for Inactive)
REMARK    1  A    between atoms: C_8  and  C_1 
REMARK    2  A    between atoms: C_10  and  C_5 
REMARK    3  A    between atoms: N_9  and  C_10 
REMARK    4  A    between atoms: O_19  and  C_14 
ROOT
ATOM      1  C   UNL d   1     -41.738-122.549 -53.310  0.00  0.00     0.066 A 
ATOM      2  C   UNL d   1     -41.518-121.913 -52.833  0.00  0.00     0.200 A 
ATOM      3  C   UNL d   1     -41.566-122.751 -51.676  0.00  0.00     0.108 A 
ATOM      4  C   UNL d   1     -41.431-122.004 -52.025  0.00  0.00     0.062 A 
ATOM      5  C   UNL d   1     -41.476-122.832 -50.868  0.00  0.00     0.079 A 
ATOM      6  C   UNL d   1     -41.873-123.295 -52.961  0.00  0.00     0.126 A 
ATOM      7  O   UNL d   1     -41.789-123.400 -52.152  0.00  0.00    -0.305 OA
ATOM      8  C   UNL d   1     -41.211-121.370 -51.551  0.00  0.00     0.009 A 
ATOM      9  C   UNL d   1     -41.259-122.206 -50.391  0.00  0.00     0.199 A 
ATOM     10  O   UNL d   1     -41.385-121.178 -53.176  0.00  0.00    -0.286 OA
ATOM     11  C   UNL d   1     -41.123-121.460 -50.740  0.00  0.00     0.042 A 
ATOM     12  O   UNL d   1     -41.171-122.291 -49.591  0.00  0.00    -0.286 OA
ENDROOT
BRANCH   1  13
ATOM     13  C   UNL d   1     -41.832-122.447 -54.185  0.00  0.00     0.027 A 
ATOM     14  C   UNL d   1     -42.566-122.082 -54.508  0.00  0.00     0.094 A 
ATOM     15  C   UNL d   1     -42.670-121.974 -55.398  0.00  0.00     0.024 A 
ATOM     16  C   UNL d   1     -42.015-122.245 -55.943  0.00  0.00     0.002 A 
ATOM     17  C   UNL d   1     -41.282-122.611 -55.620  0.00  0.00     0.000 A 
ATOM     18  C   UNL d   1     -41.177-122.718 -54.741  0.00  0.00     0.002 A 
BRANCH  14  19
ATOM     19  O   UNL d   1     -43.220-121.810 -53.963  0.00  0.00    -0.328 OA
ATOM     20  C   UNL d   1     -44.004-121.544 -54.289  0.00  0.00     0.181 C 
ENDBRANCH  14  19
ENDBRANCH   1  13
BRANCH   5  21
ATOM     21  C   UNL d   1     -41.611-123.575 -50.521  0.00  0.00     0.085 C 
BRANCH  21  22
ATOM     22  N   UNL d   1     -42.101-123.636 -49.862  0.00  0.00    -0.302 N 
ATOM     23  C   UNL d   1     -41.774-123.645 -49.112  0.00  0.00     0.080 A 
ATOM     24  C   UNL d   1     -42.261-123.705 -48.458  0.00  0.00     0.019 A 
ATOM     25  C   UNL d   1     -43.075-123.757 -48.545  0.00  0.00     0.003 A 
ATOM     26  C   UNL d   1     -43.402-123.748 -49.295  0.00  0.00     0.019 A 
ATOM     27  C   UNL d   1     -43.559-123.817 -47.893  0.00  0.00     0.000 C 
ATOM     28  C   UNL d   1     -42.925-123.689 -49.949  0.00  0.00     0.080 A 
ENDBRANCH  21  22
ENDBRANCH   5  21
TORSDOF 4
ENDMDL
MODEL 3
REMARK VINA RESULT:      -0.4      1.053      1.495
REMARK  4 active torsions:
REMARK  status: ('A' for Active; 'I' for Inactive)
REMARK    1  A    between atoms: C_8  and  C_1 
REMARK    2  A    between atoms: C_10  and  C_5 
REMARK    3  A    between atoms: N_9  and  C_10 
REMARK    4  A    between atoms: O_19  and  C_14 
ROOT
ATOM      1  C   UNL d   1     -42.002-122.456 -50.602  0.00  0.00     0.066 A 
ATOM      2  C   UNL d   1     -41.723-123.135 -50.980  0.00  0.00     0.200 A 
ATOM      3  C   UNL d   1     -41.702-122.443 -52.230  0.00  0.00     0.108 A 
ATOM      4  C   UNL d   1     -41.572-123.137 -51.783  0.00  0.00     0.062 A 
ATOM      5  C   UNL d   1     -41.549-122.455 -53.033  0.00  0.00     0.079 A 
ATOM      6  C   UNL d   1     -42.131-121.763 -51.049  0.00  0.00     0.126 A 
ATOM      7  O   UNL d   1     -41.984-121.752 -51.856  0.00  0.00    -0.305 OA
ATOM      8  C   UNL d   1     -41.295-123.813 -52.158  0.00  0.00     0.009 A 
ATOM      9  C   UNL d   1     -41.273-123.124 -53.411  0.00  0.00     0.199 A 
ATOM     10  O   UNL d   1     -41.595-123.817 -50.540  0.00  0.00    -0.286 OA
ATOM     11  C   UNL d   1     -41.143-123.817 -52.964  0.00  0.00     0.042 A 
ATOM     12  O   UNL d   1     -41.123-123.131 -54.206  0.00  0.00    -0.286 OA
ENDROOT
BRANCH   1  13
ATOM     13  C   UNL d   1     -42.164-122.457 -49.732  0.00  0.00     0.027 A 
ATOM     14  C   UNL d   1     -42.974-122.637 -49.436  0.00  0.00     0.094 A 
ATOM     15  C   UNL d   1     -43.148-122.640 -48.550  0.00  0.00     0.024 A 
ATOM     16  C   UNL d   1     -42.484-122.456 -47.981  0.00  0.00     0.002 A 
ATOM     17  C   UNL d   1     -41.673-122.276 -48.277  0.00  0.00     0.000 A 
ATOM     18  C   UNL d   1     -41.499-122.273 -49.152  0.00  0.00     0.002 A 
BRANCH  14  19
ATOM     19  O   UNL d   1     -43.638-122.821 -50.006  0.00  0.00    -0.328 OA
ATOM     20  C   UNL d   1     -44.479-122.887 -49.719  0.00  0.00     0.181 C 
ENDBRANCH  14  19
ENDBRANCH   1  13
BRANCH   5  21
ATOM     21  C   UNL d   1     -41.678-121.765 -53.477  0.00  0.00     0.085 C 
BRANCH  21  22
ATOM     22  N   UNL d   1     -42.048-121.815 -54.212  0.00  0.00    -0.302 N 
ATOM     23  C   UNL d   1     -42.831-122.047 -54.258  0.00  0.00     0.080 A 
ATOM     24  C   UNL d   1     -43.196-122.096 -54.988  0.00  0.00     0.019 A 
ATOM     25  C   UNL d   1     -42.786-121.915 -55.675  0.00  0.00     0.003 A 
ATOM     26  C   UNL d   1     -42.003-121.683 -55.629  0.00  0.00     0.019 A 
ATOM     27  C   UNL d   1     -43.152-121.965 -56.401  0.00  0.00     0.000 C 
ATOM     28  C   UNL d   1     -41.634-121.632 -54.909  0.00  0.00     0.080 A 
ENDBRANCH  21  22
ENDBRANCH   5  21
TORSDOF 4
ENDMDL
