MODEL 1
REMARK VINA RESULT:     121.4      0.000      0.000
REMARK  4 active torsions:
REMARK  status: ('A' for Active; 'I' for Inactive)
REMARK    1  A    between atoms: N_11  and  C_4 
REMARK    2  A    between atoms: C_22  and  N_15 
REMARK    3  A    between atoms: O_29  and  C_17 
REMARK    4  A    between atoms: C_21  and  C_22 
ROOT
ATOM      1  N   UNL d   1      61.276  45.815  50.803  0.00  0.00    -0.195 N 
ATOM      2  C   UNL d   1      61.648  45.166  50.502  0.00  0.00     0.168 A 
ATOM      3  C   UNL d   1      61.557  44.454  50.840  0.00  0.00     0.073 A 
ATOM      4  C   UNL d   1      61.379  46.519  50.452  0.00  0.00     0.153 A 
ATOM      5  N   UNL d   1      60.719  45.041  51.782  0.00  0.00    -0.143 NA
ATOM      6  C   UNL d   1      61.092  44.392  51.482  0.00  0.00     0.185 A 
ATOM      7  N   UNL d   1      62.113  45.240  49.858  0.00  0.00    -0.227 NA
ATOM      8  C   UNL d   1      61.926  43.813  50.543  0.00  0.00     0.007 A 
ATOM      9  N   UNL d   1      60.990  43.677  51.835  0.00  0.00    -0.225 NA
ATOM     10  C   UNL d   1      61.838  46.596  49.815  0.00  0.00     0.057 A 
ATOM     11  C   UNL d   1      61.834  43.099  50.882  0.00  0.00     0.019 A 
ATOM     12  C   UNL d   1      62.210  45.947  49.514  0.00  0.00     0.086 A 
ATOM     13  C   UNL d   1      61.362  43.029  51.535  0.00  0.00     0.083 A 
ATOM     14  C   UNL d   1      62.392  43.887  49.897  0.00  0.00     0.000 C 
ATOM     15  C   UNL d   1      62.693  46.027  48.844  0.00  0.00     0.021 C 
ATOM     16  C   UNL d   1      61.267  42.322  51.877  0.00  0.00     0.021 C 
ENDROOT
BRANCH   4  17
ATOM     17  N   UNL d   1      60.991  47.182  50.768  0.00  0.00    -0.286 N 
ATOM     18  C   UNL d   1      60.706  47.478  51.492  0.00  0.00     0.101 A 
ATOM     19  C   UNL d   1      60.336  48.214  51.530  0.00  0.00     0.100 A 
ATOM     20  N   UNL d   1      60.250  48.660  50.833  0.00  0.00    -0.300 N 
ATOM     21  C   UNL d   1      60.527  48.378  50.117  0.00  0.00     0.100 A 
ATOM     22  C   UNL d   1      60.901  47.635  50.076  0.00  0.00     0.101 A 
BRANCH  20  23
ATOM     23  C   UNL d   1      59.884  49.390  50.868  0.00  0.00     0.080 C 
BRANCH  23  24
ATOM     24  C   UNL d   1      59.060  49.463  50.736  0.00  0.00     0.020 A 
ATOM     25  C   UNL d   1      58.756  49.542  49.973  0.00  0.00     0.033 A 
ATOM     26  C   UNL d   1      57.934  49.615  49.844  0.00  0.00     0.162 A 
ATOM     27  F   UNL d   1      57.633  49.693  49.079  0.00  0.00    -0.202 F 
ATOM     28  C   UNL d   1      57.418  49.609  50.500  0.00  0.00     0.121 A 
ATOM     29  C   UNL d   1      57.714  49.531  51.271  0.00  0.00     0.027 A 
ATOM     30  C   UNL d   1      58.531  49.458  51.397  0.00  0.00     0.004 A 
BRANCH  28  31
ATOM     31  O   UNL d   1      56.603  49.681  50.376  0.00  0.00    -0.326 OA
ATOM     32  C   UNL d   1      56.167  49.053  50.067  0.00  0.00     0.181 C 
ENDBRANCH  28  31
ENDBRANCH  23  24
ENDBRANCH  20  23
ENDBRANCH   4  17
TORSDOF 4
ENDMDL
