MODEL 1
REMARK VINA RESULT:      42.1      0.000      0.000
REMARK  2 active torsions:
REMARK  status: ('A' for Active; 'I' for Inactive)
REMARK    1  A    between atoms: O_3  and  C_1 
REMARK    2  A    between atoms: C_2  and  O_3 
REMARK       I    between atoms: N_7  and  C_2 
ROOT
ATOM      1  C   UNL d   1      59.430  49.687  51.063  0.00  0.00     0.133 A 
ATOM      2  C   UNL d   1      60.139  49.675  50.615  0.00  0.00     0.106 A 
ATOM      3  C   UNL d   1      60.860  49.655  51.001  0.00  0.00     0.030 A 
ATOM      4  C   UNL d   1      59.463  49.678  51.885  0.00  0.00     0.083 A 
ATOM      5  C   UNL d   1      60.902  49.646  51.822  0.00  0.00     0.060 A 
ATOM      6  C   UNL d   1      60.194  49.658  52.270  0.00  0.00     0.025 A 
ATOM      7  N   UNL d   1      60.095  49.684  49.790  0.00  0.00    -0.242 NA
ATOM      8 CL   UNL d   1      58.766  49.690  52.326  0.00  0.00    -0.080 Cl
ATOM      9 CL   UNL d   1      61.629  49.626  52.216  0.00  0.00    -0.082 Cl
ATOM     10  C   UNL d   1      61.557  49.644  50.560  0.00  0.00     0.004 A 
ATOM     11  C   UNL d   1      60.792  49.673  49.349  0.00  0.00     0.099 A 
ATOM     12  C   UNL d   1      61.525  49.652  49.738  0.00  0.00     0.021 A 
ENDROOT
BRANCH   1  13
ATOM     13  O   UNL d   1      58.686  49.708  50.681  0.00  0.00    -0.257 OA
BRANCH  13  14
ATOM     14  C   UNL d   1      58.181  49.040  50.712  0.00  0.00     0.378 C 
ATOM     15  N   UNL d   1      57.471  49.041  50.303  0.00  0.00    -0.252 N 
ATOM     16  C   UNL d   1      56.976  48.379  50.338  0.00  0.00     0.085 A 
ATOM     17  C   UNL d   1      57.247  49.699  49.859  0.00  0.00     0.085 A 
ATOM     18  C   UNL d   1      56.261  48.377  49.928  0.00  0.00     0.019 A 
ATOM     19  C   UNL d   1      56.038  49.035  49.483  0.00  0.00     0.003 A 
ATOM     20  C   UNL d   1      56.531  49.691  49.450  0.00  0.00     0.019 A 
ATOM     21  O   UNL d   1      58.407  48.372  51.163  0.00  0.00    -0.237 OA
ENDBRANCH  13  14
ENDBRANCH   1  13
TORSDOF 2
ENDMDL
