MODEL 1
REMARK VINA RESULT:      72.0      0.000      0.000
REMARK  7 active torsions:
REMARK  status: ('A' for Active; 'I' for Inactive)
REMARK    1  A    between atoms: C_11  and  C_3 
REMARK    2  A    between atoms: C_10  and  C_5 
REMARK    3  A    between atoms: O_22  and  C_13 
REMARK    4  A    between atoms: O_25  and  C_14 
REMARK    5  A    between atoms: O_24  and  C_15 
REMARK    6  A    between atoms: O_26  and  C_21 
REMARK    7  A    between atoms: C_30  and  O_26 
ROOT
ATOM      1  N   UNL d   1      45.915 -17.559  42.167  0.00  0.00    -0.208 N 
ATOM      2  N   UNL d   1      45.710 -17.033  41.569  0.00  0.00    -0.162 NA
ATOM      3  C   UNL d   1      46.025 -17.450  42.977  0.00  0.00     0.184 A 
ATOM      4  C   UNL d   1      46.013 -18.308  41.836  0.00  0.00     0.088 A 
ATOM      5  C   UNL d   1      45.681 -17.461  40.858  0.00  0.00     0.126 A 
ATOM      6  O   UNL d   1      46.232 -18.088  43.454  0.00  0.00    -0.287 OA
ATOM      7  C   UNL d   1      46.221 -18.949  42.315  0.00  0.00     0.043 A 
ATOM      8  C   UNL d   1      46.330 -18.837  43.123  0.00  0.00     0.126 A 
ATOM      9  C   UNL d   1      45.869 -18.251  41.025  0.00  0.00     0.042 A 
ATOM     10  C   UNL d   1      46.537 -19.467  43.605  0.00  0.00     0.123 A 
ATOM     11  C   UNL d   1      46.319 -19.695  41.982  0.00  0.00     0.004 A 
ATOM     12  C   UNL d   1      46.525 -20.330  42.457  0.00  0.00     0.002 A 
ATOM     13  C   UNL d   1      46.635 -20.216  43.273  0.00  0.00     0.027 A 
ENDROOT
BRANCH   3  14
ATOM     14  C   UNL d   1      45.926 -16.701  43.308  0.00  0.00     0.045 A 
ATOM     15  C   UNL d   1      45.433 -16.600  43.969  0.00  0.00     0.030 A 
ATOM     16  C   UNL d   1      45.335 -15.851  44.300  0.00  0.00     0.118 A 
ATOM     17  C   UNL d   1      45.722 -15.202  43.981  0.00  0.00     0.138 A 
ATOM     18  C   UNL d   1      46.218 -15.303  43.317  0.00  0.00     0.118 A 
ATOM     19  C   UNL d   1      46.316 -16.052  42.985  0.00  0.00     0.030 A 
BRANCH  16  20
ATOM     20  O   UNL d   1      44.845 -15.755  44.955  0.00  0.00    -0.326 OA
ATOM     21  C   UNL d   1      44.026 -15.826  44.873  0.00  0.00     0.181 C 
ENDBRANCH  16  20
BRANCH  17  22
ATOM     22  O   UNL d   1      45.623 -14.452  44.313  0.00  0.00    -0.324 OA
ATOM     23  C   UNL d   1      44.970 -14.300  44.794  0.00  0.00     0.182 C 
ENDBRANCH  17  22
BRANCH  18  24
ATOM     24  O   UNL d   1      46.610 -14.655  42.991  0.00  0.00    -0.326 OA
ATOM     25  C   UNL d   1      46.179 -14.053  42.622  0.00  0.00     0.181 C 
ENDBRANCH  18  24
ENDBRANCH   3  14
BRANCH   5  26
ATOM     26  C   UNL d   1      45.496 -17.151  40.108  0.00  0.00     0.119 A 
ATOM     27  O   UNL d   1      44.799 -17.284  39.688  0.00  0.00    -0.306 OA
ATOM     28  C   UNL d   1      44.861 -16.863  38.970  0.00  0.00     0.100 A 
ATOM     29  C   UNL d   1      44.286 -16.842  38.382  0.00  0.00     0.027 C 
ATOM     30  C   UNL d   1      45.594 -16.477  38.961  0.00  0.00     0.027 A 
ATOM     31  C   UNL d   1      45.995 -16.645  39.655  0.00  0.00     0.028 A 
ENDBRANCH   5  26
BRANCH  10  32
ATOM     32  O   UNL d   1      46.647 -19.357  44.415  0.00  0.00    -0.303 OA
BRANCH  32  33
ATOM     33  C   UNL d   1      46.050 -19.562  44.949  0.00  0.00     0.123 C 
ATOM     34  C   UNL d   1      45.571 -20.214  44.804  0.00  0.00     0.029 C 
ENDBRANCH  32  33
ENDBRANCH  10  32
TORSDOF 7
ENDMDL
