MODEL 1
REMARK VINA RESULT:     -10.8      0.000      0.000
REMARK  3 active torsions:
REMARK  status: ('A' for Active; 'I' for Inactive)
REMARK    1  A    between atoms: N_2  and  S_1 
REMARK    2  A    between atoms: C_4  and  S_1 
REMARK    3  A    between atoms: C_11  and  C_3 
ROOT
ATOM      1  N   UNL d   1      52.891  31.533  53.217  0.00  0.00    -0.213 N 
ATOM      2  C   UNL d   1      53.610  31.519  53.630  0.00  0.00     0.157 A 
ATOM      3  N   UNL d   1      53.904  30.748  53.587  0.00  0.00    -0.224 NA
ATOM      4  C   UNL d   1      52.747  30.775  52.923  0.00  0.00     0.114 A 
ATOM      5  C   UNL d   1      53.375  30.292  53.154  0.00  0.00     0.120 A 
ENDROOT
BRANCH   1   6
ATOM      6  S   UNL d   1      52.405  32.192  53.118  0.00  0.00     0.273 S 
ATOM      7  O   UNL d   1      51.992  31.991  53.803  0.00  0.00    -0.200 OA
ATOM      8  O   UNL d   1      52.816  32.393  52.436  0.00  0.00    -0.200 OA
BRANCH   6   9
ATOM      9  C   UNL d   1      51.921  32.849  53.018  0.00  0.00     0.104 A 
ATOM     10  C   UNL d   1      52.049  33.372  52.392  0.00  0.00     0.015 A 
ATOM     11  C   UNL d   1      51.567  34.035  52.285  0.00  0.00     0.028 A 
ATOM     12  C   UNL d   1      51.698  34.550  51.662  0.00  0.00     0.002 C 
ATOM     13  C   UNL d   1      50.946  34.170  52.819  0.00  0.00     0.140 A 
ATOM     14  C   UNL d   1      50.815  33.654  53.441  0.00  0.00     0.030 A 
ATOM     15  F   UNL d   1      50.462  34.827  52.719  0.00  0.00    -0.204 F 
ATOM     16  C   UNL d   1      51.302  32.995  53.541  0.00  0.00     0.015 A 
ENDBRANCH   6   9
ENDBRANCH   1   6
BRANCH   2  17
ATOM     17  C   UNL d   1      53.965  32.155  54.013  0.00  0.00     0.035 A 
ATOM     18  C   UNL d   1      53.790  32.311  54.806  0.00  0.00     0.003 A 
ATOM     19  C   UNL d   1      54.145  32.948  55.193  0.00  0.00     0.000 A 
ATOM     20  C   UNL d   1      54.675  33.429  54.783  0.00  0.00     0.000 A 
ATOM     21  C   UNL d   1      54.849  33.272  53.990  0.00  0.00     0.000 A 
ATOM     22  C   UNL d   1      54.494  32.636  53.607  0.00  0.00     0.003 A 
ENDBRANCH   2  17
TORSDOF 3
ENDMDL
MODEL 2
REMARK VINA RESULT:     -10.3      1.525      3.194
REMARK  3 active torsions:
REMARK  status: ('A' for Active; 'I' for Inactive)
REMARK    1  A    between atoms: N_2  and  S_1 
REMARK    2  A    between atoms: C_4  and  S_1 
REMARK    3  A    between atoms: C_11  and  C_3 
ROOT
ATOM      1  N   UNL d   1      53.234  31.786  53.395  0.00  0.00    -0.213 N 
ATOM      2  C   UNL d   1      52.560  32.035  52.981  0.00  0.00     0.157 A 
ATOM      3  N   UNL d   1      52.272  31.383  52.562  0.00  0.00    -0.224 NA
ATOM      4  C   UNL d   1      53.356  30.986  53.231  0.00  0.00     0.114 A 
ATOM      5  C   UNL d   1      52.761  30.740  52.716  0.00  0.00     0.120 A 
ENDROOT
BRANCH   1   6
ATOM      6  S   UNL d   1      53.700  32.257  53.887  0.00  0.00     0.273 S 
ATOM      7  O   UNL d   1      53.241  32.034  54.535  0.00  0.00    -0.200 OA
ATOM      8  O   UNL d   1      54.156  32.479  53.241  0.00  0.00    -0.200 OA
BRANCH   6   9
ATOM      9  C   UNL d   1      54.164  32.726  54.377  0.00  0.00     0.104 A 
ATOM     10  C   UNL d   1      54.818  33.129  54.072  0.00  0.00     0.015 A 
ATOM     11  C   UNL d   1      55.290  33.602  54.557  0.00  0.00     0.028 A 
ATOM     12  C   UNL d   1      55.937  34.000  54.251  0.00  0.00     0.002 C 
ATOM     13  C   UNL d   1      55.099  33.670  55.362  0.00  0.00     0.140 A 
ATOM     14  C   UNL d   1      54.451  33.272  55.668  0.00  0.00     0.030 A 
ATOM     15  F   UNL d   1      55.563  34.139  55.852  0.00  0.00    -0.204 F 
ATOM     16  C   UNL d   1      53.985  32.801  55.176  0.00  0.00     0.015 A 
ENDBRANCH   6   9
ENDBRANCH   1   6
BRANCH   2  17
ATOM     17  C   UNL d   1      52.237  32.793  52.986  0.00  0.00     0.035 A 
ATOM     18  C   UNL d   1      52.511  33.362  52.453  0.00  0.00     0.003 A 
ATOM     19  C   UNL d   1      52.190  34.122  52.455  0.00  0.00     0.000 A 
ATOM     20  C   UNL d   1      51.594  34.311  52.993  0.00  0.00     0.000 A 
ATOM     21  C   UNL d   1      51.320  33.740  53.526  0.00  0.00     0.000 A 
ATOM     22  C   UNL d   1      51.643  32.983  53.522  0.00  0.00     0.003 A 
ENDBRANCH   2  17
TORSDOF 3
ENDMDL
MODEL 3
REMARK VINA RESULT:      -9.7      1.265      2.244
REMARK  3 active torsions:
REMARK  status: ('A' for Active; 'I' for Inactive)
REMARK    1  A    between atoms: N_2  and  S_1 
REMARK    2  A    between atoms: C_4  and  S_1 
REMARK    3  A    between atoms: C_11  and  C_3 
ROOT
ATOM      1  N   UNL d   1      53.699  33.606  54.438  0.00  0.00    -0.213 N 
ATOM      2  C   UNL d   1      54.074  32.875  54.549  0.00  0.00     0.157 A 
ATOM      3  N   UNL d   1      54.646  32.978  55.137  0.00  0.00    -0.224 NA
ATOM      4  C   UNL d   1      54.040  34.152  54.954  0.00  0.00     0.114 A 
ATOM      5  C   UNL d   1      54.625  33.761  55.386  0.00  0.00     0.120 A 
ENDROOT
BRANCH   1   6
ATOM      6  S   UNL d   1      53.091  33.760  53.902  0.00  0.00     0.273 S 
ATOM      7  O   UNL d   1      53.648  33.923  53.316  0.00  0.00    -0.200 OA
ATOM      8  O   UNL d   1      52.537  33.597  54.485  0.00  0.00    -0.200 OA
BRANCH   6   9
ATOM      9  C   UNL d   1      52.485  33.913  53.368  0.00  0.00     0.104 A 
ATOM     10  C   UNL d   1      51.705  33.713  53.553  0.00  0.00     0.015 A 
ATOM     11  C   UNL d   1      51.089  33.863  53.023  0.00  0.00     0.028 A 
ATOM     12  C   UNL d   1      50.318  33.663  53.211  0.00  0.00     0.002 C 
ATOM     13  C   UNL d   1      51.265  34.221  52.294  0.00  0.00     0.140 A 
ATOM     14  C   UNL d   1      52.037  34.421  52.107  0.00  0.00     0.030 A 
ATOM     15  F   UNL d   1      50.659  34.374  51.761  0.00  0.00    -0.204 F 
ATOM     16  C   UNL d   1      52.646  34.267  52.643  0.00  0.00     0.015 A 
ENDBRANCH   6   9
ENDBRANCH   1   6
BRANCH   2  17
ATOM     17  C   UNL d   1      53.908  32.176  54.148  0.00  0.00     0.035 A 
ATOM     18  C   UNL d   1      53.376  31.631  54.469  0.00  0.00     0.003 A 
ATOM     19  C   UNL d   1      53.207  30.929  54.070  0.00  0.00     0.000 A 
ATOM     20  C   UNL d   1      53.572  30.774  53.347  0.00  0.00     0.000 A 
ATOM     21  C   UNL d   1      54.105  31.320  53.026  0.00  0.00     0.000 A 
ATOM     22  C   UNL d   1      54.271  32.019  53.426  0.00  0.00     0.003 A 
ENDBRANCH   2  17
TORSDOF 3
ENDMDL
MODEL 4
REMARK VINA RESULT:      -9.4      1.851      3.521
REMARK  3 active torsions:
REMARK  status: ('A' for Active; 'I' for Inactive)
REMARK    1  A    between atoms: N_2  and  S_1 
REMARK    2  A    between atoms: C_4  and  S_1 
REMARK    3  A    between atoms: C_11  and  C_3 
ROOT
ATOM      1  N   UNL d   1      54.063  33.097  54.373  0.00  0.00    -0.213 N 
ATOM      2  C   UNL d   1      53.659  33.816  54.294  0.00  0.00     0.157 A 
ATOM      3  N   UNL d   1      54.088  34.388  54.709  0.00  0.00    -0.224 NA
ATOM      4  C   UNL d   1      54.735  33.228  54.834  0.00  0.00     0.114 A 
ATOM      5  C   UNL d   1      54.748  34.027  55.040  0.00  0.00     0.120 A 
ENDROOT
BRANCH   1   6
ATOM      6  S   UNL d   1      53.832  32.375  54.047  0.00  0.00     0.273 S 
ATOM      7  O   UNL d   1      54.263  32.545  53.365  0.00  0.00    -0.200 OA
ATOM      8  O   UNL d   1      53.403  32.205  54.726  0.00  0.00    -0.200 OA
BRANCH   6   9
ATOM      9  C   UNL d   1      53.602  31.656  53.722  0.00  0.00     0.104 A 
ATOM     10  C   UNL d   1      53.441  31.009  54.211  0.00  0.00     0.015 A 
ATOM     11  C   UNL d   1      53.209  30.283  53.892  0.00  0.00     0.028 A 
ATOM     12  C   UNL d   1      53.050  29.644  54.380  0.00  0.00     0.002 C 
ATOM     13  C   UNL d   1      53.140  30.209  53.068  0.00  0.00     0.140 A 
ATOM     14  C   UNL d   1      53.299  30.847  52.580  0.00  0.00     0.030 A 
ATOM     15  F   UNL d   1      52.910  29.489  52.743  0.00  0.00    -0.204 F 
ATOM     16  C   UNL d   1      53.530  31.570  52.907  0.00  0.00     0.015 A 
ENDBRANCH   6   9
ENDBRANCH   1   6
BRANCH   2  17
ATOM     17  C   UNL d   1      52.958  33.939  53.878  0.00  0.00     0.035 A 
ATOM     18  C   UNL d   1      52.983  34.218  53.100  0.00  0.00     0.003 A 
ATOM     19  C   UNL d   1      52.283  34.342  52.680  0.00  0.00     0.000 A 
ATOM     20  C   UNL d   1      51.559  34.185  53.042  0.00  0.00     0.000 A 
ATOM     21  C   UNL d   1      51.535  33.906  53.820  0.00  0.00     0.000 A 
ATOM     22  C   UNL d   1      52.235  33.784  54.236  0.00  0.00     0.003 A 
ENDBRANCH   2  17
TORSDOF 3
ENDMDL
MODEL 5
REMARK VINA RESULT:      -9.0      1.728      3.140
REMARK  3 active torsions:
REMARK  status: ('A' for Active; 'I' for Inactive)
REMARK    1  A    between atoms: N_2  and  S_1 
REMARK    2  A    between atoms: C_4  and  S_1 
REMARK    3  A    between atoms: C_11  and  C_3 
ROOT
ATOM      1  N   UNL d   1      52.524  32.980  53.164  0.00  0.00    -0.213 N 
ATOM      2  C   UNL d   1      52.968  33.589  53.509  0.00  0.00     0.157 A 
ATOM      3  N   UNL d   1      52.596  34.302  53.320  0.00  0.00    -0.224 NA
ATOM      4  C   UNL d   1      51.884  33.319  52.768  0.00  0.00     0.114 A 
ATOM      5  C   UNL d   1      51.932  34.137  52.865  0.00  0.00     0.120 A 
ENDROOT
BRANCH   1   6
ATOM      6  S   UNL d   1      52.693  32.173  53.211  0.00  0.00     0.273 S 
ATOM      7  O   UNL d   1      53.158  32.232  52.532  0.00  0.00    -0.200 OA
ATOM      8  O   UNL d   1      52.230  32.116  53.887  0.00  0.00    -0.200 OA
BRANCH   6   9
ATOM      9  C   UNL d   1      52.861  31.370  53.258  0.00  0.00     0.104 A 
ATOM     10  C   UNL d   1      52.832  30.978  53.985  0.00  0.00     0.015 A 
ATOM     11  C   UNL d   1      52.999  30.172  54.040  0.00  0.00     0.028 A 
ATOM     12  C   UNL d   1      52.969  29.788  54.763  0.00  0.00     0.002 C 
ATOM     13  C   UNL d   1      53.199  29.754  53.351  0.00  0.00     0.140 A 
ATOM     14  C   UNL d   1      53.229  30.138  52.628  0.00  0.00     0.030 A 
ATOM     15  F   UNL d   1      53.367  28.951  53.398  0.00  0.00    -0.204 F 
ATOM     16  C   UNL d   1      53.060  30.945  52.582  0.00  0.00     0.015 A 
ENDBRANCH   6   9
ENDBRANCH   1   6
BRANCH   2  17
ATOM     17  C   UNL d   1      53.654  33.499  53.956  0.00  0.00     0.035 A 
ATOM     18  C   UNL d   1      53.609  33.477  54.781  0.00  0.00     0.003 A 
ATOM     19  C   UNL d   1      54.293  33.387  55.233  0.00  0.00     0.000 A 
ATOM     20  C   UNL d   1      55.024  33.321  54.856  0.00  0.00     0.000 A 
ATOM     21  C   UNL d   1      55.068  33.344  54.030  0.00  0.00     0.000 A 
ATOM     22  C   UNL d   1      54.383  33.433  53.582  0.00  0.00     0.003 A 
ENDBRANCH   2  17
TORSDOF 3
ENDMDL
MODEL 6
REMARK VINA RESULT:      -8.2      1.815      3.386
REMARK  3 active torsions:
REMARK  status: ('A' for Active; 'I' for Inactive)
REMARK    1  A    between atoms: N_2  and  S_1 
REMARK    2  A    between atoms: C_4  and  S_1 
REMARK    3  A    between atoms: C_11  and  C_3 
ROOT
ATOM      1  N   UNL d   1      52.468  33.531  53.185  0.00  0.00    -0.213 N 
ATOM      2  C   UNL d   1      52.161  32.856  52.815  0.00  0.00     0.157 A 
ATOM      3  N   UNL d   1      51.566  33.106  52.299  0.00  0.00    -0.224 NA
ATOM      4  C   UNL d   1      52.063  34.190  52.897  0.00  0.00     0.114 A 
ATOM      5  C   UNL d   1      51.506  33.924  52.349  0.00  0.00     0.120 A 
ENDROOT
BRANCH   1   6
ATOM      6  S   UNL d   1      53.074  33.541  53.745  0.00  0.00     0.273 S 
ATOM      7  O   UNL d   1      53.632  33.593  53.140  0.00  0.00    -0.200 OA
ATOM      8  O   UNL d   1      52.518  33.489  54.347  0.00  0.00    -0.200 OA
BRANCH   6   9
ATOM      9  C   UNL d   1      53.678  33.551  54.303  0.00  0.00     0.104 A 
ATOM     10  C   UNL d   1      54.461  33.670  54.069  0.00  0.00     0.015 A 
ATOM     11  C   UNL d   1      55.074  33.682  54.623  0.00  0.00     0.028 A 
ATOM     12  C   UNL d   1      55.849  33.800  54.386  0.00  0.00     0.002 C 
ATOM     13  C   UNL d   1      54.893  33.572  55.425  0.00  0.00     0.140 A 
ATOM     14  C   UNL d   1      54.118  33.453  55.662  0.00  0.00     0.030 A 
ATOM     15  F   UNL d   1      55.496  33.582  55.983  0.00  0.00    -0.204 F 
ATOM     16  C   UNL d   1      53.511  33.443  55.102  0.00  0.00     0.015 A 
ENDBRANCH   6   9
ENDBRANCH   1   6
BRANCH   2  17
ATOM     17  C   UNL d   1      52.404  32.078  52.940  0.00  0.00     0.035 A 
ATOM     18  C   UNL d   1      51.987  31.593  53.463  0.00  0.00     0.003 A 
ATOM     19  C   UNL d   1      52.228  30.814  53.590  0.00  0.00     0.000 A 
ATOM     20  C   UNL d   1      52.888  30.522  53.190  0.00  0.00     0.000 A 
ATOM     21  C   UNL d   1      53.304  31.009  52.666  0.00  0.00     0.000 A 
ATOM     22  C   UNL d   1      53.062  31.785  52.542  0.00  0.00     0.003 A 
ENDBRANCH   2  17
TORSDOF 3
ENDMDL
