MODEL 1
REMARK VINA RESULT:      -5.4      0.000      0.000
REMARK  7 active torsions:
REMARK  status: ('A' for Active; 'I' for Inactive)
REMARK    1  A    between atoms: C_7  and  C_1 
REMARK    2  A    between atoms: C_8  and  C_3 
REMARK    3  A    between atoms: O_17  and  C_7 
REMARK    4  A    between atoms: N_11  and  C_10 
REMARK    5  A    between atoms: C_19  and  N_11 
REMARK    6  A    between atoms: C_20  and  N_11 
REMARK    7  A    between atoms: C_21  and  O_17 
ROOT
ATOM      1  C   UNL d   1     -39.559  14.745  17.549  0.00  0.00     0.099 A 
ATOM      2  C   UNL d   1     -39.722  14.749  16.754  0.00  0.00     0.093 A 
ATOM      3  C   UNL d   1     -40.100  15.075  18.096  0.00  0.00     0.093 A 
ATOM      4  C   UNL d   1     -40.968  15.413  17.033  0.00  0.00     0.369 A 
ATOM      5  N   UNL d   1     -40.427  15.083  16.486  0.00  0.00    -0.191 NA
ATOM      6  N   UNL d   1     -40.796  15.405  17.839  0.00  0.00    -0.191 NA
ATOM      7  O   UNL d   1     -41.681  15.750  16.753  0.00  0.00    -0.242 OA
ATOM      8  C   UNL d   1     -39.188  14.423  16.214  0.00  0.00     0.021 C 
ENDROOT
BRANCH   3   9
ATOM      9  C   UNL d   1     -39.928  15.067  18.903  0.00  0.00     0.018 A 
ATOM     10  C   UNL d   1     -40.255  14.488  19.389  0.00  0.00     0.003 A 
ATOM     11  C   UNL d   1     -40.082  14.480  20.195  0.00  0.00     0.018 A 
ATOM     12  C   UNL d   1     -39.584  15.045  20.528  0.00  0.00     0.064 A 
ATOM     13  C   UNL d   1     -39.257  15.624  20.041  0.00  0.00     0.018 A 
ATOM     14  C   UNL d   1     -39.430  15.632  19.235  0.00  0.00     0.003 A 
BRANCH  12  15
ATOM     15  N   UNL d   1     -39.414  15.027  21.354  0.00  0.00    -0.304 N 
BRANCH  15  16
ATOM     16  C   UNL d   1     -38.849  14.513  21.652  0.00  0.00     0.080 C 
ATOM     17  C   UNL d   1     -39.014  14.051  22.310  0.00  0.00     0.021 C 
ENDBRANCH  15  16
BRANCH  15  18
ATOM     18  C   UNL d   1     -39.821  15.530  21.851  0.00  0.00     0.080 C 
ATOM     19  C   UNL d   1     -39.418  15.922  22.440  0.00  0.00     0.021 C 
ENDBRANCH  15  18
ENDBRANCH  12  15
ENDBRANCH   3   9
BRANCH   1  20
ATOM     20  C   UNL d   1     -38.835  14.401  17.819  0.00  0.00     0.303 C 
ATOM     21  O   UNL d   1     -38.190  14.888  17.984  0.00  0.00    -0.259 OA
BRANCH  20  22
ATOM     22  O   UNL d   1     -38.771  13.587  17.917  0.00  0.00    -0.271 OA
BRANCH  22  23
ATOM     23  C   UNL d   1     -38.041  13.216  17.826  0.00  0.00     0.126 C 
ATOM     24  C   UNL d   1     -37.942  12.432  18.067  0.00  0.00     0.029 C 
ENDBRANCH  22  23
ENDBRANCH  20  22
ENDBRANCH   1  20
TORSDOF 7
ENDMDL
MODEL 2
REMARK VINA RESULT:      -5.1      9.206     10.380
REMARK  7 active torsions:
REMARK  status: ('A' for Active; 'I' for Inactive)
REMARK    1  A    between atoms: C_7  and  C_1 
REMARK    2  A    between atoms: C_8  and  C_3 
REMARK    3  A    between atoms: O_17  and  C_7 
REMARK    4  A    between atoms: N_11  and  C_10 
REMARK    5  A    between atoms: C_19  and  N_11 
REMARK    6  A    between atoms: C_20  and  N_11 
REMARK    7  A    between atoms: C_21  and  O_17 
ROOT
ATOM      1  C   UNL d   1     -49.764  13.115  22.871  0.00  0.00     0.099 A 
ATOM      2  C   UNL d   1     -50.567  13.051  22.977  0.00  0.00     0.093 A 
ATOM      3  C   UNL d   1     -49.260  12.467  23.038  0.00  0.00     0.093 A 
ATOM      4  C   UNL d   1     -50.380  11.693  23.417  0.00  0.00     0.369 A 
ATOM      5  N   UNL d   1     -50.884  12.340  23.250  0.00  0.00    -0.191 NA
ATOM      6  N   UNL d   1     -49.566  11.766  23.307  0.00  0.00    -0.191 NA
ATOM      7  O   UNL d   1     -50.709  10.975  23.694  0.00  0.00    -0.242 OA
ATOM      8  C   UNL d   1     -51.064  13.690  22.813  0.00  0.00     0.021 C 
ENDROOT
BRANCH   3   9
ATOM      9  C   UNL d   1     -48.446  12.541  22.928  0.00  0.00     0.018 A 
ATOM     10  C   UNL d   1     -48.135  12.589  22.166  0.00  0.00     0.003 A 
ATOM     11  C   UNL d   1     -47.321  12.662  22.057  0.00  0.00     0.018 A 
ATOM     12  C   UNL d   1     -46.807  12.688  22.699  0.00  0.00     0.064 A 
ATOM     13  C   UNL d   1     -47.118  12.640  23.461  0.00  0.00     0.018 A 
ATOM     14  C   UNL d   1     -47.932  12.567  23.570  0.00  0.00     0.003 A 
BRANCH  12  15
ATOM     15  N   UNL d   1     -45.975  12.763  22.576  0.00  0.00    -0.304 N 
BRANCH  15  16
ATOM     16  C   UNL d   1     -45.458  12.210  22.886  0.00  0.00     0.080 C 
ATOM     17  C   UNL d   1     -44.709  12.113  22.562  0.00  0.00     0.021 C 
ENDBRANCH  15  16
BRANCH  15  18
ATOM     18  C   UNL d   1     -45.697  13.396  22.143  0.00  0.00     0.080 C 
ATOM     19  C   UNL d   1     -44.927  13.640  22.242  0.00  0.00     0.021 C 
ENDBRANCH  15  18
ENDBRANCH  12  15
ENDBRANCH   3   9
BRANCH   1  20
ATOM     20  C   UNL d   1     -49.444  13.846  22.590  0.00  0.00     0.303 C 
ATOM     21  O   UNL d   1     -49.312  13.948  21.783  0.00  0.00    -0.259 OA
BRANCH  20  22
ATOM     22  O   UNL d   1     -49.265  14.451  23.117  0.00  0.00    -0.271 OA
BRANCH  22  23
ATOM     23  C   UNL d   1     -49.296  15.237  22.869  0.00  0.00     0.126 C 
ATOM     24  C   UNL d   1     -48.937  15.828  23.321  0.00  0.00     0.029 C 
ENDBRANCH  22  23
ENDBRANCH  20  22
ENDBRANCH   1  20
TORSDOF 7
ENDMDL
MODEL 3
REMARK VINA RESULT:      -4.9      9.006     10.058
REMARK  7 active torsions:
REMARK  status: ('A' for Active; 'I' for Inactive)
REMARK    1  A    between atoms: C_7  and  C_1 
REMARK    2  A    between atoms: C_8  and  C_3 
REMARK    3  A    between atoms: O_17  and  C_7 
REMARK    4  A    between atoms: N_11  and  C_10 
REMARK    5  A    between atoms: C_19  and  N_11 
REMARK    6  A    between atoms: C_20  and  N_11 
REMARK    7  A    between atoms: C_21  and  O_17 
ROOT
ATOM      1  C   UNL d   1     -49.653  13.457  22.409  0.00  0.00     0.099 A 
ATOM      2  C   UNL d   1     -50.402  13.766  22.358  0.00  0.00     0.093 A 
ATOM      3  C   UNL d   1     -48.988  13.961  22.467  0.00  0.00     0.093 A 
ATOM      4  C   UNL d   1     -49.838  15.089  22.423  0.00  0.00     0.369 A 
ATOM      5  N   UNL d   1     -50.504  14.584  22.365  0.00  0.00    -0.191 NA
ATOM      6  N   UNL d   1     -49.081  14.767  22.474  0.00  0.00    -0.191 NA
ATOM      7  O   UNL d   1     -49.950  15.919  22.429  0.00  0.00    -0.242 OA
ATOM      8  C   UNL d   1     -51.059  13.268  22.301  0.00  0.00     0.021 C 
ENDROOT
BRANCH   3   9
ATOM      9  C   UNL d   1     -48.230  13.639  22.518  0.00  0.00     0.018 A 
ATOM     10  C   UNL d   1     -47.862  13.341  21.843  0.00  0.00     0.003 A 
ATOM     11  C   UNL d   1     -47.104  13.019  21.894  0.00  0.00     0.018 A 
ATOM     12  C   UNL d   1     -46.704  12.989  22.613  0.00  0.00     0.064 A 
ATOM     13  C   UNL d   1     -47.072  13.288  23.287  0.00  0.00     0.018 A 
ATOM     14  C   UNL d   1     -47.829  13.609  23.236  0.00  0.00     0.003 A 
BRANCH  12  15
ATOM     15  N   UNL d   1     -45.928  12.658  22.654  0.00  0.00    -0.304 N 
BRANCH  15  16
ATOM     16  C   UNL d   1     -45.389  12.788  22.051  0.00  0.00     0.080 C 
ATOM     17  C   UNL d   1     -44.891  13.440  22.073  0.00  0.00     0.021 C 
ENDBRANCH  15  16
BRANCH  15  18
ATOM     18  C   UNL d   1     -45.727  12.206  23.302  0.00  0.00     0.080 C 
ATOM     19  C   UNL d   1     -45.367  11.485  23.191  0.00  0.00     0.021 C 
ENDBRANCH  15  18
ENDBRANCH  12  15
ENDBRANCH   3   9
BRANCH   1  20
ATOM     20  C   UNL d   1     -49.554  12.617  22.402  0.00  0.00     0.303 C 
ATOM     21  O   UNL d   1     -49.376  12.234  21.693  0.00  0.00    -0.259 OA
BRANCH  20  22
ATOM     22  O   UNL d   1     -49.634  12.183  23.095  0.00  0.00    -0.271 OA
BRANCH  22  23
ATOM     23  C   UNL d   1     -49.908  11.405  23.067  0.00  0.00     0.126 C 
ATOM     24  C   UNL d   1     -49.705  10.873  23.664  0.00  0.00     0.029 C 
ENDBRANCH  22  23
ENDBRANCH  20  22
ENDBRANCH   1  20
TORSDOF 7
ENDMDL
MODEL 4
REMARK VINA RESULT:      -4.2      1.328      2.393
REMARK  7 active torsions:
REMARK  status: ('A' for Active; 'I' for Inactive)
REMARK    1  A    between atoms: C_7  and  C_1 
REMARK    2  A    between atoms: C_8  and  C_3 
REMARK    3  A    between atoms: O_17  and  C_7 
REMARK    4  A    between atoms: N_11  and  C_10 
REMARK    5  A    between atoms: C_19  and  N_11 
REMARK    6  A    between atoms: C_20  and  N_11 
REMARK    7  A    between atoms: C_21  and  O_17 
ROOT
ATOM      1  C   UNL d   1     -38.936  14.129  17.302  0.00  0.00     0.099 A 
ATOM      2  C   UNL d   1     -38.642  13.735  16.657  0.00  0.00     0.093 A 
ATOM      3  C   UNL d   1     -38.920  13.776  18.061  0.00  0.00     0.093 A 
ATOM      4  C   UNL d   1     -38.308  12.626  17.512  0.00  0.00     0.369 A 
ATOM      5  N   UNL d   1     -38.325  12.980  16.754  0.00  0.00    -0.191 NA
ATOM      6  N   UNL d   1     -38.610  13.033  18.163  0.00  0.00    -0.191 NA
ATOM      7  O   UNL d   1     -37.985  11.859  17.603  0.00  0.00    -0.242 OA
ATOM      8  C   UNL d   1     -38.658  14.083  15.908  0.00  0.00     0.021 C 
ENDROOT
BRANCH   3   9
ATOM      9  C   UNL d   1     -39.222  14.184  18.712  0.00  0.00     0.018 A 
ATOM     10  C   UNL d   1     -39.993  14.042  18.967  0.00  0.00     0.003 A 
ATOM     11  C   UNL d   1     -40.294  14.449  19.617  0.00  0.00     0.018 A 
ATOM     12  C   UNL d   1     -39.835  15.001  20.021  0.00  0.00     0.064 A 
ATOM     13  C   UNL d   1     -39.064  15.143  19.766  0.00  0.00     0.018 A 
ATOM     14  C   UNL d   1     -38.764  14.735  19.116  0.00  0.00     0.003 A 
BRANCH  12  15
ATOM     15  N   UNL d   1     -40.154  15.413  20.686  0.00  0.00    -0.304 N 
BRANCH  15  16
ATOM     16  C   UNL d   1     -40.789  15.922  20.594  0.00  0.00     0.080 C 
ATOM     17  C   UNL d   1     -41.462  15.834  21.056  0.00  0.00     0.021 C 
ENDBRANCH  15  16
BRANCH  15  18
ATOM     18  C   UNL d   1     -39.818  15.295  21.420  0.00  0.00     0.080 C 
ATOM     19  C   UNL d   1     -39.786  15.913  21.948  0.00  0.00     0.021 C 
ENDBRANCH  15  18
ENDBRANCH  12  15
ENDBRANCH   3   9
BRANCH   1  20
ATOM     20  C   UNL d   1     -39.261  14.904  17.198  0.00  0.00     0.303 C 
ATOM     21  O   UNL d   1     -38.789  15.565  17.339  0.00  0.00    -0.259 OA
BRANCH  20  22
ATOM     22  O   UNL d   1     -40.041  14.999  16.957  0.00  0.00    -0.271 OA
BRANCH  22  23
ATOM     23  C   UNL d   1     -40.281  15.705  16.605  0.00  0.00     0.126 C 
ATOM     24  C   UNL d   1     -41.083  15.843  16.460  0.00  0.00     0.029 C 
ENDBRANCH  22  23
ENDBRANCH  20  22
ENDBRANCH   1  20
TORSDOF 7
ENDMDL
MODEL 5
REMARK VINA RESULT:      -4.0      8.755      9.954
REMARK  7 active torsions:
REMARK  status: ('A' for Active; 'I' for Inactive)
REMARK    1  A    between atoms: C_7  and  C_1 
REMARK    2  A    between atoms: C_8  and  C_3 
REMARK    3  A    between atoms: O_17  and  C_7 
REMARK    4  A    between atoms: N_11  and  C_10 
REMARK    5  A    between atoms: C_19  and  N_11 
REMARK    6  A    between atoms: C_20  and  N_11 
REMARK    7  A    between atoms: C_21  and  O_17 
ROOT
ATOM      1  C   UNL d   1     -46.653  13.700  22.734  0.00  0.00     0.099 A 
ATOM      2  C   UNL d   1     -45.877  13.938  22.700  0.00  0.00     0.093 A 
ATOM      3  C   UNL d   1     -46.851  12.887  22.713  0.00  0.00     0.093 A 
ATOM      4  C   UNL d   1     -45.480  12.556  22.624  0.00  0.00     0.369 A 
ATOM      5  N   UNL d   1     -45.282  13.369  22.644  0.00  0.00    -0.191 NA
ATOM      6  N   UNL d   1     -46.270  12.323  22.658  0.00  0.00    -0.191 NA
ATOM      7  O   UNL d   1     -44.870  11.985  22.567  0.00  0.00    -0.242 OA
ATOM      8  C   UNL d   1     -45.682  14.740  22.720  0.00  0.00     0.021 C 
ENDROOT
BRANCH   3   9
ATOM      9  C   UNL d   1     -47.642  12.655  22.748  0.00  0.00     0.018 A 
ATOM     10  C   UNL d   1     -48.054  12.487  22.054  0.00  0.00     0.003 A 
ATOM     11  C   UNL d   1     -48.844  12.254  22.089  0.00  0.00     0.018 A 
ATOM     12  C   UNL d   1     -49.234  12.186  22.811  0.00  0.00     0.064 A 
ATOM     13  C   UNL d   1     -48.822  12.354  23.505  0.00  0.00     0.018 A 
ATOM     14  C   UNL d   1     -48.032  12.586  23.469  0.00  0.00     0.003 A 
BRANCH  12  15
ATOM     15  N   UNL d   1     -50.044  11.947  22.836  0.00  0.00    -0.304 N 
BRANCH  15  16
ATOM     16  C   UNL d   1     -50.581  12.242  22.292  0.00  0.00     0.080 C 
ATOM     17  C   UNL d   1     -51.060  12.880  22.486  0.00  0.00     0.021 C 
ENDBRANCH  15  16
BRANCH  15  18
ATOM     18  C   UNL d   1     -50.281  11.418  23.409  0.00  0.00     0.080 C 
ATOM     19  C   UNL d   1     -51.058  11.412  23.650  0.00  0.00     0.021 C 
ENDBRANCH  15  18
ENDBRANCH  12  15
ENDBRANCH   3   9
BRANCH   1  20
ATOM     20  C   UNL d   1     -47.260  14.287  22.791  0.00  0.00     0.303 C 
ATOM     21  O   UNL d   1     -47.602  14.449  23.523  0.00  0.00    -0.259 OA
BRANCH  20  22
ATOM     22  O   UNL d   1     -47.509  14.694  22.121  0.00  0.00    -0.271 OA
BRANCH  22  23
ATOM     23  C   UNL d   1     -47.841  15.446  22.194  0.00  0.00     0.126 C 
ATOM     24  C   UNL d   1     -48.461  15.674  21.699  0.00  0.00     0.029 C 
ENDBRANCH  22  23
ENDBRANCH  20  22
ENDBRANCH   1  20
TORSDOF 7
ENDMDL
MODEL 6
REMARK VINA RESULT:      -3.4      7.800      8.912
REMARK  7 active torsions:
REMARK  status: ('A' for Active; 'I' for Inactive)
REMARK    1  A    between atoms: C_7  and  C_1 
REMARK    2  A    between atoms: C_8  and  C_3 
REMARK    3  A    between atoms: O_17  and  C_7 
REMARK    4  A    between atoms: N_11  and  C_10 
REMARK    5  A    between atoms: C_19  and  N_11 
REMARK    6  A    between atoms: C_20  and  N_11 
REMARK    7  A    between atoms: C_21  and  O_17 
ROOT
ATOM      1  C   UNL d   1     -47.760  13.471  22.387  0.00  0.00     0.099 A 
ATOM      2  C   UNL d   1     -48.293  14.064  22.233  0.00  0.00     0.093 A 
ATOM      3  C   UNL d   1     -46.985  13.651  22.646  0.00  0.00     0.093 A 
ATOM      4  C   UNL d   1     -47.289  15.030  22.594  0.00  0.00     0.369 A 
ATOM      5  N   UNL d   1     -48.064  14.850  22.335  0.00  0.00    -0.191 NA
ATOM      6  N   UNL d   1     -46.754  14.422  22.748  0.00  0.00    -0.191 NA
ATOM      7  O   UNL d   1     -47.064  15.830  22.695  0.00  0.00    -0.242 OA
ATOM      8  C   UNL d   1     -49.058  13.886  21.977  0.00  0.00     0.021 C 
ENDROOT
BRANCH   3   9
ATOM      9  C   UNL d   1     -46.450  13.042  22.800  0.00  0.00     0.018 A 
ATOM     10  C   UNL d   1     -46.544  12.569  23.468  0.00  0.00     0.003 A 
ATOM     11  C   UNL d   1     -46.009  11.960  23.622  0.00  0.00     0.018 A 
ATOM     12  C   UNL d   1     -45.376  11.815  23.117  0.00  0.00     0.064 A 
ATOM     13  C   UNL d   1     -45.282  12.288  22.448  0.00  0.00     0.018 A 
ATOM     14  C   UNL d   1     -45.817  12.896  22.295  0.00  0.00     0.003 A 
BRANCH  12  15
ATOM     15  N   UNL d   1     -44.834  11.189  23.283  0.00  0.00    -0.304 N 
BRANCH  15  16
ATOM     16  C   UNL d   1     -45.086  10.513  23.672  0.00  0.00     0.080 C 
ATOM     17  C   UNL d   1     -44.988   9.774  23.328  0.00  0.00     0.021 C 
ENDBRANCH  15  16
BRANCH  15  18
ATOM     18  C   UNL d   1     -44.057  11.269  23.051  0.00  0.00     0.080 C 
ATOM     19  C   UNL d   1     -43.476  10.863  23.452  0.00  0.00     0.021 C 
ENDBRANCH  15  18
ENDBRANCH  12  15
ENDBRANCH   3   9
BRANCH   1  20
ATOM     20  C   UNL d   1     -48.000  12.666  22.281  0.00  0.00     0.303 C 
ATOM     21  O   UNL d   1     -47.741  12.248  21.619  0.00  0.00    -0.259 OA
BRANCH  20  22
ATOM     22  O   UNL d   1     -48.486  12.301  22.834  0.00  0.00    -0.271 OA
BRANCH  22  23
ATOM     23  C   UNL d   1     -48.880  11.602  22.641  0.00  0.00     0.126 C 
ATOM     24  C   UNL d   1     -49.441  11.287  23.158  0.00  0.00     0.029 C 
ENDBRANCH  22  23
ENDBRANCH  20  22
ENDBRANCH   1  20
TORSDOF 7
ENDMDL
MODEL 7
REMARK VINA RESULT:      -3.2      1.524      2.572
REMARK  7 active torsions:
REMARK  status: ('A' for Active; 'I' for Inactive)
REMARK    1  A    between atoms: C_7  and  C_1 
REMARK    2  A    between atoms: C_8  and  C_3 
REMARK    3  A    between atoms: O_17  and  C_7 
REMARK    4  A    between atoms: N_11  and  C_10 
REMARK    5  A    between atoms: C_19  and  N_11 
REMARK    6  A    between atoms: C_20  and  N_11 
REMARK    7  A    between atoms: C_21  and  O_17 
ROOT
ATOM      1  C   UNL d   1     -39.603  14.707  18.762  0.00  0.00     0.099 A 
ATOM      2  C   UNL d   1     -39.825  14.752  17.983  0.00  0.00     0.093 A 
ATOM      3  C   UNL d   1     -39.088  14.102  19.024  0.00  0.00     0.093 A 
ATOM      4  C   UNL d   1     -39.023  13.589  17.709  0.00  0.00     0.369 A 
ATOM      5  N   UNL d   1     -39.538  14.195  17.447  0.00  0.00    -0.191 NA
ATOM      6  N   UNL d   1     -38.802  13.550  18.502  0.00  0.00    -0.191 NA
ATOM      7  O   UNL d   1     -38.736  13.026  17.159  0.00  0.00    -0.242 OA
ATOM      8  C   UNL d   1     -40.333  15.350  17.725  0.00  0.00     0.021 C 
ENDROOT
BRANCH   3   9
ATOM      9  C   UNL d   1     -38.867  14.063  19.818  0.00  0.00     0.018 A 
ATOM     10  C   UNL d   1     -38.267  14.550  20.104  0.00  0.00     0.003 A 
ATOM     11  C   UNL d   1     -38.046  14.511  20.897  0.00  0.00     0.018 A 
ATOM     12  C   UNL d   1     -38.417  13.990  21.415  0.00  0.00     0.064 A 
ATOM     13  C   UNL d   1     -39.017  13.503  21.130  0.00  0.00     0.018 A 
ATOM     14  C   UNL d   1     -39.237  13.542  20.336  0.00  0.00     0.003 A 
BRANCH  12  15
ATOM     15  N   UNL d   1     -38.184  13.958  22.226  0.00  0.00    -0.304 N 
BRANCH  15  16
ATOM     16  C   UNL d   1     -37.947  13.250  22.563  0.00  0.00     0.080 C 
ATOM     17  C   UNL d   1     -38.073  13.107  23.362  0.00  0.00     0.021 C 
ENDBRANCH  15  16
BRANCH  15  18
ATOM     18  C   UNL d   1     -38.198  14.644  22.667  0.00  0.00     0.080 C 
ATOM     19  C   UNL d   1     -37.969  14.621  23.448  0.00  0.00     0.021 C 
ENDBRANCH  15  18
ENDBRANCH  12  15
ENDBRANCH   3   9
BRANCH   1  20
ATOM     20  C   UNL d   1     -39.899  15.282  19.308  0.00  0.00     0.303 C 
ATOM     21  O   UNL d   1     -39.426  15.922  19.523  0.00  0.00    -0.259 OA
BRANCH  20  22
ATOM     22  O   UNL d   1     -40.655  15.205  19.623  0.00  0.00    -0.271 OA
BRANCH  22  23
ATOM     23  C   UNL d   1     -41.078  15.875  19.851  0.00  0.00     0.126 C 
ATOM     24  C   UNL d   1     -41.403  15.922  20.608  0.00  0.00     0.029 C 
ENDBRANCH  22  23
ENDBRANCH  20  22
ENDBRANCH   1  20
TORSDOF 7
ENDMDL
