MODEL 1
REMARK VINA RESULT:      -8.2      0.000      0.000
REMARK  4 active torsions:
REMARK  status: ('A' for Active; 'I' for Inactive)
REMARK    1  A    between atoms: C_7  and  C_1 
REMARK    2  A    between atoms: C_8  and  C_4 
REMARK    3  A    between atoms: O_9  and  C_7 
REMARK    4  A    between atoms: C_16  and  O_9 
ROOT
ATOM      1  C   UNL d   1     -47.445  13.727  22.679  0.00  0.00     0.098 A 
ATOM      2  C   UNL d   1     -46.846  14.294  22.635  0.00  0.00     0.075 A 
ATOM      3  C   UNL d   1     -45.906  13.274  22.287  0.00  0.00     0.354 A 
ATOM      4  C   UNL d   1     -47.257  12.949  22.526  0.00  0.00     0.093 A 
ATOM      5  N   UNL d   1     -46.061  14.082  22.438  0.00  0.00    -0.256 N 
ATOM      6  N   UNL d   1     -46.504  12.707  22.331  0.00  0.00    -0.192 NA
ATOM      7  O   UNL d   1     -45.118  13.059  22.088  0.00  0.00    -0.244 OA
ATOM      8  C   UNL d   1     -47.001  15.102  22.786  0.00  0.00     0.019 C 
ATOM      9  C   UNL d   1     -45.463  14.649  22.394  0.00  0.00     0.104 C 
ENDROOT
BRANCH   1  10
ATOM     10  C   UNL d   1     -48.197  13.969  22.875  0.00  0.00     0.303 C 
ATOM     11  O   UNL d   1     -48.510  13.740  23.603  0.00  0.00    -0.259 OA
BRANCH  10  12
ATOM     12  O   UNL d   1     -48.655  14.428  22.381  0.00  0.00    -0.273 OA
BRANCH  12  13
ATOM     13  C   UNL d   1     -49.328  14.810  22.633  0.00  0.00     0.103 A 
ATOM     14  C   UNL d   1     -49.288  15.273  23.314  0.00  0.00     0.025 A 
ATOM     15  C   UNL d   1     -49.897  15.721  23.689  0.00  0.00     0.002 A 
ATOM     16  C   UNL d   1     -50.670  15.788  23.445  0.00  0.00     0.000 A 
ATOM     17  C   UNL d   1     -51.061  15.467  22.814  0.00  0.00     0.000 A 
ATOM     18  C   UNL d   1     -50.742  14.954  22.218  0.00  0.00     0.002 A 
ATOM     19  C   UNL d   1     -49.987  14.681  22.160  0.00  0.00     0.025 A 
ENDBRANCH  12  13
ENDBRANCH  10  12
ENDBRANCH   1  10
BRANCH   4  20
ATOM     20  C   UNL d   1     -47.855  12.383  22.571  0.00  0.00     0.023 A 
ATOM     21  C   UNL d   1     -47.846  11.786  23.157  0.00  0.00     0.032 A 
ATOM     22  I   UNL d   1     -47.206  11.786  23.696  0.00  0.00    -0.043 I 
ATOM     23  C   UNL d   1     -48.444  11.219  23.201  0.00  0.00     0.006 A 
ATOM     24  C   UNL d   1     -49.049  11.248  22.663  0.00  0.00     0.000 A 
ATOM     25  C   UNL d   1     -49.081  11.823  22.078  0.00  0.00     0.000 A 
ATOM     26  C   UNL d   1     -48.483  12.389  22.034  0.00  0.00     0.002 A 
ENDBRANCH   4  20
TORSDOF 4
ENDMDL
MODEL 2
REMARK VINA RESULT:      -8.0      1.617      3.582
REMARK  4 active torsions:
REMARK  status: ('A' for Active; 'I' for Inactive)
REMARK    1  A    between atoms: C_7  and  C_1 
REMARK    2  A    between atoms: C_8  and  C_4 
REMARK    3  A    between atoms: O_9  and  C_7 
REMARK    4  A    between atoms: C_16  and  O_9 
ROOT
ATOM      1  C   UNL d   1     -48.892  14.003  22.784  0.00  0.00     0.098 A 
ATOM      2  C   UNL d   1     -48.916  14.780  23.059  0.00  0.00     0.075 A 
ATOM      3  C   UNL d   1     -50.336  14.688  23.197  0.00  0.00     0.354 A 
ATOM      4  C   UNL d   1     -49.591  13.589  22.723  0.00  0.00     0.093 A 
ATOM      5  N   UNL d   1     -49.638  15.144  23.273  0.00  0.00    -0.256 N 
ATOM      6  N   UNL d   1     -50.312  13.911  22.922  0.00  0.00    -0.192 NA
ATOM      7  O   UNL d   1     -51.064  15.052  23.411  0.00  0.00    -0.244 OA
ATOM      8  C   UNL d   1     -48.218  15.236  23.135  0.00  0.00     0.019 C 
ATOM      9  C   UNL d   1     -49.662  15.922  23.548  0.00  0.00     0.104 C 
ENDROOT
BRANCH   1  10
ATOM     10  C   UNL d   1     -48.170  13.681  22.585  0.00  0.00     0.303 C 
ATOM     11  O   UNL d   1     -48.003  13.549  21.788  0.00  0.00    -0.259 OA
BRANCH  10  12
ATOM     12  O   UNL d   1     -47.607  13.486  23.140  0.00  0.00    -0.273 OA
BRANCH  12  13
ATOM     13  C   UNL d   1     -46.850  13.261  22.939  0.00  0.00     0.103 A 
ATOM     14  C   UNL d   1     -46.423  13.736  22.417  0.00  0.00     0.025 A 
ATOM     15  C   UNL d   1     -45.639  13.631  22.123  0.00  0.00     0.002 A 
ATOM     16  C   UNL d   1     -45.132  13.020  22.302  0.00  0.00     0.000 A 
ATOM     17  C   UNL d   1     -45.221  12.375  22.781  0.00  0.00     0.000 A 
ATOM     18  C   UNL d   1     -45.902  12.165  23.241  0.00  0.00     0.002 A 
ATOM     19  C   UNL d   1     -46.599  12.565  23.295  0.00  0.00     0.025 A 
ENDBRANCH  12  13
ENDBRANCH  10  12
ENDBRANCH   1  10
BRANCH   4  20
ATOM     20  C   UNL d   1     -49.567  12.812  22.448  0.00  0.00     0.023 A 
ATOM     21  C   UNL d   1     -49.817  12.173  22.928  0.00  0.00     0.032 A 
ATOM     22  I   UNL d   1     -50.091  12.354  23.698  0.00  0.00    -0.043 I 
ATOM     23  C   UNL d   1     -49.793  11.396  22.653  0.00  0.00     0.006 A 
ATOM     24  C   UNL d   1     -49.521  11.255  21.903  0.00  0.00     0.000 A 
ATOM     25  C   UNL d   1     -49.271  11.864  21.413  0.00  0.00     0.000 A 
ATOM     26  C   UNL d   1     -49.294  12.641  21.688  0.00  0.00     0.002 A 
ENDBRANCH   4  20
TORSDOF 4
ENDMDL
MODEL 3
REMARK VINA RESULT:      -7.7      1.721      2.900
REMARK  4 active torsions:
REMARK  status: ('A' for Active; 'I' for Inactive)
REMARK    1  A    between atoms: C_7  and  C_1 
REMARK    2  A    between atoms: C_8  and  C_4 
REMARK    3  A    between atoms: O_9  and  C_7 
REMARK    4  A    between atoms: C_16  and  O_9 
ROOT
ATOM      1  C   UNL d   1     -47.208  12.080  23.193  0.00  0.00     0.098 A 
ATOM      2  C   UNL d   1     -47.158  11.274  23.361  0.00  0.00     0.075 A 
ATOM      3  C   UNL d   1     -45.742  11.395  23.522  0.00  0.00     0.354 A 
ATOM      4  C   UNL d   1     -46.524  12.522  23.194  0.00  0.00     0.093 A 
ATOM      5  N   UNL d   1     -46.424  10.909  23.530  0.00  0.00    -0.256 N 
ATOM      6  N   UNL d   1     -45.793  12.202  23.354  0.00  0.00    -0.192 NA
ATOM      7  O   UNL d   1     -45.003  11.032  23.691  0.00  0.00    -0.244 OA
ATOM      8  C   UNL d   1     -47.839  10.788  23.369  0.00  0.00     0.019 C 
ATOM      9  C   UNL d   1     -46.373  10.103  23.697  0.00  0.00     0.104 C 
ENDROOT
BRANCH   1  10
ATOM     10  C   UNL d   1     -47.940  12.400  23.033  0.00  0.00     0.303 C 
ATOM     11  O   UNL d   1     -48.284  12.898  23.594  0.00  0.00    -0.259 OA
BRANCH  10  12
ATOM     12  O   UNL d   1     -48.346  12.250  22.343  0.00  0.00    -0.273 OA
BRANCH  12  13
ATOM     13  C   UNL d   1     -49.135  12.425  22.249  0.00  0.00     0.103 A 
ATOM     14  C   UNL d   1     -49.671  12.151  22.814  0.00  0.00     0.025 A 
ATOM     15  C   UNL d   1     -50.508  12.254  22.847  0.00  0.00     0.002 A 
ATOM     16  C   UNL d   1     -50.968  12.657  22.311  0.00  0.00     0.000 A 
ATOM     17  C   UNL d   1     -50.776  13.053  21.633  0.00  0.00     0.000 A 
ATOM     18  C   UNL d   1     -50.004  13.151  21.295  0.00  0.00     0.002 A 
ATOM     19  C   UNL d   1     -49.306  12.869  21.580  0.00  0.00     0.025 A 
ENDBRANCH  12  13
ENDBRANCH  10  12
ENDBRANCH   1  10
BRANCH   4  20
ATOM     20  C   UNL d   1     -46.574  13.328  23.027  0.00  0.00     0.023 A 
ATOM     21  C   UNL d   1     -46.112  13.676  22.422  0.00  0.00     0.032 A 
ATOM     22  I   UNL d   1     -45.597  13.174  21.994  0.00  0.00    -0.043 I 
ATOM     23  C   UNL d   1     -46.163  14.482  22.255  0.00  0.00     0.006 A 
ATOM     24  C   UNL d   1     -46.672  14.940  22.688  0.00  0.00     0.000 A 
ATOM     25  C   UNL d   1     -47.136  14.623  23.286  0.00  0.00     0.000 A 
ATOM     26  C   UNL d   1     -47.085  13.817  23.454  0.00  0.00     0.002 A 
ENDBRANCH   4  20
TORSDOF 4
ENDMDL
MODEL 4
REMARK VINA RESULT:      -7.0      1.798      3.654
REMARK  4 active torsions:
REMARK  status: ('A' for Active; 'I' for Inactive)
REMARK    1  A    between atoms: C_7  and  C_1 
REMARK    2  A    between atoms: C_8  and  C_4 
REMARK    3  A    between atoms: O_9  and  C_7 
REMARK    4  A    between atoms: C_16  and  O_9 
ROOT
ATOM      1  C   UNL d   1     -48.608  13.731  22.735  0.00  0.00     0.098 A 
ATOM      2  C   UNL d   1     -48.234  14.457  22.617  0.00  0.00     0.075 A 
ATOM      3  C   UNL d   1     -49.506  15.111  22.609  0.00  0.00     0.354 A 
ATOM      4  C   UNL d   1     -49.420  13.715  22.787  0.00  0.00     0.093 A 
ATOM      5  N   UNL d   1     -48.673  15.167  22.551  0.00  0.00    -0.256 N 
ATOM      6  N   UNL d   1     -49.880  14.385  22.727  0.00  0.00    -0.192 NA
ATOM      7  O   UNL d   1     -49.949  15.822  22.542  0.00  0.00    -0.244 OA
ATOM      8  C   UNL d   1     -47.401  14.513  22.559  0.00  0.00     0.019 C 
ATOM      9  C   UNL d   1     -48.299  15.892  22.433  0.00  0.00     0.104 C 
ENDROOT
BRANCH   1  10
ATOM     10  C   UNL d   1     -48.149  13.061  22.795  0.00  0.00     0.303 C 
ATOM     11  O   UNL d   1     -48.163  12.515  22.177  0.00  0.00    -0.259 OA
BRANCH  10  12
ATOM     12  O   UNL d   1     -47.676  12.907  23.440  0.00  0.00    -0.273 OA
BRANCH  12  13
ATOM     13  C   UNL d   1     -47.032  12.409  23.406  0.00  0.00     0.103 A 
ATOM     14  C   UNL d   1     -46.312  12.711  23.140  0.00  0.00     0.025 A 
ATOM     15  C   UNL d   1     -45.570  12.318  23.053  0.00  0.00     0.002 A 
ATOM     16  C   UNL d   1     -45.413  11.538  23.219  0.00  0.00     0.000 A 
ATOM     17  C   UNL d   1     -45.886  10.945  23.498  0.00  0.00     0.000 A 
ATOM     18  C   UNL d   1     -46.709  10.994  23.698  0.00  0.00     0.002 A 
ATOM     19  C   UNL d   1     -47.187  11.640  23.650  0.00  0.00     0.025 A 
ENDBRANCH  12  13
ENDBRANCH  10  12
ENDBRANCH   1  10
BRANCH   4  20
ATOM     20  C   UNL d   1     -49.794  12.989  22.905  0.00  0.00     0.023 A 
ATOM     21  C   UNL d   1     -50.341  12.686  22.349  0.00  0.00     0.032 A 
ATOM     22  I   UNL d   1     -50.494  13.148  21.668  0.00  0.00    -0.043 I 
ATOM     23  C   UNL d   1     -50.715  11.960  22.467  0.00  0.00     0.006 A 
ATOM     24  C   UNL d   1     -50.544  11.538  23.137  0.00  0.00     0.000 A 
ATOM     25  C   UNL d   1     -50.012  11.813  23.698  0.00  0.00     0.000 A 
ATOM     26  C   UNL d   1     -49.638  12.539  23.580  0.00  0.00     0.002 A 
ENDBRANCH   4  20
TORSDOF 4
ENDMDL
MODEL 5
REMARK VINA RESULT:      -6.9      1.734      4.124
REMARK  4 active torsions:
REMARK  status: ('A' for Active; 'I' for Inactive)
REMARK    1  A    between atoms: C_7  and  C_1 
REMARK    2  A    between atoms: C_8  and  C_4 
REMARK    3  A    between atoms: O_9  and  C_7 
REMARK    4  A    between atoms: C_16  and  O_9 
ROOT
ATOM      1  C   UNL d   1     -48.816  12.751  22.786  0.00  0.00     0.098 A 
ATOM      2  C   UNL d   1     -48.944  11.996  23.093  0.00  0.00     0.075 A 
ATOM      3  C   UNL d   1     -50.308  12.334  23.358  0.00  0.00     0.354 A 
ATOM      4  C   UNL d   1     -49.438  13.277  22.774  0.00  0.00     0.093 A 
ATOM      5  N   UNL d   1     -49.693  11.766  23.387  0.00  0.00    -0.256 N 
ATOM      6  N   UNL d   1     -50.180  13.089  23.051  0.00  0.00    -0.192 NA
ATOM      7  O   UNL d   1     -51.062  12.106  23.653  0.00  0.00    -0.244 OA
ATOM      8  C   UNL d   1     -48.329  11.428  23.122  0.00  0.00     0.019 C 
ATOM      9  C   UNL d   1     -49.821  11.011  23.694  0.00  0.00     0.104 C 
ENDROOT
BRANCH   1  10
ATOM     10  C   UNL d   1     -48.074  12.938  22.508  0.00  0.00     0.303 C 
ATOM     11  O   UNL d   1     -47.922  12.858  21.702  0.00  0.00    -0.259 OA
BRANCH  10  12
ATOM     12  O   UNL d   1     -47.476  13.203  22.993  0.00  0.00    -0.273 OA
BRANCH  12  13
ATOM     13  C   UNL d   1     -46.689  13.058  22.842  0.00  0.00     0.103 A 
ATOM     14  C   UNL d   1     -46.338  12.391  23.179  0.00  0.00     0.025 A 
ATOM     15  C   UNL d   1     -45.543  12.117  23.112  0.00  0.00     0.002 A 
ATOM     16  C   UNL d   1     -44.944  12.467  22.687  0.00  0.00     0.000 A 
ATOM     17  C   UNL d   1     -44.931  13.136  22.234  0.00  0.00     0.000 A 
ATOM     18  C   UNL d   1     -45.575  13.667  22.081  0.00  0.00     0.002 A 
ATOM     19  C   UNL d   1     -46.330  13.613  22.356  0.00  0.00     0.025 A 
ENDBRANCH  12  13
ENDBRANCH  10  12
ENDBRANCH   1  10
BRANCH   4  20
ATOM     20  C   UNL d   1     -49.310  14.032  22.467  0.00  0.00     0.023 A 
ATOM     21  C   UNL d   1     -49.467  14.718  22.920  0.00  0.00     0.032 A 
ATOM     22  I   UNL d   1     -49.758  14.607  23.697  0.00  0.00    -0.043 I 
ATOM     23  C   UNL d   1     -49.339  15.473  22.613  0.00  0.00     0.006 A 
ATOM     24  C   UNL d   1     -49.057  15.544  21.858  0.00  0.00     0.000 A 
ATOM     25  C   UNL d   1     -48.895  14.888  21.392  0.00  0.00     0.000 A 
ATOM     26  C   UNL d   1     -49.023  14.132  21.699  0.00  0.00     0.002 A 
ENDBRANCH   4  20
TORSDOF 4
ENDMDL
MODEL 6
REMARK VINA RESULT:      -5.7      1.918      4.402
REMARK  4 active torsions:
REMARK  status: ('A' for Active; 'I' for Inactive)
REMARK    1  A    between atoms: C_7  and  C_1 
REMARK    2  A    between atoms: C_8  and  C_4 
REMARK    3  A    between atoms: O_9  and  C_7 
REMARK    4  A    between atoms: C_16  and  O_9 
ROOT
ATOM      1  C   UNL d   1     -48.428  12.628  23.044  0.00  0.00     0.098 A 
ATOM      2  C   UNL d   1     -48.832  11.944  23.265  0.00  0.00     0.075 A 
ATOM      3  C   UNL d   1     -50.034  12.704  23.416  0.00  0.00     0.354 A 
ATOM      4  C   UNL d   1     -48.838  13.332  23.015  0.00  0.00     0.093 A 
ATOM      5  N   UNL d   1     -49.646  11.963  23.458  0.00  0.00    -0.256 N 
ATOM      6  N   UNL d   1     -49.630  13.388  23.195  0.00  0.00    -0.192 NA
ATOM      7  O   UNL d   1     -50.853  12.725  23.609  0.00  0.00    -0.244 OA
ATOM      8  C   UNL d   1     -48.444  11.204  23.306  0.00  0.00     0.019 C 
ATOM      9  C   UNL d   1     -50.051  11.279  23.679  0.00  0.00     0.104 C 
ENDROOT
BRANCH   1  10
ATOM     10  C   UNL d   1     -47.635  12.572  22.863  0.00  0.00     0.303 C 
ATOM     11  O   UNL d   1     -47.408  12.591  22.071  0.00  0.00    -0.259 OA
BRANCH  10  12
ATOM     12  O   UNL d   1     -47.058  12.498  23.433  0.00  0.00    -0.273 OA
BRANCH  12  13
ATOM     13  C   UNL d   1     -46.339  12.144  23.288  0.00  0.00     0.103 A 
ATOM     14  C   UNL d   1     -45.813  12.515  22.772  0.00  0.00     0.025 A 
ATOM     15  C   UNL d   1     -45.043  12.269  22.530  0.00  0.00     0.002 A 
ATOM     16  C   UNL d   1     -44.653  11.595  22.765  0.00  0.00     0.000 A 
ATOM     17  C   UNL d   1     -44.871  10.999  23.266  0.00  0.00     0.000 A 
ATOM     18  C   UNL d   1     -45.600  10.927  23.694  0.00  0.00     0.002 A 
ATOM     19  C   UNL d   1     -46.224  11.436  23.688  0.00  0.00     0.025 A 
ENDBRANCH  12  13
ENDBRANCH  10  12
ENDBRANCH   1  10
BRANCH   4  20
ATOM     20  C   UNL d   1     -48.433  14.016  22.794  0.00  0.00     0.023 A 
ATOM     21  C   UNL d   1     -48.642  14.440  22.103  0.00  0.00     0.032 A 
ATOM     22  I   UNL d   1     -49.277  14.143  21.646  0.00  0.00    -0.043 I 
ATOM     23  C   UNL d   1     -48.238  15.124  21.882  0.00  0.00     0.006 A 
ATOM     24  C   UNL d   1     -47.628  15.385  22.347  0.00  0.00     0.000 A 
ATOM     25  C   UNL d   1     -47.403  14.987  23.029  0.00  0.00     0.000 A 
ATOM     26  C   UNL d   1     -47.807  14.302  23.250  0.00  0.00     0.002 A 
ENDBRANCH   4  20
TORSDOF 4
ENDMDL
MODEL 7
REMARK VINA RESULT:      -5.7      7.637      9.642
REMARK  4 active torsions:
REMARK  status: ('A' for Active; 'I' for Inactive)
REMARK    1  A    between atoms: C_7  and  C_1 
REMARK    2  A    between atoms: C_8  and  C_4 
REMARK    3  A    between atoms: O_9  and  C_7 
REMARK    4  A    between atoms: C_16  and  O_9 
ROOT
ATOM      1  C   UNL d   1     -39.240  14.097  20.689  0.00  0.00     0.098 A 
ATOM      2  C   UNL d   1     -38.600  13.653  20.959  0.00  0.00     0.075 A 
ATOM      3  C   UNL d   1     -39.242  13.499  22.227  0.00  0.00     0.354 A 
ATOM      4  C   UNL d   1     -39.864  14.231  21.195  0.00  0.00     0.093 A 
ATOM      5  N   UNL d   1     -38.584  13.341  21.736  0.00  0.00    -0.256 N 
ATOM      6  N   UNL d   1     -39.883  13.944  21.957  0.00  0.00    -0.192 NA
ATOM      7  O   UNL d   1     -39.228  13.187  23.009  0.00  0.00    -0.244 OA
ATOM      8  C   UNL d   1     -37.941  13.495  20.467  0.00  0.00     0.019 C 
ATOM      9  C   UNL d   1     -37.943  12.897  22.006  0.00  0.00     0.104 C 
ENDROOT
BRANCH   1  10
ATOM     10  C   UNL d   1     -39.222  14.384  19.927  0.00  0.00     0.303 C 
ATOM     11  O   UNL d   1     -38.872  15.119  19.789  0.00  0.00    -0.259 OA
BRANCH  10  12
ATOM     12  O   UNL d   1     -39.533  13.976  19.294  0.00  0.00    -0.273 OA
BRANCH  12  13
ATOM     13  C   UNL d   1     -39.234  14.038  18.539  0.00  0.00     0.103 A 
ATOM     14  C   UNL d   1     -39.243  14.775  18.169  0.00  0.00     0.025 A 
ATOM     15  C   UNL d   1     -38.971  14.987  17.399  0.00  0.00     0.002 A 
ATOM     16  C   UNL d   1     -38.634  14.490  16.851  0.00  0.00     0.000 A 
ATOM     17  C   UNL d   1     -38.470  13.699  16.876  0.00  0.00     0.000 A 
ATOM     18  C   UNL d   1     -38.617  13.163  17.517  0.00  0.00     0.002 A 
ATOM     19  C   UNL d   1     -38.950  13.332  18.230  0.00  0.00     0.025 A 
ENDBRANCH  12  13
ENDBRANCH  10  12
ENDBRANCH   1  10
BRANCH   4  20
ATOM     20  C   UNL d   1     -40.504  14.675  20.924  0.00  0.00     0.023 A 
ATOM     21  C   UNL d   1     -40.616  15.469  21.166  0.00  0.00     0.032 A 
ATOM     22  I   UNL d   1     -40.052  15.793  21.693  0.00  0.00    -0.043 I 
ATOM     23  C   UNL d   1     -41.256  15.913  20.896  0.00  0.00     0.006 A 
ATOM     24  C   UNL d   1     -41.783  15.568  20.386  0.00  0.00     0.000 A 
ATOM     25  C   UNL d   1     -41.696  14.792  20.134  0.00  0.00     0.000 A 
ATOM     26  C   UNL d   1     -41.056  14.348  20.405  0.00  0.00     0.002 A 
ENDBRANCH   4  20
TORSDOF 4
ENDMDL
