MODEL 1
REMARK VINA RESULT:      68.9      0.000      0.000
REMARK  3 active torsions:
REMARK  status: ('A' for Active; 'I' for Inactive)
REMARK    1  A    between atoms: N_2  and  S_1 
REMARK    2  A    between atoms: C_3  and  S_1 
REMARK    3  A    between atoms: C_10  and  C_9 
ROOT
ATOM      1  C   UNL d   1     -49.359  26.458  33.941  0.00  0.00     0.104 A 
ATOM      2  C   UNL d   1     -48.730  27.847  34.592  0.00  0.00     0.000 A 
ATOM      3  C   UNL d   1     -49.450  26.616  34.745  0.00  0.00     0.013 A 
ATOM      4  C   UNL d   1     -48.954  26.992  33.463  0.00  0.00     0.013 A 
ATOM      5  C   UNL d   1     -48.638  27.690  33.790  0.00  0.00     0.001 A 
ATOM      6  C   UNL d   1     -49.134  27.314  35.072  0.00  0.00     0.001 A 
ENDROOT
BRANCH   1   7
ATOM      7  S   UNL d   1     -49.674  25.766  33.622  0.00  0.00     0.271 S 
ATOM      8  O   UNL d   1     -48.940  25.403  33.673  0.00  0.00    -0.200 OA
ATOM      9  O   UNL d   1     -49.982  25.079  33.306  0.00  0.00    -0.200 OA
BRANCH   7  10
ATOM     10  N   UNL d   1     -50.404  26.127  33.571  0.00  0.00    -0.226 N 
ATOM     11  C   UNL d   1     -50.458  26.921  33.355  0.00  0.00     0.111 A 
ATOM     12  C   UNL d   1     -51.202  27.275  33.307  0.00  0.00     0.100 A 
ATOM     13  N   UNL d   1     -51.882  26.846  33.471  0.00  0.00    -0.299 N 
ATOM     14  C   UNL d   1     -51.832  26.055  33.686  0.00  0.00     0.100 A 
ATOM     15  C   UNL d   1     -52.620  27.211  33.419  0.00  0.00     0.100 C 
ATOM     16  C   UNL d   1     -51.090  25.687  33.738  0.00  0.00     0.111 A 
ENDBRANCH   7  10
ENDBRANCH   1   7
BRANCH   2  17
ATOM     17  C   UNL d   1     -48.422  28.531  34.917  0.00  0.00     0.000 A 
ATOM     18  C   UNL d   1     -48.443  29.243  34.491  0.00  0.00     0.000 A 
ATOM     19  C   UNL d   1     -48.131  29.930  34.824  0.00  0.00     0.000 A 
ATOM     20  C   UNL d   1     -47.799  29.909  35.576  0.00  0.00     0.000 A 
ATOM     21  C   UNL d   1     -47.775  29.196  36.006  0.00  0.00     0.000 A 
ATOM     22  C   UNL d   1     -47.486  30.597  35.908  0.00  0.00     0.000 C 
ATOM     23  C   UNL d   1     -48.089  28.510  35.671  0.00  0.00     0.000 A 
ENDBRANCH   2  17
TORSDOF 3
ENDMDL
MODEL 2
REMARK VINA RESULT:      70.0      3.006      4.805
REMARK  3 active torsions:
REMARK  status: ('A' for Active; 'I' for Inactive)
REMARK    1  A    between atoms: N_2  and  S_1 
REMARK    2  A    between atoms: C_3  and  S_1 
REMARK    3  A    between atoms: C_10  and  C_9 
ROOT
ATOM      1  C   UNL d   1     -47.629  29.785  35.558  0.00  0.00     0.104 A 
ATOM      2  C   UNL d   1     -48.596  28.673  34.797  0.00  0.00     0.000 A 
ATOM      3  C   UNL d   1     -48.331  29.536  35.912  0.00  0.00     0.013 A 
ATOM      4  C   UNL d   1     -47.410  29.479  34.826  0.00  0.00     0.013 A 
ATOM      5  C   UNL d   1     -47.895  28.921  34.443  0.00  0.00     0.001 A 
ATOM      6  C   UNL d   1     -48.816  28.978  35.529  0.00  0.00     0.001 A 
ENDROOT
BRANCH   1   7
ATOM      7  S   UNL d   1     -47.152  30.338  35.940  0.00  0.00     0.271 S 
ATOM      8  O   UNL d   1     -46.945  29.778  36.503  0.00  0.00    -0.200 OA
ATOM      9  O   UNL d   1     -46.678  30.884  36.321  0.00  0.00    -0.200 OA
BRANCH   7  10
ATOM     10  N   UNL d   1     -47.358  30.896  35.380  0.00  0.00    -0.226 N 
ATOM     11  C   UNL d   1     -46.881  31.012  34.718  0.00  0.00     0.111 A 
ATOM     12  C   UNL d   1     -47.100  31.578  34.159  0.00  0.00     0.100 A 
ATOM     13  N   UNL d   1     -47.783  32.022  34.258  0.00  0.00    -0.299 N 
ATOM     14  C   UNL d   1     -48.261  31.909  34.916  0.00  0.00     0.100 A 
ATOM     15  C   UNL d   1     -47.991  32.586  33.692  0.00  0.00     0.100 C 
ATOM     16  C   UNL d   1     -48.052  31.343  35.485  0.00  0.00     0.111 A 
ENDBRANCH   7  10
ENDBRANCH   1   7
BRANCH   2  17
ATOM     17  C   UNL d   1     -49.075  28.125  34.426  0.00  0.00     0.000 A 
ATOM     18  C   UNL d   1     -49.524  28.345  33.763  0.00  0.00     0.000 A 
ATOM     19  C   UNL d   1     -50.007  27.788  33.391  0.00  0.00     0.000 A 
ATOM     20  C   UNL d   1     -50.043  27.018  33.677  0.00  0.00     0.000 A 
ATOM     21  C   UNL d   1     -49.593  26.794  34.343  0.00  0.00     0.000 A 
ATOM     22  C   UNL d   1     -50.525  26.461  33.306  0.00  0.00     0.000 C 
ATOM     23  C   UNL d   1     -49.111  27.353  34.712  0.00  0.00     0.000 A 
ENDBRANCH   2  17
TORSDOF 3
ENDMDL
MODEL 3
REMARK VINA RESULT:      70.0      2.659      4.137
REMARK  3 active torsions:
REMARK  status: ('A' for Active; 'I' for Inactive)
REMARK    1  A    between atoms: N_2  and  S_1 
REMARK    2  A    between atoms: C_3  and  S_1 
REMARK    3  A    between atoms: C_10  and  C_9 
ROOT
ATOM      1  C   UNL d   1     -52.800  24.324  33.996  0.00  0.00     0.104 A 
ATOM      2  C   UNL d   1     -51.620  25.466  33.766  0.00  0.00     0.000 A 
ATOM      3  C   UNL d   1     -52.068  24.241  34.365  0.00  0.00     0.013 A 
ATOM      4  C   UNL d   1     -52.944  24.975  33.513  0.00  0.00     0.013 A 
ATOM      5  C   UNL d   1     -52.351  25.549  33.398  0.00  0.00     0.001 A 
ATOM      6  C   UNL d   1     -51.475  24.815  34.249  0.00  0.00     0.001 A 
ENDROOT
BRANCH   1   7
ATOM      7  S   UNL d   1     -53.385  23.754  34.114  0.00  0.00     0.271 S 
ATOM      8  O   UNL d   1     -53.419  23.615  33.306  0.00  0.00    -0.200 OA
ATOM      9  O   UNL d   1     -53.963  23.188  34.227  0.00  0.00    -0.200 OA
BRANCH   7  10
ATOM     10  N   UNL d   1     -53.350  23.892  34.918  0.00  0.00    -0.226 N 
ATOM     11  C   UNL d   1     -53.591  24.618  35.223  0.00  0.00     0.111 A 
ATOM     12  C   UNL d   1     -53.551  24.746  36.037  0.00  0.00     0.100 A 
ATOM     13  N   UNL d   1     -53.277  24.159  36.541  0.00  0.00    -0.299 N 
ATOM     14  C   UNL d   1     -53.037  23.433  36.241  0.00  0.00     0.100 A 
ATOM     15  C   UNL d   1     -53.243  24.298  37.353  0.00  0.00     0.100 C 
ATOM     16  C   UNL d   1     -53.072  23.292  35.424  0.00  0.00     0.111 A 
ENDBRANCH   7  10
ENDBRANCH   1   7
BRANCH   2  17
ATOM     17  C   UNL d   1     -51.035  26.025  33.655  0.00  0.00     0.000 A 
ATOM     18  C   UNL d   1     -51.199  26.830  33.780  0.00  0.00     0.000 A 
ATOM     19  C   UNL d   1     -50.605  27.391  33.667  0.00  0.00     0.000 A 
ATOM     20  C   UNL d   1     -49.853  27.155  33.432  0.00  0.00     0.000 A 
ATOM     21  C   UNL d   1     -49.686  26.347  33.306  0.00  0.00     0.000 A 
ATOM     22  C   UNL d   1     -49.260  27.716  33.319  0.00  0.00     0.000 C 
ATOM     23  C   UNL d   1     -50.282  25.789  33.420  0.00  0.00     0.000 A 
ENDBRANCH   2  17
TORSDOF 3
ENDMDL
