MODEL 1
REMARK VINA RESULT:      10.5      0.000      0.000
REMARK  5 active torsions:
REMARK  status: ('A' for Active; 'I' for Inactive)
REMARK    1  A    between atoms: C_15  and  N_5 
REMARK    2  A    between atoms: S_10  and  C_6 
REMARK    3  A    between atoms: C_14  and  S_10 
REMARK    4  A    between atoms: C_11  and  C_14 
REMARK       I    between atoms: N_13  and  C_11 
REMARK    5  A    between atoms: C_17  and  C_15 
ROOT
ATOM      1  C   UNL d   1     -41.927-122.619 -51.038  0.00  0.00     0.081 A 
ATOM      2  C   UNL d   1     -41.864-121.851 -50.742  0.00  0.00     0.117 A 
ATOM      3  N   UNL d   1     -41.603-121.272 -51.218  0.00  0.00    -0.215 NA
ATOM      4  C   UNL d   1     -41.729-122.784 -51.792  0.00  0.00     0.268 A 
ATOM      5  N   UNL d   1     -41.467-122.205 -52.268  0.00  0.00    -0.253 N 
ATOM      6  C   UNL d   1     -41.404-121.452 -51.985  0.00  0.00     0.182 A 
ATOM      7  S   UNL d   1     -42.093-121.840 -49.989  0.00  0.00    -0.068 SA
ATOM      8  C   UNL d   1     -42.212-123.084 -50.411  0.00  0.00     0.013 A 
ATOM      9  C   UNL d   1     -42.306-122.573 -49.770  0.00  0.00     0.031 A 
ATOM     10  O   UNL d   1     -41.790-123.598 -52.121  0.00  0.00    -0.267 OA
ATOM     11  C   UNL d   1     -42.422-123.812 -50.199  0.00  0.00     0.001 A 
ATOM     12  C   UNL d   1     -42.591-123.038 -49.144  0.00  0.00     0.006 A 
ATOM     13  C   UNL d   1     -42.655-123.761 -49.406  0.00  0.00     0.001 A 
ENDROOT
BRANCH   6  14
ATOM     14  S   UNL d   1     -41.123-120.833 -52.498  0.00  0.00    -0.044 SA
BRANCH  14  15
ATOM     15  C   UNL d   1     -41.137-120.043 -52.192  0.00  0.00     0.099 C 
BRANCH  15  16
ATOM     16  C   UNL d   1     -41.203-119.409 -52.758  0.00  0.00     0.272 C 
ATOM     17  N   UNL d   1     -41.224-118.618 -52.536  0.00  0.00    -0.269 N 
ATOM     18  C   UNL d   1     -41.291-118.023 -53.130  0.00  0.00     0.102 C 
ATOM     19  C   UNL d   1     -41.179-118.409 -51.724  0.00  0.00     0.102 C 
ATOM     20  O   UNL d   1     -41.249-119.626 -53.575  0.00  0.00    -0.266 OA
ENDBRANCH  15  16
ENDBRANCH  14  15
ENDBRANCH   6  14
BRANCH   5  21
ATOM     21  C   UNL d   1     -41.261-122.405 -53.071  0.00  0.00     0.085 C 
BRANCH  21  22
ATOM     22  C   UNL d   1     -41.802-122.720 -53.603  0.00  0.00     0.019 C 
ATOM     23  C   UNL d   1     -41.558-122.992 -54.329  0.00  0.00     0.002 C 
ENDBRANCH  21  22
ENDBRANCH   5  21
TORSDOF 5
ENDMDL
