MODEL 1
REMARK VINA RESULT:      -6.0      0.000      0.000
REMARK  5 active torsions:
REMARK  status: ('A' for Active; 'I' for Inactive)
REMARK    1  A    between atoms: N_3  and  S_1 
REMARK    2  A    between atoms: C_11  and  S_1 
REMARK    3  A    between atoms: C_9  and  C_2 
REMARK    4  A    between atoms: C_4  and  N_7 
REMARK       I    between atoms: N_7  and  C_10 
REMARK    5  A    between atoms: C_10  and  C_14 
ROOT
ATOM      1  C   UNL d   1     -45.536  12.597  22.973  0.00  0.00     0.104 A 
ATOM      2  C   UNL d   1     -46.198  14.084  22.654  0.00  0.00     0.058 A 
ATOM      3  C   UNL d   1     -45.806  13.067  23.580  0.00  0.00     0.013 A 
ATOM      4  C   UNL d   1     -45.601  12.880  22.194  0.00  0.00     0.013 A 
ATOM      5  C   UNL d   1     -46.136  13.807  23.429  0.00  0.00     0.005 A 
ATOM      6  C   UNL d   1     -45.931  13.620  22.044  0.00  0.00     0.005 A 
ENDROOT
BRANCH   2   7
ATOM      7  C   UNL d   1     -46.535  14.841  22.493  0.00  0.00     0.282 C 
ATOM      8  N   UNL d   1     -47.346  14.968  22.595  0.00  0.00    -0.165 NA
ATOM      9  O   UNL d   1     -46.054  15.438  22.237  0.00  0.00    -0.265 OA
BRANCH   8  10
ATOM     10  C   UNL d   1     -47.821  14.365  22.852  0.00  0.00     0.297 A 
ATOM     11  O   UNL d   1     -48.458  14.109  22.380  0.00  0.00    -0.253 OA
ATOM     12  C   UNL d   1     -48.827  13.500  22.787  0.00  0.00     0.207 A 
ATOM     13  N   UNL d   1     -48.431  13.384  23.488  0.00  0.00    -0.119 NA
ATOM     14  N   UNL d   1     -47.806  13.918  23.534  0.00  0.00    -0.101 NA
BRANCH  12  15
ATOM     15  C   UNL d   1     -49.490  13.115  22.469  0.00  0.00     0.054 A 
ATOM     16  C   UNL d   1     -49.678  12.360  22.737  0.00  0.00     0.061 A 
ATOM     17 CL   UNL d   1     -49.212  11.995  23.313  0.00  0.00    -0.082 Cl
ATOM     18  C   UNL d   1     -50.338  11.975  22.423  0.00  0.00     0.011 A 
ATOM     19  C   UNL d   1     -50.809  12.333  21.846  0.00  0.00     0.001 A 
ATOM     20  C   UNL d   1     -50.624  13.080  21.581  0.00  0.00     0.000 A 
ATOM     21  C   UNL d   1     -49.965  13.473  21.890  0.00  0.00     0.004 A 
ENDBRANCH  12  15
ENDBRANCH   8  10
ENDBRANCH   2   7
BRANCH   1  22
ATOM     22  S   UNL d   1     -45.205  11.850  23.138  0.00  0.00     0.271 S 
ATOM     23  O   UNL d   1     -45.796  11.698  23.698  0.00  0.00    -0.200 OA
ATOM     24  O   UNL d   1     -44.615  12.003  22.580  0.00  0.00    -0.200 OA
BRANCH  22  25
ATOM     25  N   UNL d   1     -44.861  11.120  23.284  0.00  0.00    -0.231 N 
ATOM     26  C   UNL d   1     -45.341  10.496  23.546  0.00  0.00     0.075 A 
ATOM     27  C   UNL d   1     -46.148  10.611  23.656  0.00  0.00     0.020 C 
ATOM     28  C   UNL d   1     -45.006   9.757  23.696  0.00  0.00     0.018 A 
ATOM     29  C   UNL d   1     -44.199   9.642  23.586  0.00  0.00     0.003 A 
ATOM     30  C   UNL d   1     -43.727  10.266  23.326  0.00  0.00     0.020 A 
ATOM     31  C   UNL d   1     -44.063  11.005  23.176  0.00  0.00     0.092 A 
ENDBRANCH  22  25
ENDBRANCH   1  22
TORSDOF 5
ENDMDL
