MODEL 1
REMARK VINA RESULT:      -8.9      0.000      0.000
REMARK  1 active torsions:
REMARK  status: ('A' for Active; 'I' for Inactive)
REMARK    1  A    between atoms: C_8  and  N_3 
ROOT
ATOM      1  C   UNL d   1      53.302  33.084  53.598  0.00  0.00     0.292 A 
ATOM      2  C   UNL d   1      53.992  32.959  54.036  0.00  0.00     0.128 A 
ATOM      3  N   UNL d   1      52.785  33.679  53.814  0.00  0.00    -0.194 N 
ATOM      4  N   UNL d   1      52.944  34.160  54.468  0.00  0.00    -0.160 NA
ATOM      5  C   UNL d   1      54.167  33.429  54.691  0.00  0.00     0.094 A 
ATOM      6  C   UNL d   1      53.634  34.035  54.906  0.00  0.00     0.133 A 
ATOM      7  O   UNL d   1      53.132  32.598  52.929  0.00  0.00    -0.264 OA
ATOM      8 CL   UNL d   1      54.544  32.342  53.825  0.00  0.00    -0.076 Cl
ATOM      9 CL   UNL d   1      54.854  33.305  55.127  0.00  0.00    -0.080 Cl
ENDROOT
BRANCH   3  10
ATOM     10  C   UNL d   1      52.086  33.806  53.370  0.00  0.00     0.086 A 
ATOM     11  C   UNL d   1      52.104  34.331  52.736  0.00  0.00     0.019 A 
ATOM     12  C   UNL d   1      51.398  34.459  52.287  0.00  0.00     0.002 A 
ATOM     13  C   UNL d   1      50.712  34.054  52.498  0.00  0.00     0.000 A 
ATOM     14  C   UNL d   1      50.699  33.536  53.125  0.00  0.00     0.002 A 
ATOM     15  C   UNL d   1      51.405  33.408  53.574  0.00  0.00     0.019 A 
ENDBRANCH   3  10
TORSDOF 1
ENDMDL
MODEL 2
REMARK VINA RESULT:      -8.8      2.290      3.381
REMARK  1 active torsions:
REMARK  status: ('A' for Active; 'I' for Inactive)
REMARK    1  A    between atoms: C_8  and  N_3 
ROOT
ATOM      1  C   UNL d   1      53.139  32.234  53.467  0.00  0.00     0.292 A 
ATOM      2  C   UNL d   1      52.711  31.649  53.068  0.00  0.00     0.128 A 
ATOM      3  N   UNL d   1      53.791  32.028  53.915  0.00  0.00    -0.194 N 
ATOM      4  N   UNL d   1      54.029  31.238  53.974  0.00  0.00    -0.160 NA
ATOM      5  C   UNL d   1      52.935  30.856  53.116  0.00  0.00     0.094 A 
ATOM      6  C   UNL d   1      53.602  30.653  53.575  0.00  0.00     0.133 A 
ATOM      7  O   UNL d   1      52.902  33.043  53.412  0.00  0.00    -0.264 OA
ATOM      8 CL   UNL d   1      52.027  31.846  52.596  0.00  0.00    -0.076 Cl
ATOM      9 CL   UNL d   1      52.510  30.274  52.719  0.00  0.00    -0.080 Cl
ENDROOT
BRANCH   3  10
ATOM     10  C   UNL d   1      54.224  32.620  54.319  0.00  0.00     0.086 A 
ATOM     11  C   UNL d   1      54.045  32.779  55.107  0.00  0.00     0.019 A 
ATOM     12  C   UNL d   1      54.483  33.377  55.516  0.00  0.00     0.002 A 
ATOM     13  C   UNL d   1      55.075  33.784  55.113  0.00  0.00     0.000 A 
ATOM     14  C   UNL d   1      55.248  33.624  54.334  0.00  0.00     0.002 A 
ATOM     15  C   UNL d   1      54.810  33.026  53.926  0.00  0.00     0.019 A 
ENDBRANCH   3  10
TORSDOF 1
ENDMDL
MODEL 3
REMARK VINA RESULT:      -8.6      2.037      2.506
REMARK  1 active torsions:
REMARK  status: ('A' for Active; 'I' for Inactive)
REMARK    1  A    between atoms: C_8  and  N_3 
ROOT
ATOM      1  C   UNL d   1      54.558  32.650  53.830  0.00  0.00     0.292 A 
ATOM      2  C   UNL d   1      54.962  33.225  54.266  0.00  0.00     0.128 A 
ATOM      3  N   UNL d   1      53.945  32.234  54.175  0.00  0.00    -0.194 N 
ATOM      4  N   UNL d   1      53.722  32.382  54.958  0.00  0.00    -0.160 NA
ATOM      5  C   UNL d   1      54.753  33.386  55.048  0.00  0.00     0.094 A 
ATOM      6  C   UNL d   1      54.126  32.958  55.394  0.00  0.00     0.133 A 
ATOM      7  O   UNL d   1      54.780  32.492  53.031  0.00  0.00    -0.264 OA
ATOM      8 CL   UNL d   1      55.606  33.669  53.922  0.00  0.00    -0.076 Cl
ATOM      9 CL   UNL d   1      55.155  33.958  55.482  0.00  0.00    -0.080 Cl
ENDROOT
BRANCH   3  10
ATOM     10  C   UNL d   1      53.535  31.651  53.733  0.00  0.00     0.086 A 
ATOM     11  C   UNL d   1      53.757  30.862  53.811  0.00  0.00     0.019 A 
ATOM     12  C   UNL d   1      53.343  30.273  53.365  0.00  0.00     0.002 A 
ATOM     13  C   UNL d   1      52.732  30.506  52.866  0.00  0.00     0.000 A 
ATOM     14  C   UNL d   1      52.517  31.288  52.792  0.00  0.00     0.002 A 
ATOM     15  C   UNL d   1      52.930  31.877  53.238  0.00  0.00     0.019 A 
ENDBRANCH   3  10
TORSDOF 1
ENDMDL
MODEL 4
REMARK VINA RESULT:      -8.5      1.119      1.766
REMARK  1 active torsions:
REMARK  status: ('A' for Active; 'I' for Inactive)
REMARK    1  A    between atoms: C_8  and  N_3 
ROOT
ATOM      1  C   UNL d   1      52.957  32.864  53.734  0.00  0.00     0.292 A 
ATOM      2  C   UNL d   1      53.528  32.299  53.928  0.00  0.00     0.128 A 
ATOM      3  N   UNL d   1      52.395  32.697  53.163  0.00  0.00    -0.194 N 
ATOM      4  N   UNL d   1      52.392  31.965  52.777  0.00  0.00    -0.160 NA
ATOM      5  C   UNL d   1      53.540  31.565  53.552  0.00  0.00     0.094 A 
ATOM      6  C   UNL d   1      52.964  31.400  52.971  0.00  0.00     0.133 A 
ATOM      7  O   UNL d   1      52.953  33.613  54.124  0.00  0.00    -0.264 OA
ATOM      8 CL   UNL d   1      54.122  32.457  54.521  0.00  0.00    -0.076 Cl
ATOM      9 CL   UNL d   1      54.109  31.002  53.745  0.00  0.00    -0.080 Cl
ENDROOT
BRANCH   3  10
ATOM     10  C   UNL d   1      51.816  33.269  52.967  0.00  0.00     0.086 A 
ATOM     11  C   UNL d   1      51.095  33.262  53.365  0.00  0.00     0.019 A 
ATOM     12  C   UNL d   1      50.510  33.840  53.166  0.00  0.00     0.002 A 
ATOM     13  C   UNL d   1      50.678  34.394  52.580  0.00  0.00     0.000 A 
ATOM     14  C   UNL d   1      51.393  34.397  52.190  0.00  0.00     0.002 A 
ATOM     15  C   UNL d   1      51.977  33.819  52.388  0.00  0.00     0.019 A 
ENDBRANCH   3  10
TORSDOF 1
ENDMDL
MODEL 5
REMARK VINA RESULT:      -8.3      1.667      3.096
REMARK  1 active torsions:
REMARK  status: ('A' for Active; 'I' for Inactive)
REMARK    1  A    between atoms: C_8  and  N_3 
ROOT
ATOM      1  C   UNL d   1      52.204  33.253  53.578  0.00  0.00     0.292 A 
ATOM      2  C   UNL d   1      51.491  33.440  53.202  0.00  0.00     0.128 A 
ATOM      3  N   UNL d   1      52.807  33.805  53.605  0.00  0.00    -0.194 N 
ATOM      4  N   UNL d   1      52.711  34.551  53.259  0.00  0.00    -0.160 NA
ATOM      5  C   UNL d   1      51.379  34.178  52.853  0.00  0.00     0.094 A 
ATOM      6  C   UNL d   1      51.998  34.737  52.884  0.00  0.00     0.133 A 
ATOM      7  O   UNL d   1      52.309  32.494  53.932  0.00  0.00    -0.264 OA
ATOM      8 CL   UNL d   1      50.851  32.875  53.164  0.00  0.00    -0.076 Cl
ATOM      9 CL   UNL d   1      50.670  34.364  52.479  0.00  0.00    -0.080 Cl
ENDROOT
BRANCH   3  10
ATOM     10  C   UNL d   1      53.529  33.616  53.985  0.00  0.00     0.086 A 
ATOM     11  C   UNL d   1      54.101  33.194  53.570  0.00  0.00     0.019 A 
ATOM     12  C   UNL d   1      54.830  33.003  53.954  0.00  0.00     0.002 A 
ATOM     13  C   UNL d   1      54.948  33.245  54.733  0.00  0.00     0.000 A 
ATOM     14  C   UNL d   1      54.379  33.662  55.139  0.00  0.00     0.002 A 
ATOM     15  C   UNL d   1      53.650  33.853  54.755  0.00  0.00     0.019 A 
ENDBRANCH   3  10
TORSDOF 1
ENDMDL
MODEL 6
REMARK VINA RESULT:      -7.9      1.743      2.661
REMARK  1 active torsions:
REMARK  status: ('A' for Active; 'I' for Inactive)
REMARK    1  A    between atoms: C_8  and  N_3 
ROOT
ATOM      1  C   UNL d   1      53.355  33.103  54.270  0.00  0.00     0.292 A 
ATOM      2  C   UNL d   1      53.321  33.914  54.427  0.00  0.00     0.128 A 
ATOM      3  N   UNL d   1      53.090  32.816  53.552  0.00  0.00    -0.194 N 
ATOM      4  N   UNL d   1      52.786  33.329  52.979  0.00  0.00    -0.160 NA
ATOM      5  C   UNL d   1      53.021  34.440  53.867  0.00  0.00     0.094 A 
ATOM      6  C   UNL d   1      52.752  34.140  53.136  0.00  0.00     0.133 A 
ATOM      7  O   UNL d   1      53.664  32.572  54.850  0.00  0.00    -0.264 OA
ATOM      8 CL   UNL d   1      53.593  34.232  55.172  0.00  0.00    -0.076 Cl
ATOM      9 CL   UNL d   1      52.986  35.247  54.023  0.00  0.00    -0.080 Cl
ENDROOT
BRANCH   3  10
ATOM     10  C   UNL d   1      53.125  31.994  53.393  0.00  0.00     0.086 A 
ATOM     11  C   UNL d   1      52.425  31.584  53.250  0.00  0.00     0.019 A 
ATOM     12  C   UNL d   1      52.461  30.754  53.089  0.00  0.00     0.002 A 
ATOM     13  C   UNL d   1      53.194  30.379  53.080  0.00  0.00     0.000 A 
ATOM     14  C   UNL d   1      53.883  30.789  53.222  0.00  0.00     0.002 A 
ATOM     15  C   UNL d   1      53.848  31.619  53.383  0.00  0.00     0.019 A 
ENDBRANCH   3  10
TORSDOF 1
ENDMDL
