MODEL 1
REMARK VINA RESULT:      -5.5      0.000      0.000
REMARK  4 active torsions:
REMARK  status: ('A' for Active; 'I' for Inactive)
REMARK    1  A    between atoms: N_2  and  S_1 
REMARK    2  A    between atoms: N_3  and  S_1 
REMARK    3  A    between atoms: C_8  and  N_3 
REMARK    4  A    between atoms: C_7  and  C_6 
ROOT
ATOM      1  N   UNL d   1      56.936   0.679  31.312  0.00  0.00    -0.144 NA
ENDROOT
BRANCH   1   2
ATOM      2  S   UNL d   1      57.671   0.490  30.992  0.00  0.00     0.351 S 
ATOM      3  O   UNL d   1      58.089   0.637  31.685  0.00  0.00    -0.180 OA
ATOM      4  O   UNL d   1      57.253   0.344  30.299  0.00  0.00    -0.180 OA
BRANCH   2   5
ATOM      5  N   UNL d   1      58.373   0.289  30.611  0.00  0.00    -0.215 N 
ATOM      6  C   UNL d   1      59.076   0.682  30.812  0.00  0.00     0.093 C 
ATOM      7  C   UNL d   1      59.769   0.479  30.432  0.00  0.00     0.020 C 
ATOM      8  C   UNL d   1      59.764  -0.021  29.786  0.00  0.00     0.003 C 
ATOM      9  C   UNL d   1      59.048  -0.325  29.516  0.00  0.00     0.020 C 
ATOM     10  C   UNL d   1      58.338  -0.129  29.891  0.00  0.00     0.093 C 
ENDBRANCH   2   5
ENDBRANCH   1   2
BRANCH   1  11
ATOM     11  C   UNL d   1      56.596   0.193  31.909  0.00  0.00     0.095 A 
ATOM     12  C   UNL d   1      56.216   0.542  32.562  0.00  0.00     0.023 A 
ATOM     13  C   UNL d   1      55.871   0.064  33.144  0.00  0.00     0.041 A 
ATOM     14  C   UNL d   1      55.914  -0.765  33.075  0.00  0.00     0.003 A 
ATOM     15  C   UNL d   1      56.291  -1.129  32.424  0.00  0.00     0.002 A 
ATOM     16  C   UNL d   1      56.633  -0.638  31.835  0.00  0.00     0.020 A 
BRANCH  13  17
ATOM     17  C   UNL d   1      55.622   0.397  33.859  0.00  0.00     0.196 C 
ATOM     18  O   UNL d   1      56.181   0.655  34.405  0.00  0.00    -0.287 OA
ATOM     19  C   UNL d   1      54.816   0.469  34.019  0.00  0.00     0.045 C 
ENDBRANCH  13  17
ENDBRANCH   1  11
TORSDOF 4
ENDMDL
MODEL 2
REMARK VINA RESULT:      -4.5      1.006      4.129
REMARK  4 active torsions:
REMARK  status: ('A' for Active; 'I' for Inactive)
REMARK    1  A    between atoms: N_2  and  S_1 
REMARK    2  A    between atoms: N_3  and  S_1 
REMARK    3  A    between atoms: C_8  and  N_3 
REMARK    4  A    between atoms: C_7  and  C_6 
ROOT
ATOM      1  N   UNL d   1      57.619   0.680  30.720  0.00  0.00    -0.144 NA
ENDROOT
BRANCH   1   2
ATOM      2  S   UNL d   1      57.316   0.341  31.407  0.00  0.00     0.351 S 
ATOM      3  O   UNL d   1      58.007   0.441  31.845  0.00  0.00    -0.180 OA
ATOM      4  O   UNL d   1      56.627   0.241  30.970  0.00  0.00    -0.180 OA
BRANCH   2   5
ATOM      5  N   UNL d   1      56.954  -0.008  32.059  0.00  0.00    -0.215 N 
ATOM      6  C   UNL d   1      56.504  -0.699  31.958  0.00  0.00     0.093 C 
ATOM      7  C   UNL d   1      56.146  -1.041  32.606  0.00  0.00     0.020 C 
ATOM      8  C   UNL d   1      56.131  -0.659  33.328  0.00  0.00     0.003 C 
ATOM      9  C   UNL d   1      56.483   0.082  33.402  0.00  0.00     0.020 C 
ATOM     10  C   UNL d   1      56.850   0.440  32.753  0.00  0.00     0.093 C 
ENDBRANCH   2   5
ENDBRANCH   1   2
BRANCH   1  11
ATOM     11  C   UNL d   1      58.319   0.373  30.369  0.00  0.00     0.095 A 
ATOM     12  C   UNL d   1      58.267  -0.226  29.793  0.00  0.00     0.023 A 
ATOM     13  C   UNL d   1      58.955  -0.520  29.439  0.00  0.00     0.041 A 
ATOM     14  C   UNL d   1      59.698  -0.218  29.666  0.00  0.00     0.003 A 
ATOM     15  C   UNL d   1      59.765   0.384  30.241  0.00  0.00     0.002 A 
ATOM     16  C   UNL d   1      59.063   0.682  30.592  0.00  0.00     0.020 A 
BRANCH  13  17
ATOM     17  C   UNL d   1      58.922  -1.207  28.979  0.00  0.00     0.196 C 
ATOM     18  O   UNL d   1      58.296  -1.317  28.456  0.00  0.00    -0.287 OA
ATOM     19  C   UNL d   1      59.516  -1.776  29.047  0.00  0.00     0.045 C 
ENDBRANCH  13  17
ENDBRANCH   1  11
TORSDOF 4
ENDMDL
MODEL 3
REMARK VINA RESULT:      -4.1      1.121      1.423
REMARK  4 active torsions:
REMARK  status: ('A' for Active; 'I' for Inactive)
REMARK    1  A    between atoms: N_2  and  S_1 
REMARK    2  A    between atoms: N_3  and  S_1 
REMARK    3  A    between atoms: C_8  and  N_3 
REMARK    4  A    between atoms: C_7  and  C_6 
ROOT
ATOM      1  N   UNL d   1      57.375   0.182  30.603  0.00  0.00    -0.144 NA
ENDROOT
BRANCH   1   2
ATOM      2  S   UNL d   1      58.101  -0.036  30.278  0.00  0.00     0.351 S 
ATOM      3  O   UNL d   1      58.469   0.682  30.440  0.00  0.00    -0.180 OA
ATOM      4  O   UNL d   1      57.732  -0.754  30.117  0.00  0.00    -0.180 OA
BRANCH   2   5
ATOM      5  N   UNL d   1      58.796  -0.317  29.939  0.00  0.00    -0.215 N 
ATOM      6  C   UNL d   1      59.425   0.207  29.799  0.00  0.00     0.093 C 
ATOM      7  C   UNL d   1      60.112  -0.076  29.462  0.00  0.00     0.020 C 
ATOM      8  C   UNL d   1      60.153  -0.835  29.163  0.00  0.00     0.003 C 
ATOM      9  C   UNL d   1      59.490  -1.322  29.202  0.00  0.00     0.020 C 
ATOM     10  C   UNL d   1      58.786  -1.049  29.541  0.00  0.00     0.093 C 
ENDBRANCH   2   5
ENDBRANCH   1   2
BRANCH   1  11
ATOM     11  C   UNL d   1      57.257   0.153  31.435  0.00  0.00     0.095 A 
ATOM     12  C   UNL d   1      56.729  -0.402  31.760  0.00  0.00     0.023 A 
ATOM     13  C   UNL d   1      56.622  -0.439  32.581  0.00  0.00     0.041 A 
ATOM     14  C   UNL d   1      57.039   0.084  33.076  0.00  0.00     0.003 A 
ATOM     15  C   UNL d   1      57.574   0.645  32.763  0.00  0.00     0.002 A 
ATOM     16  C   UNL d   1      57.683   0.674  31.931  0.00  0.00     0.020 A 
BRANCH  13  17
ATOM     17  C   UNL d   1      55.999  -0.883  32.896  0.00  0.00     0.196 C 
ATOM     18  O   UNL d   1      55.987  -1.700  32.793  0.00  0.00    -0.287 OA
ATOM     19  C   UNL d   1      55.395  -0.505  33.312  0.00  0.00     0.045 C 
ENDBRANCH  13  17
ENDBRANCH   1  11
TORSDOF 4
ENDMDL
MODEL 4
REMARK VINA RESULT:      -3.1      2.007      2.949
REMARK  4 active torsions:
REMARK  status: ('A' for Active; 'I' for Inactive)
REMARK    1  A    between atoms: N_2  and  S_1 
REMARK    2  A    between atoms: N_3  and  S_1 
REMARK    3  A    between atoms: C_8  and  N_3 
REMARK    4  A    between atoms: C_7  and  C_6 
ROOT
ATOM      1  N   UNL d   1      58.153  -0.807  29.398  0.00  0.00    -0.144 NA
ENDROOT
BRANCH   1   2
ATOM      2  S   UNL d   1      58.755  -1.346  29.234  0.00  0.00     0.351 S 
ATOM      3  O   UNL d   1      59.286  -0.778  28.963  0.00  0.00    -0.180 OA
ATOM      4  O   UNL d   1      58.224  -1.913  29.504  0.00  0.00    -0.180 OA
BRANCH   2   5
ATOM      5  N   UNL d   1      59.313  -1.935  29.092  0.00  0.00    -0.215 N 
ATOM      6  C   UNL d   1      59.984  -1.763  28.635  0.00  0.00     0.093 C 
ATOM      7  C   UNL d   1      60.534  -2.349  28.497  0.00  0.00     0.020 C 
ATOM      8  C   UNL d   1      60.383  -3.124  28.707  0.00  0.00     0.003 C 
ATOM      9  C   UNL d   1      59.666  -3.316  29.063  0.00  0.00     0.020 C 
ATOM     10  C   UNL d   1      59.099  -2.731  29.209  0.00  0.00     0.093 C 
ENDBRANCH   2   5
ENDBRANCH   1   2
BRANCH   1  11
ATOM     11  C   UNL d   1      58.203  -0.310  30.075  0.00  0.00     0.095 A 
ATOM     12  C   UNL d   1      57.598  -0.326  30.647  0.00  0.00     0.023 A 
ATOM     13  C   UNL d   1      57.653   0.154  31.319  0.00  0.00     0.041 A 
ATOM     14  C   UNL d   1      58.310   0.657  31.416  0.00  0.00     0.003 A 
ATOM     15  C   UNL d   1      58.925   0.682  30.850  0.00  0.00     0.002 A 
ATOM     16  C   UNL d   1      58.866   0.188  30.173  0.00  0.00     0.020 A 
BRANCH  13  17
ATOM     17  C   UNL d   1      56.996   0.249  31.814  0.00  0.00     0.196 C 
ATOM     18  O   UNL d   1      56.329   0.642  31.534  0.00  0.00    -0.287 OA
ATOM     19  C   UNL d   1      57.014  -0.049  32.583  0.00  0.00     0.045 C 
ENDBRANCH  13  17
ENDBRANCH   1  11
TORSDOF 4
ENDMDL
