MODEL 1
REMARK VINA RESULT:      22.9      0.000      0.000
REMARK  4 active torsions:
REMARK  status: ('A' for Active; 'I' for Inactive)
REMARK    1  A    between atoms: N_2  and  C_9 
REMARK    2  A    between atoms: C_11  and  C_5 
REMARK    3  A    between atoms: C_6  and  C_7 
REMARK       I    between atoms: C_7  and  N_10 
REMARK    4  A    between atoms: N_10  and  C_21 
ROOT
ATOM      1  C   UNL d   1      45.669 -15.960  44.526  0.00  0.00     0.019 A 
ATOM      2  C   UNL d   1      45.058 -16.500  44.380  0.00  0.00     0.003 A 
ATOM      3  C   UNL d   1      46.397 -16.219  44.814  0.00  0.00     0.003 A 
ATOM      4  C   UNL d   1      45.910 -17.564  44.812  0.00  0.00     0.085 A 
ATOM      5  C   UNL d   1      46.513 -17.022  44.955  0.00  0.00     0.019 A 
ATOM      6  C   UNL d   1      45.183 -17.301  44.525  0.00  0.00     0.019 A 
ENDROOT
BRANCH   4   7
ATOM      7  N   UNL d   1      46.029 -18.370  44.955  0.00  0.00    -0.208 NA
ATOM      8  C   UNL d   1      46.240 -18.873  44.332  0.00  0.00     0.281 C 
ATOM      9  O   UNL d   1      46.358 -19.679  44.480  0.00  0.00    -0.265 OA
BRANCH   8  10
ATOM     10  C   UNL d   1      46.332 -18.570  43.570  0.00  0.00     0.080 A 
ATOM     11  C   UNL d   1      46.201 -19.058  42.921  0.00  0.00     0.131 A 
ATOM     12  C   UNL d   1      46.294 -18.752  42.161  0.00  0.00     0.024 A 
ATOM     13  C   UNL d   1      46.515 -17.970  42.054  0.00  0.00     0.002 A 
ATOM     14  C   UNL d   1      46.645 -17.483  42.706  0.00  0.00     0.000 A 
ATOM     15  C   UNL d   1      46.553 -17.786  43.468  0.00  0.00     0.006 A 
BRANCH  11  16
ATOM     16  N   UNL d   1      45.978 -19.850  43.033  0.00  0.00    -0.114 N 
ATOM     17  O   UNL d   1      45.332 -20.160  42.626  0.00  0.00    -0.532 OA
ATOM     18  O   UNL d   1      46.403 -20.330  43.552  0.00  0.00    -0.532 OA
ENDBRANCH  11  16
ENDBRANCH   8  10
ENDBRANCH   4   7
BRANCH   1  19
ATOM     19  C   UNL d   1      45.550 -15.154  44.383  0.00  0.00     0.101 A 
ATOM     20  N   UNL d   1      44.994 -14.824  43.878  0.00  0.00    -0.227 NA
ATOM     21  C   UNL d   1      45.072 -14.008  43.908  0.00  0.00     0.148 A 
ATOM     22  N   UNL d   1      45.680 -13.833  44.435  0.00  0.00    -0.288 N 
ATOM     23  C   UNL d   1      44.669 -13.399  43.525  0.00  0.00     0.037 A 
ATOM     24  C   UNL d   1      45.885 -13.049  44.579  0.00  0.00     0.082 A 
ATOM     25  C   UNL d   1      45.973 -14.539  44.727  0.00  0.00     0.101 A 
ATOM     26  C   UNL d   1      45.482 -12.440  44.195  0.00  0.00     0.019 A 
ATOM     27  C   UNL d   1      44.875 -12.614  43.668  0.00  0.00     0.005 A 
ENDBRANCH   1  19
TORSDOF 4
ENDMDL
MODEL 2
REMARK VINA RESULT:      23.0      2.618      5.061
REMARK  4 active torsions:
REMARK  status: ('A' for Active; 'I' for Inactive)
REMARK    1  A    between atoms: N_2  and  C_9 
REMARK    2  A    between atoms: C_11  and  C_5 
REMARK    3  A    between atoms: C_6  and  C_7 
REMARK       I    between atoms: C_7  and  N_10 
REMARK    4  A    between atoms: N_10  and  C_21 
ROOT
ATOM      1  C   UNL d   1      46.359 -16.362  43.920  0.00  0.00     0.019 A 
ATOM      2  C   UNL d   1      46.278 -16.161  44.719  0.00  0.00     0.003 A 
ATOM      3  C   UNL d   1      46.535 -15.784  43.358  0.00  0.00     0.003 A 
ATOM      4  C   UNL d   1      46.551 -14.795  44.391  0.00  0.00     0.085 A 
ATOM      5  C   UNL d   1      46.630 -15.002  43.598  0.00  0.00     0.019 A 
ATOM      6  C   UNL d   1      46.375 -15.376  44.950  0.00  0.00     0.019 A 
ENDROOT
BRANCH   4   7
ATOM      7  N   UNL d   1      46.647 -14.009  44.631  0.00  0.00    -0.208 NA
ATOM      8  C   UNL d   1      45.985 -13.516  44.705  0.00  0.00     0.281 C 
ATOM      9  O   UNL d   1      46.087 -12.731  44.945  0.00  0.00    -0.265 OA
BRANCH   8  10
ATOM     10  C   UNL d   1      45.232 -13.810  44.539  0.00  0.00     0.080 A 
ATOM     11  C   UNL d   1      44.775 -13.447  43.959  0.00  0.00     0.131 A 
ATOM     12  C   UNL d   1      44.022 -13.743  43.797  0.00  0.00     0.024 A 
ATOM     13  C   UNL d   1      43.734 -14.391  44.208  0.00  0.00     0.002 A 
ATOM     14  C   UNL d   1      44.195 -14.752  44.789  0.00  0.00     0.000 A 
ATOM     15  C   UNL d   1      44.948 -14.458  44.954  0.00  0.00     0.006 A 
BRANCH  11  16
ATOM     16  N   UNL d   1      45.070 -12.792  43.544  0.00  0.00    -0.114 N 
ATOM     17  O   UNL d   1      45.226 -12.848  42.737  0.00  0.00    -0.532 OA
ATOM     18  O   UNL d   1      45.207 -12.080  43.939  0.00  0.00    -0.532 OA
ENDBRANCH  11  16
ENDBRANCH   8  10
ENDBRANCH   4   7
BRANCH   1  19
ATOM     19  C   UNL d   1      46.263 -17.148  43.680  0.00  0.00     0.101 A 
ATOM     20  N   UNL d   1      46.114 -17.411  42.917  0.00  0.00    -0.227 NA
ATOM     21  C   UNL d   1      46.060 -18.229  42.935  0.00  0.00     0.148 A 
ATOM     22  N   UNL d   1      46.177 -18.473  43.713  0.00  0.00    -0.288 N 
ATOM     23  C   UNL d   1      45.920 -18.787  42.344  0.00  0.00     0.037 A 
ATOM     24  C   UNL d   1      46.153 -19.274  43.900  0.00  0.00     0.082 A 
ATOM     25  C   UNL d   1      46.302 -17.806  44.170  0.00  0.00     0.101 A 
ATOM     26  C   UNL d   1      46.013 -19.832  43.308  0.00  0.00     0.019 A 
ATOM     27  C   UNL d   1      45.896 -19.590  42.531  0.00  0.00     0.005 A 
ENDBRANCH   1  19
TORSDOF 4
ENDMDL
