MODEL 1
REMARK VINA RESULT:      56.3      0.000      0.000
REMARK  4 active torsions:
REMARK  status: ('A' for Active; 'I' for Inactive)
REMARK    1  A    between atoms: C_2  and  N_1 
REMARK    2  A    between atoms: C_9  and  C_10 
REMARK       I    between atoms: N_11  and  C_9 
REMARK    3  A    between atoms: C_21  and  N_11 
REMARK    4  A    between atoms: C_20  and  C_21 
ROOT
ATOM      1  C   UNL d   1     -48.853  27.543  34.197  0.00  0.00     0.279 C 
ATOM      2  N   UNL d   1     -49.623  27.435  33.930  0.00  0.00    -0.206 NA
ATOM      3  O   UNL d   1     -48.231  27.141  33.836  0.00  0.00    -0.265 OA
ENDROOT
BRANCH   1   4
ATOM      4  C   UNL d   1     -48.700  28.056  34.829  0.00  0.00     0.059 A 
ATOM      5  C   UNL d   1     -48.194  28.705  34.713  0.00  0.00     0.028 A 
ATOM      6  C   UNL d   1     -48.050  29.208  35.352  0.00  0.00     0.127 A 
ATOM      7  C   UNL d   1     -48.403  29.069  36.094  0.00  0.00     0.022 A 
ATOM      8  C   UNL d   1     -48.901  28.422  36.193  0.00  0.00     0.002 A 
ATOM      9  C   UNL d   1     -48.257  29.571  36.725  0.00  0.00     0.002 C 
ATOM     10  C   UNL d   1     -49.054  27.911  35.564  0.00  0.00     0.005 A 
BRANCH   6  11
ATOM     11  N   UNL d   1     -47.548  29.859  35.252  0.00  0.00    -0.114 N 
ATOM     12  O   UNL d   1     -47.207  30.226  35.907  0.00  0.00    -0.532 OA
ATOM     13  O   UNL d   1     -47.383  30.149  34.498  0.00  0.00    -0.532 OA
ENDBRANCH   6  11
ENDBRANCH   1   4
BRANCH   2  14
ATOM     14  C   UNL d   1     -49.776  26.930  33.306  0.00  0.00     0.102 C 
BRANCH  14  15
ATOM     15  C   UNL d   1     -50.459  26.469  33.306  0.00  0.00     0.019 A 
ATOM     16  C   UNL d   1     -50.398  25.646  33.307  0.00  0.00     0.003 A 
ATOM     17  C   UNL d   1     -51.081  25.177  33.307  0.00  0.00     0.019 A 
ATOM     18  C   UNL d   1     -51.193  24.368  33.308  0.00  0.00     0.021 A 
ATOM     19  C   UNL d   1     -51.819  25.541  33.307  0.00  0.00     0.081 A 
ATOM     20  C   UNL d   1     -52.005  24.224  33.308  0.00  0.00     0.082 A 
ATOM     21  C   UNL d   1     -52.366  23.483  33.308  0.00  0.00     0.021 C 
ATOM     22  N   UNL d   1     -52.394  24.950  33.307  0.00  0.00    -0.246 NA
ATOM     23  C   UNL d   1     -51.882  26.360  33.306  0.00  0.00     0.019 A 
ATOM     24  C   UNL d   1     -51.201  26.826  33.306  0.00  0.00     0.003 A 
ENDBRANCH  14  15
ENDBRANCH   2  14
TORSDOF 4
ENDMDL
