MODEL 1
REMARK VINA RESULT:      -2.6      0.000      0.000
REMARK  3 active torsions:
REMARK  status: ('A' for Active; 'I' for Inactive)
REMARK    1  A    between atoms: C_7  and  C_1 
REMARK       I    between atoms: C_6  and  N_9 
REMARK       I    between atoms: N_8  and  C_6 
REMARK    2  A    between atoms: N_9  and  C_7 
REMARK    3  A    between atoms: C_11  and  N_8 
ROOT
ATOM      1  C   UNL d   1     -41.416-121.206 -51.792  0.00  0.00     0.369 C 
ATOM      2  N   UNL d   1     -41.697-121.134 -51.014  0.00  0.00    -0.191 NA
ATOM      3  N   UNL d   1     -41.402-121.938 -52.163  0.00  0.00    -0.189 NA
ATOM      4  O   UNL d   1     -41.148-120.536 -52.197  0.00  0.00    -0.242 OA
ENDROOT
BRANCH   3   5
ATOM      5  C   UNL d   1     -41.123-122.004 -52.934  0.00  0.00     0.107 C 
BRANCH   5   6
ATOM      6  C   UNL d   1     -41.588-122.384 -53.512  0.00  0.00     0.058 A 
ATOM      7  C   UNL d   1     -41.591-123.195 -53.675  0.00  0.00     0.104 A 
ATOM      8  N   UNL d   1     -42.133-123.333 -54.287  0.00  0.00    -0.165 NA
ATOM      9  C   UNL d   1     -41.134-123.767 -53.294  0.00  0.00     0.023 C 
ATOM     10  N   UNL d   1     -42.463-122.604 -54.499  0.00  0.00    -0.225 N 
ATOM     11  C   UNL d   1     -42.129-122.020 -54.023  0.00  0.00     0.104 A 
ATOM     12  C   UNL d   1     -43.025-122.485 -55.082  0.00  0.00     0.121 C 
ENDBRANCH   5   6
ENDBRANCH   3   5
BRANCH   2  13
ATOM     13  C   UNL d   1     -41.960-121.802 -50.623  0.00  0.00     0.086 A 
ATOM     14  C   UNL d   1     -41.425-122.314 -50.258  0.00  0.00     0.020 A 
ATOM     15  C   UNL d   1     -41.710-122.985 -49.867  0.00  0.00     0.013 A 
ATOM     16  C   UNL d   1     -42.512-123.146 -49.837  0.00  0.00     0.058 A 
ATOM     17  C   UNL d   1     -43.034-122.633 -50.201  0.00  0.00     0.013 A 
ATOM     18 CL   UNL d   1     -42.793-123.817 -49.445  0.00  0.00    -0.082 Cl
ATOM     19  C   UNL d   1     -42.775-121.965 -50.593  0.00  0.00     0.020 A 
ENDBRANCH   2  13
TORSDOF 3
ENDMDL
MODEL 2
REMARK VINA RESULT:      -1.8      1.711      3.531
REMARK  3 active torsions:
REMARK  status: ('A' for Active; 'I' for Inactive)
REMARK    1  A    between atoms: C_7  and  C_1 
REMARK       I    between atoms: C_6  and  N_9 
REMARK       I    between atoms: N_8  and  C_6 
REMARK    2  A    between atoms: N_9  and  C_7 
REMARK    3  A    between atoms: C_11  and  N_8 
ROOT
ATOM      1  C   UNL d   1     -41.522-121.230 -52.339  0.00  0.00     0.369 C 
ATOM      2  N   UNL d   1     -41.612-121.142 -53.160  0.00  0.00    -0.191 NA
ATOM      3  N   UNL d   1     -41.540-121.975 -51.996  0.00  0.00    -0.189 NA
ATOM      4  O   UNL d   1     -41.415-120.562 -51.863  0.00  0.00    -0.242 OA
ENDROOT
BRANCH   3   5
ATOM      5  C   UNL d   1     -41.451-122.057 -51.182  0.00  0.00     0.107 C 
BRANCH   5   6
ATOM      6  C   UNL d   1     -41.947-122.579 -50.762  0.00  0.00     0.058 A 
ATOM      7  C   UNL d   1     -41.793-123.377 -50.611  0.00  0.00     0.104 A 
ATOM      8  N   UNL d   1     -42.430-123.685 -50.178  0.00  0.00    -0.165 NA
ATOM      9  C   UNL d   1     -41.123-123.794 -50.850  0.00  0.00     0.023 C 
ATOM     10  N   UNL d   1     -42.975-123.073 -50.064  0.00  0.00    -0.225 N 
ATOM     11  C   UNL d   1     -42.679-122.393 -50.423  0.00  0.00     0.104 A 
ATOM     12  C   UNL d   1     -43.686-123.134 -49.663  0.00  0.00     0.121 C 
ENDBRANCH   5   6
ENDBRANCH   3   5
BRANCH   2  13
ATOM     13  C   UNL d   1     -41.717-121.809 -53.622  0.00  0.00     0.086 A 
ATOM     14  C   UNL d   1     -41.126-122.383 -53.674  0.00  0.00     0.020 A 
ATOM     15  C   UNL d   1     -41.251-123.050 -54.147  0.00  0.00     0.013 A 
ATOM     16  C   UNL d   1     -41.949-123.148 -54.561  0.00  0.00     0.058 A 
ATOM     17  C   UNL d   1     -42.529-122.574 -54.503  0.00  0.00     0.013 A 
ATOM     18 CL   UNL d   1     -42.071-123.815 -55.032  0.00  0.00    -0.082 Cl
ATOM     19  C   UNL d   1     -42.428-121.907 -54.043  0.00  0.00     0.020 A 
ENDBRANCH   2  13
TORSDOF 3
ENDMDL
MODEL 3
REMARK VINA RESULT:      -0.2      2.106      4.098
REMARK  3 active torsions:
REMARK  status: ('A' for Active; 'I' for Inactive)
REMARK    1  A    between atoms: C_7  and  C_1 
REMARK       I    between atoms: C_6  and  N_9 
REMARK       I    between atoms: N_8  and  C_6 
REMARK    2  A    between atoms: N_9  and  C_7 
REMARK    3  A    between atoms: C_11  and  N_8 
ROOT
ATOM      1  C   UNL d   1     -42.025-123.241 -53.138  0.00  0.00     0.369 C 
ATOM      2  N   UNL d   1     -42.383-123.302 -53.884  0.00  0.00    -0.191 NA
ATOM      3  N   UNL d   1     -41.518-122.617 -52.970  0.00  0.00    -0.189 NA
ATOM      4  O   UNL d   1     -42.179-123.811 -52.559  0.00  0.00    -0.242 OA
ENDROOT
BRANCH   3   5
ATOM      5  C   UNL d   1     -41.166-122.560 -52.229  0.00  0.00     0.107 C 
BRANCH   5   6
ATOM      6  C   UNL d   1     -41.160-121.829 -51.829  0.00  0.00     0.058 A 
ATOM      7  C   UNL d   1     -41.174-121.726 -51.008  0.00  0.00     0.104 A 
ATOM      8  N   UNL d   1     -41.162-120.912 -50.850  0.00  0.00    -0.165 NA
ATOM      9  C   UNL d   1     -41.195-122.328 -50.445  0.00  0.00     0.023 C 
ATOM     10  N   UNL d   1     -41.140-120.515 -51.576  0.00  0.00    -0.225 N 
ATOM     11  C   UNL d   1     -41.139-121.078 -52.178  0.00  0.00     0.104 A 
ATOM     12  C   UNL d   1     -41.124-119.704 -51.678  0.00  0.00     0.121 C 
ENDBRANCH   5   6
ENDBRANCH   3   5
BRANCH   2  13
ATOM     13  C   UNL d   1     -42.224-122.733 -54.450  0.00  0.00     0.086 A 
ATOM     14  C   UNL d   1     -41.547-122.783 -54.919  0.00  0.00     0.020 A 
ATOM     15  C   UNL d   1     -41.404-122.197 -55.486  0.00  0.00     0.013 A 
ATOM     16  C   UNL d   1     -41.922-121.573 -55.587  0.00  0.00     0.058 A 
ATOM     17  C   UNL d   1     -42.591-121.532 -55.118  0.00  0.00     0.013 A 
ATOM     18 CL   UNL d   1     -41.776-120.991 -56.154  0.00  0.00    -0.082 Cl
ATOM     19  C   UNL d   1     -42.752-122.098 -54.552  0.00  0.00     0.020 A 
ENDBRANCH   2  13
TORSDOF 3
ENDMDL
MODEL 4
REMARK VINA RESULT:       0.1      1.841      3.934
REMARK  3 active torsions:
REMARK  status: ('A' for Active; 'I' for Inactive)
REMARK    1  A    between atoms: C_7  and  C_1 
REMARK       I    between atoms: C_6  and  N_9 
REMARK       I    between atoms: N_8  and  C_6 
REMARK    2  A    between atoms: N_9  and  C_7 
REMARK    3  A    between atoms: C_11  and  N_8 
ROOT
ATOM      1  C   UNL d   1     -41.789-121.470 -50.832  0.00  0.00     0.369 C 
ATOM      2  N   UNL d   1     -41.305-121.395 -51.502  0.00  0.00    -0.191 NA
ATOM      3  N   UNL d   1     -42.270-122.128 -50.739  0.00  0.00    -0.189 NA
ATOM      4  O   UNL d   1     -41.787-120.877 -50.255  0.00  0.00    -0.242 OA
ENDROOT
BRANCH   3   5
ATOM      5  C   UNL d   1     -42.749-122.198 -50.073  0.00  0.00     0.107 C 
BRANCH   5   6
ATOM      6  C   UNL d   1     -42.571-122.771 -49.494  0.00  0.00     0.058 A 
ATOM      7  C   UNL d   1     -43.075-123.376 -49.242  0.00  0.00     0.104 A 
ATOM      8  N   UNL d   1     -42.679-123.817 -48.662  0.00  0.00    -0.165 NA
ATOM      9  C   UNL d   1     -43.840-123.517 -49.518  0.00  0.00     0.023 C 
ATOM     10  N   UNL d   1     -41.930-123.480 -48.559  0.00  0.00    -0.225 N 
ATOM     11  C   UNL d   1     -41.863-122.837 -49.071  0.00  0.00     0.104 A 
ATOM     12  C   UNL d   1     -41.355-123.742 -48.039  0.00  0.00     0.121 C 
ENDBRANCH   5   6
ENDBRANCH   3   5
BRANCH   2  13
ATOM     13  C   UNL d   1     -41.313-121.986 -52.068  0.00  0.00     0.086 A 
ATOM     14  C   UNL d   1     -41.126-122.764 -51.866  0.00  0.00     0.020 A 
ATOM     15  C   UNL d   1     -41.140-123.348 -52.452  0.00  0.00     0.013 A 
ATOM     16  C   UNL d   1     -41.337-123.165 -53.225  0.00  0.00     0.058 A 
ATOM     17  C   UNL d   1     -41.521-122.391 -53.415  0.00  0.00     0.013 A 
ATOM     18 CL   UNL d   1     -41.350-123.751 -53.807  0.00  0.00    -0.082 Cl
ATOM     19  C   UNL d   1     -41.513-121.799 -52.853  0.00  0.00     0.020 A 
ENDBRANCH   2  13
TORSDOF 3
ENDMDL
