MODEL 1
REMARK VINA RESULT:      56.9      0.000      0.000
REMARK  5 active torsions:
REMARK  status: ('A' for Active; 'I' for Inactive)
REMARK       I    between atoms: C_3  and  N_1 
REMARK    1  A    between atoms: C_8  and  C_3 
REMARK    2  A    between atoms: S_4  and  N_9 
REMARK    3  A    between atoms: C_10  and  C_5 
REMARK    4  A    between atoms: C_11  and  C_6 
REMARK    5  A    between atoms: N_9  and  C_23 
ROOT
ATOM      1  N   UNL d   1      44.637 -15.731  37.609  0.00  0.00    -0.193 N 
ATOM      2  N   UNL d   1      45.231 -16.047  38.097  0.00  0.00    -0.163 NA
ATOM      3  C   UNL d   1      44.737 -15.115  37.063  0.00  0.00     0.303 C 
ATOM      4  C   UNL d   1      43.933 -16.146  37.769  0.00  0.00     0.088 A 
ATOM      5  C   UNL d   1      44.899 -16.649  38.555  0.00  0.00     0.103 A 
ATOM      6  C   UNL d   1      44.098 -16.708  38.350  0.00  0.00     0.040 A 
ATOM      7  O   UNL d   1      44.085 -14.863  36.615  0.00  0.00    -0.263 OA
ENDROOT
BRANCH   5   8
ATOM      8  C   UNL d   1      45.292 -17.110  39.115  0.00  0.00     0.019 A 
ATOM      9  C   UNL d   1      44.865 -17.655  39.580  0.00  0.00     0.003 A 
ATOM     10  C   UNL d   1      45.258 -18.112  40.137  0.00  0.00     0.020 A 
ATOM     11  C   UNL d   1      46.077 -18.038  40.240  0.00  0.00     0.093 A 
ATOM     12  C   UNL d   1      46.502 -17.493  39.774  0.00  0.00     0.020 A 
ATOM     13  C   UNL d   1      46.104 -17.029  39.211  0.00  0.00     0.003 A 
BRANCH  11  14
ATOM     14  N   UNL d   1      46.481 -18.495  40.799  0.00  0.00    -0.162 NA
BRANCH  14  15
ATOM     15  S   UNL d   1      46.154 -18.647  41.536  0.00  0.00     0.266 S 
ATOM     16  O   UNL d   1      46.119 -19.418  41.227  0.00  0.00    -0.203 OA
ATOM     17  O   UNL d   1      45.817 -19.107  42.140  0.00  0.00    -0.203 OA
ATOM     18  C   UNL d   1      46.177 -17.891  41.867  0.00  0.00     0.165 C 
ENDBRANCH  14  15
ENDBRANCH  11  14
ENDBRANCH   5   8
BRANCH   4  19
ATOM     19  C   UNL d   1      43.209 -16.011  37.408  0.00  0.00     0.018 A 
ATOM     20  C   UNL d   1      42.655 -15.527  37.782  0.00  0.00     0.004 A 
ATOM     21  C   UNL d   1      41.922 -15.387  37.423  0.00  0.00     0.030 A 
ATOM     22  C   UNL d   1      41.757 -15.731  36.699  0.00  0.00     0.140 A 
ATOM     23  C   UNL d   1      42.304 -16.209  36.330  0.00  0.00     0.030 A 
ATOM     24  F   UNL d   1      41.017 -15.589  36.338  0.00  0.00    -0.204 F 
ATOM     25  C   UNL d   1      43.032 -16.353  36.679  0.00  0.00     0.004 A 
ENDBRANCH   4  19
BRANCH   3  26
ATOM     26  C   UNL d   1      45.467 -14.764  36.970  0.00  0.00     0.158 A 
ATOM     27  O   UNL d   1      45.850 -14.260  37.530  0.00  0.00    -0.300 OA
ATOM     28  C   UNL d   1      46.577 -14.033  37.203  0.00  0.00     0.123 A 
ATOM     29  C   UNL d   1      46.647 -14.384  36.462  0.00  0.00     0.029 A 
ATOM     30  C   UNL d   1      45.957 -14.830  36.331  0.00  0.00     0.032 A 
ENDBRANCH   3  26
TORSDOF 5
ENDMDL
