MODEL 1
REMARK VINA RESULT:      28.9      0.000      0.000
REMARK  6 active torsions:
REMARK  status: ('A' for Active; 'I' for Inactive)
REMARK    1  A    between atoms: C_8  and  C_6 
REMARK    2  A    between atoms: C_10  and  C_8 
REMARK       I    between atoms: N_13  and  C_10 
REMARK    3  A    between atoms: C_11  and  C_14 
REMARK    4  A    between atoms: O_20  and  C_11 
REMARK    5  A    between atoms: C_19  and  N_13 
REMARK    6  A    between atoms: C_23  and  O_20 
ROOT
ATOM      1  C   UNL d   1      13.854  12.425  -1.138  0.00  0.00     0.280 C 
ATOM      2  N   UNL d   1      13.992  12.738  -0.385  0.00  0.00    -0.208 NA
ATOM      3  O   UNL d   1      13.340  11.785  -1.225  0.00  0.00    -0.265 OA
ENDROOT
BRANCH   1   4
ATOM      4  C   UNL d   1      14.227  12.750  -1.796  0.00  0.00     0.074 C 
BRANCH   4   5
ATOM      5  C   UNL d   1      13.901  12.644  -2.550  0.00  0.00     0.095 A 
ATOM      6  C   UNL d   1      13.940  13.181  -3.173  0.00  0.00     0.288 A 
ATOM      7  N   UNL d   1      13.546  12.855  -3.814  0.00  0.00    -0.169 N 
ATOM      8  O   UNL d   1      14.312  13.917  -3.155  0.00  0.00    -0.265 OA
ATOM      9  C   UNL d   1      13.259  12.111  -3.590  0.00  0.00     0.200 A 
ATOM     10  N   UNL d   1      13.326  12.986  -4.599  0.00  0.00    -0.138 NA
ATOM     11  N   UNL d   1      12.862  11.782  -4.234  0.00  0.00    -0.197 NA
ATOM     12  S   UNL d   1      13.479  11.981  -2.805  0.00  0.00    -0.043 SA
ATOM     13  C   UNL d   1      12.902  12.323  -4.862  0.00  0.00     0.222 A 
ENDBRANCH   4   5
ENDBRANCH   1   4
BRANCH   2  14
ATOM     14  C   UNL d   1      14.506  13.377  -0.301  0.00  0.00     0.085 A 
ATOM     15  C   UNL d   1      15.317  13.263  -0.419  0.00  0.00     0.019 A 
ATOM     16  C   UNL d   1      15.838  13.890  -0.339  0.00  0.00     0.007 A 
ATOM     17  C   UNL d   1      15.550  14.644  -0.139  0.00  0.00     0.064 A 
ATOM     18  C   UNL d   1      14.737  14.755  -0.022  0.00  0.00     0.007 A 
ATOM     19  C   UNL d   1      14.218  14.123  -0.103  0.00  0.00     0.019 A 
BRANCH  17  20
ATOM     20  C   UNL d   1      16.065  15.278  -0.057  0.00  0.00     0.300 C 
ATOM     21  O   UNL d   1      16.882  15.143  -0.016  0.00  0.00    -0.259 OA
BRANCH  20  22
ATOM     22  O   UNL d   1      15.773  16.046  -0.015  0.00  0.00    -0.271 OA
BRANCH  22  23
ATOM     23  C   UNL d   1      15.986  16.598  -0.594  0.00  0.00     0.126 C 
ATOM     24  C   UNL d   1      15.405  17.061  -0.955  0.00  0.00     0.029 C 
ENDBRANCH  22  23
ENDBRANCH  20  22
ENDBRANCH  17  20
ENDBRANCH   2  14
TORSDOF 6
ENDMDL
MODEL 2
REMARK VINA RESULT:      31.1      1.742      4.495
REMARK  6 active torsions:
REMARK  status: ('A' for Active; 'I' for Inactive)
REMARK    1  A    between atoms: C_8  and  C_6 
REMARK    2  A    between atoms: C_10  and  C_8 
REMARK       I    between atoms: N_13  and  C_10 
REMARK    3  A    between atoms: C_11  and  C_14 
REMARK    4  A    between atoms: O_20  and  C_11 
REMARK    5  A    between atoms: C_19  and  N_13 
REMARK    6  A    between atoms: C_23  and  O_20 
ROOT
ATOM      1  C   UNL d   1      14.381  12.067  -0.808  0.00  0.00     0.280 C 
ATOM      2  N   UNL d   1      13.719  11.780  -1.212  0.00  0.00    -0.208 NA
ATOM      3  O   UNL d   1      14.495  11.864  -0.016  0.00  0.00    -0.265 OA
ENDROOT
BRANCH   1   4
ATOM      4  C   UNL d   1      14.924  12.552  -1.194  0.00  0.00     0.074 C 
BRANCH   4   5
ATOM      5  C   UNL d   1      15.056  13.323  -0.922  0.00  0.00     0.095 A 
ATOM      6  C   UNL d   1      15.757  13.748  -0.996  0.00  0.00     0.288 A 
ATOM      7  N   UNL d   1      15.645  14.484  -0.651  0.00  0.00    -0.169 N 
ATOM      8  O   UNL d   1      16.450  13.480  -1.354  0.00  0.00    -0.265 OA
ATOM      9  C   UNL d   1      14.870  14.518  -0.361  0.00  0.00     0.200 A 
ATOM     10  N   UNL d   1      16.010  15.204  -0.483  0.00  0.00    -0.138 NA
ATOM     11  N   UNL d   1      14.756  15.259  -0.014  0.00  0.00    -0.197 NA
ATOM     12  S   UNL d   1      14.504  13.797  -0.529  0.00  0.00    -0.043 SA
ATOM     13  C   UNL d   1      15.463  15.686  -0.089  0.00  0.00     0.222 A 
ENDBRANCH   4   5
ENDBRANCH   1   4
BRANCH   2  14
ATOM     14  C   UNL d   1      13.609  11.985  -2.003  0.00  0.00     0.085 A 
ATOM     15  C   UNL d   1      14.244  11.925  -2.529  0.00  0.00     0.019 A 
ATOM     16  C   UNL d   1      14.148  12.126  -3.317  0.00  0.00     0.007 A 
ATOM     17  C   UNL d   1      13.408  12.389  -3.589  0.00  0.00     0.064 A 
ATOM     18  C   UNL d   1      12.772  12.448  -3.060  0.00  0.00     0.007 A 
ATOM     19  C   UNL d   1      12.874  12.246  -2.269  0.00  0.00     0.019 A 
BRANCH  17  20
ATOM     20  C   UNL d   1      13.302  12.592  -4.378  0.00  0.00     0.300 C 
ATOM     21  O   UNL d   1      13.410  13.378  -4.619  0.00  0.00    -0.259 OA
BRANCH  20  22
ATOM     22  O   UNL d   1      13.088  12.019  -4.928  0.00  0.00    -0.271 OA
BRANCH  22  23
ATOM     23  C   UNL d   1      13.580  11.870  -5.577  0.00  0.00     0.126 C 
ATOM     24  C   UNL d   1      13.253  11.787  -6.331  0.00  0.00     0.029 C 
ENDBRANCH  22  23
ENDBRANCH  20  22
ENDBRANCH  17  20
ENDBRANCH   2  14
TORSDOF 6
ENDMDL
