MODEL 1
REMARK VINA RESULT:      39.9      0.000      0.000
REMARK  2 active torsions:
REMARK  status: ('A' for Active; 'I' for Inactive)
REMARK    1  A    between atoms: C_7  and  C_1 
REMARK    2  A    between atoms: C_11  and  C_7 
ROOT
ATOM      1  C   UNL d   1     -57.557 -98.850 -43.895  0.00  0.00     0.116 A 
ATOM      2  N   UNL d   1     -58.972 -98.796 -43.983  0.00  0.00    -0.152 NA
ATOM      3  N   UNL d   1     -58.328 -98.839 -42.689  0.00  0.00    -0.152 NA
ATOM      4  C   UNL d   1     -58.233 -98.819 -44.328  0.00  0.00     0.288 A 
ATOM      5  C   UNL d   1     -57.602 -98.860 -43.071  0.00  0.00     0.288 A 
ATOM      6  C   UNL d   1     -59.019 -98.807 -43.136  0.00  0.00     0.374 A 
ATOM      7  O   UNL d   1     -56.910 -98.893 -42.599  0.00  0.00    -0.265 OA
ATOM      8  O   UNL d   1     -58.176 -98.809 -45.165  0.00  0.00    -0.265 OA
ATOM      9  O   UNL d   1     -59.746 -98.785 -42.729  0.00  0.00    -0.242 OA
ENDROOT
BRANCH   1  10
ATOM     10  C   UNL d   1     -56.807 -98.873 -44.272  0.00  0.00     0.010 C 
BRANCH  10  11
ATOM     11  C   UNL d   1     -56.407 -99.594 -44.309  0.00  0.00     0.000 A 
ATOM     12  C   UNL d   1     -55.904 -99.811 -43.702  0.00  0.00     0.002 A 
ATOM     13  C   UNL d   1     -55.509-100.523 -43.739  0.00  0.00     0.030 A 
ATOM     14  C   UNL d   1     -55.617-101.026 -44.390  0.00  0.00     0.140 A 
ATOM     15  C   UNL d   1     -56.121-100.809 -44.997  0.00  0.00     0.030 A 
ATOM     16  F   UNL d   1     -55.221-101.767 -44.451  0.00  0.00    -0.204 F 
ATOM     17  C   UNL d   1     -56.516-100.097 -44.960  0.00  0.00     0.002 A 
ENDBRANCH  10  11
ENDBRANCH   1  10
TORSDOF 2
ENDMDL
