MODEL 1
REMARK VINA RESULT:      71.5      0.000      0.000
REMARK  6 active torsions:
REMARK  status: ('A' for Active; 'I' for Inactive)
REMARK    1  A    between atoms: N_6  and  S_1 
REMARK    2  A    between atoms: C_7  and  S_1 
REMARK       I    between atoms: C_2  and  N_4 
REMARK    3  A    between atoms: C_8  and  C_2 
REMARK    4  A    between atoms: C_3  and  C_12 
REMARK       I    between atoms: N_5  and  C_3 
REMARK    5  A    between atoms: C_23  and  N_6 
REMARK    6  A    between atoms: O_29  and  C_26 
ROOT
ATOM      1  C   UNL d   1     -54.716-101.376 -40.772  0.00  0.00     0.057 A 
ATOM      2  C   UNL d   1     -54.718 -99.956 -41.606  0.00  0.00     0.094 A 
ATOM      3  C   UNL d   1     -54.716-100.653 -40.368  0.00  0.00     0.006 A 
ATOM      4  C   UNL d   1     -54.718-101.386 -41.594  0.00  0.00     0.006 A 
ATOM      5  C   UNL d   1     -54.717 -99.941 -40.793  0.00  0.00     0.020 A 
ATOM      6  C   UNL d   1     -54.719-100.674 -42.012  0.00  0.00     0.020 A 
ENDROOT
BRANCH   1   7
ATOM      7  C   UNL d   1     -54.715-102.093 -40.347  0.00  0.00     0.265 C 
ATOM      8  N   UNL d   1     -54.718-102.092 -39.517  0.00  0.00    -0.269 N 
ATOM      9  C   UNL d   1     -54.717-102.804 -39.098  0.00  0.00     0.102 A 
ATOM     10  C   UNL d   1     -54.721-101.375 -39.108  0.00  0.00     0.102 A 
ATOM     11  C   UNL d   1     -54.719-102.796 -38.273  0.00  0.00     0.102 A 
ATOM     12  N   UNL d   1     -54.722-102.073 -37.876  0.00  0.00    -0.267 N 
ATOM     13  C   UNL d   1     -54.725-102.062 -37.054  0.00  0.00     0.288 C 
ATOM     14  C   UNL d   1     -54.723-101.367 -38.289  0.00  0.00     0.102 A 
ATOM     15  O   UNL d   1     -54.723-102.777 -36.633  0.00  0.00    -0.264 OA
ATOM     16  O   UNL d   1     -54.712-102.813 -40.759  0.00  0.00    -0.267 OA
BRANCH  13  17
ATOM     17  C   UNL d   1     -54.728-101.351 -36.651  0.00  0.00     0.156 A 
ATOM     18  O   UNL d   1     -54.746-100.592 -36.989  0.00  0.00    -0.300 OA
ATOM     19  C   UNL d   1     -54.743-100.045 -36.377  0.00  0.00     0.123 A 
ATOM     20  C   UNL d   1     -54.723-100.449 -35.658  0.00  0.00     0.029 A 
ATOM     21  C   UNL d   1     -54.713-101.256 -35.827  0.00  0.00     0.032 A 
ENDBRANCH  13  17
ENDBRANCH   1   7
BRANCH   2  22
ATOM     22  N   UNL d   1     -54.719 -99.246 -42.028  0.00  0.00    -0.158 NA
BRANCH  22  23
ATOM     23  S   UNL d   1     -55.275 -99.124 -42.614  0.00  0.00     0.285 S 
ATOM     24  O   UNL d   1     -55.846 -98.957 -42.041  0.00  0.00    -0.198 OA
ATOM     25  O   UNL d   1     -54.711 -99.290 -43.191  0.00  0.00    -0.198 OA
BRANCH  23  26
ATOM     26  C   UNL d   1     -55.838 -99.001 -43.206  0.00  0.00     0.107 A 
ATOM     27  C   UNL d   1     -56.640 -98.985 -43.014  0.00  0.00     0.037 A 
ATOM     28  C   UNL d   1     -57.204 -98.862 -43.605  0.00  0.00     0.095 A 
ATOM     29  C   UNL d   1     -56.961 -98.755 -44.387  0.00  0.00     0.024 A 
ATOM     30  C   UNL d   1     -56.166 -98.771 -44.577  0.00  0.00     0.003 A 
ATOM     31  C   UNL d   1     -55.600 -98.894 -43.989  0.00  0.00     0.013 A 
BRANCH  28  32
ATOM     32  O   UNL d   1     -58.017 -98.845 -43.419  0.00  0.00    -0.328 OA
ATOM     33  C   UNL d   1     -58.582 -98.803 -44.021  0.00  0.00     0.181 C 
ENDBRANCH  28  32
ENDBRANCH  23  26
ENDBRANCH  22  23
ENDBRANCH   2  22
TORSDOF 6
ENDMDL
