MODEL 1
REMARK VINA RESULT:      22.6      0.000      0.000
REMARK  3 active torsions:
REMARK  status: ('A' for Active; 'I' for Inactive)
REMARK    1  A    between atoms: S_10  and  C_6 
REMARK    2  A    between atoms: C_13  and  S_10 
REMARK    3  A    between atoms: C_14  and  C_13 
ROOT
ATOM      1  C   UNL d   1     -57.594 -98.755 -44.287  0.00  0.00     0.141 A 
ATOM      2  O   UNL d   1     -57.060 -98.755 -43.658  0.00  0.00    -0.303 OA
ATOM      3  C   UNL d   1     -57.161 -98.755 -44.993  0.00  0.00     0.110 A 
ATOM      4  C   UNL d   1     -56.362 -98.755 -44.798  0.00  0.00     0.043 A 
ATOM      5  C   UNL d   1     -56.294 -98.755 -43.975  0.00  0.00     0.102 A 
ATOM      6  C   UNL d   1     -58.413 -98.755 -44.307  0.00  0.00     0.137 A 
ATOM      7  N   UNL d   1     -58.811 -98.755 -45.035  0.00  0.00    -0.215 NA
ATOM      8  N   UNL d   1     -57.560 -98.755 -45.712  0.00  0.00    -0.222 NA
ATOM      9  C   UNL d   1     -58.381 -98.755 -45.732  0.00  0.00     0.200 A 
ATOM     10  C   UNL d   1     -55.682 -98.755 -45.272  0.00  0.00     0.004 A 
ATOM     11  C   UNL d   1     -55.547 -98.755 -43.618  0.00  0.00     0.025 A 
ATOM     12  C   UNL d   1     -54.935 -98.755 -44.915  0.00  0.00     0.000 A 
ATOM     13  C   UNL d   1     -54.871 -98.755 -44.094  0.00  0.00     0.002 A 
ENDROOT
BRANCH   6  14
ATOM     14  S   UNL d   1     -58.855 -98.755 -43.603  0.00  0.00    -0.065 SA
BRANCH  14  15
ATOM     15  C   UNL d   1     -59.645 -98.994 -43.618  0.00  0.00     0.037 C 
BRANCH  15  16
ATOM     16  C   UNL d   1     -59.956 -99.432 -42.992  0.00  0.00     0.007 C 
ATOM     17  C   UNL d   1     -59.922 -99.125 -42.229  0.00  0.00     0.001 C 
ENDBRANCH  15  16
ENDBRANCH  14  15
ENDBRANCH   6  14
TORSDOF 3
ENDMDL
MODEL 2
REMARK VINA RESULT:      23.2      1.251      2.233
REMARK  3 active torsions:
REMARK  status: ('A' for Active; 'I' for Inactive)
REMARK    1  A    between atoms: S_10  and  C_6 
REMARK    2  A    between atoms: C_13  and  S_10 
REMARK    3  A    between atoms: C_14  and  C_13 
ROOT
ATOM      1  C   UNL d   1     -58.180 -98.763 -44.894  0.00  0.00     0.141 A 
ATOM      2  O   UNL d   1     -57.493 -98.758 -45.350  0.00  0.00    -0.303 OA
ATOM      3  C   UNL d   1     -57.960 -98.767 -44.096  0.00  0.00     0.110 A 
ATOM      4  C   UNL d   1     -57.138 -98.765 -44.062  0.00  0.00     0.043 A 
ATOM      5  C   UNL d   1     -56.844 -98.760 -44.834  0.00  0.00     0.102 A 
ATOM      6  C   UNL d   1     -58.973 -98.763 -45.102  0.00  0.00     0.137 A 
ATOM      7  N   UNL d   1     -59.557 -98.768 -44.512  0.00  0.00    -0.215 NA
ATOM      8  N   UNL d   1     -58.542 -98.772 -43.515  0.00  0.00    -0.222 NA
ATOM      9  C   UNL d   1     -59.336 -98.772 -43.724  0.00  0.00     0.200 A 
ATOM     10  C   UNL d   1     -56.616 -98.768 -43.419  0.00  0.00     0.004 A 
ATOM     11  C   UNL d   1     -56.028 -98.758 -44.970  0.00  0.00     0.025 A 
ATOM     12  C   UNL d   1     -55.799 -98.766 -43.555  0.00  0.00     0.000 A 
ATOM     13  C   UNL d   1     -55.510 -98.761 -44.325  0.00  0.00     0.002 A 
ENDROOT
BRANCH   6  14
ATOM     14  S   UNL d   1     -59.202 -98.758 -45.900  0.00  0.00    -0.065 SA
BRANCH  14  15
ATOM     15  C   UNL d   1     -59.837 -99.227 -46.145  0.00  0.00     0.037 C 
BRANCH  15  16
ATOM     16  C   UNL d   1     -59.935 -99.407 -46.943  0.00  0.00     0.007 C 
ATOM     17  C   UNL d   1     -59.803 -98.822 -47.508  0.00  0.00     0.001 C 
ENDBRANCH  15  16
ENDBRANCH  14  15
ENDBRANCH   6  14
TORSDOF 3
ENDMDL
