MODEL 1
REMARK VINA RESULT:      20.9      0.000      0.000
REMARK  2 active torsions:
REMARK  status: ('A' for Active; 'I' for Inactive)
REMARK    1  A    between atoms: O_3  and  C_1 
REMARK       I    between atoms: N_6  and  C_1 
REMARK    2  A    between atoms: C_5  and  O_3 
ROOT
ATOM      1  C   UNL d   1      59.660  49.704  50.482  0.00  0.00     0.105 A 
ATOM      2  C   UNL d   1      60.280  49.703  51.022  0.00  0.00     0.030 A 
ATOM      3  C   UNL d   1      58.867  49.706  50.753  0.00  0.00     0.122 A 
ATOM      4  N   UNL d   1      59.816  49.702  49.666  0.00  0.00    -0.242 NA
ATOM      5  C   UNL d   1      60.123  49.705  51.834  0.00  0.00     0.059 A 
ATOM      6  C   UNL d   1      58.712  49.708  51.559  0.00  0.00     0.027 A 
ATOM      7  C   UNL d   1      59.330  49.707  52.105  0.00  0.00     0.013 A 
ATOM      8 CL   UNL d   1      60.746  49.704  52.383  0.00  0.00    -0.082 Cl
ATOM      9  C   UNL d   1      61.061  49.701  50.755  0.00  0.00     0.004 A 
ATOM     10  C   UNL d   1      60.597  49.700  49.399  0.00  0.00     0.099 A 
ATOM     11  C   UNL d   1      61.221  49.700  49.948  0.00  0.00     0.021 A 
ENDROOT
BRANCH   3  12
ATOM     12  O   UNL d   1      58.236  49.706  50.207  0.00  0.00    -0.257 OA
BRANCH  12  13
ATOM     13  C   UNL d   1      57.448  49.622  50.470  0.00  0.00     0.378 C 
ATOM     14  N   UNL d   1      56.827  49.620  49.937  0.00  0.00    -0.249 N 
ATOM     15  C   UNL d   1      56.051  49.536  50.202  0.00  0.00     0.104 C 
ATOM     16  C   UNL d   1      56.977  49.702  49.129  0.00  0.00     0.104 C 
ATOM     17  O   UNL d   1      57.296  49.539  51.288  0.00  0.00    -0.237 OA
ENDBRANCH  12  13
ENDBRANCH   3  12
TORSDOF 2
ENDMDL
