MODEL 1
REMARK VINA RESULT:     118.6      0.000      0.000
REMARK  6 active torsions:
REMARK  status: ('A' for Active; 'I' for Inactive)
REMARK    1  A    between atoms: C_6  and  C_1 
REMARK    2  A    between atoms: N_4  and  C_2 
REMARK       I    between atoms: C_8  and  N_4 
REMARK    3  A    between atoms: C_11  and  C_8 
REMARK    4  A    between atoms: O_22  and  C_10 
REMARK    5  A    between atoms: O_24  and  C_12 
REMARK    6  A    between atoms: O_23  and  C_13 
ROOT
ATOM      1  C   UNL d   1     -56.584 -98.913 -42.729  0.00  0.00     0.080 A 
ATOM      2  C   UNL d   1     -55.809 -99.004 -42.996  0.00  0.00     0.188 A 
ATOM      3  C   UNL d   1     -56.736 -98.848 -41.920  0.00  0.00     0.201 A 
ATOM      4  O   UNL d   1     -55.186 -99.030 -42.454  0.00  0.00    -0.289 OA
ATOM      5  C   UNL d   1     -56.115 -98.874 -41.380  0.00  0.00     0.062 A 
ATOM      6  C   UNL d   1     -55.340 -98.965 -41.647  0.00  0.00     0.105 A 
ATOM      7  O   UNL d   1     -57.512 -98.757 -41.653  0.00  0.00    -0.286 OA
ATOM      8  C   UNL d   1     -56.268 -98.809 -40.574  0.00  0.00     0.005 A 
ATOM      9  C   UNL d   1     -54.718 -98.991 -41.107  0.00  0.00     0.025 A 
ATOM     10  C   UNL d   1     -55.645 -98.834 -40.027  0.00  0.00     0.000 A 
ATOM     11  C   UNL d   1     -54.870 -98.925 -40.294  0.00  0.00     0.002 A 
ENDROOT
BRANCH   1  12
ATOM     12  C   UNL d   1     -57.205 -98.888 -43.269  0.00  0.00     0.011 A 
ATOM     13  C   UNL d   1     -57.983 -98.912 -43.002  0.00  0.00     0.027 A 
ATOM     14  C   UNL d   1     -58.612 -98.886 -43.543  0.00  0.00     0.118 A 
ATOM     15  C   UNL d   1     -58.453 -98.836 -44.357  0.00  0.00     0.138 A 
ATOM     16  C   UNL d   1     -57.667 -98.811 -44.622  0.00  0.00     0.118 A 
ATOM     17  C   UNL d   1     -57.047 -98.837 -44.082  0.00  0.00     0.027 A 
BRANCH  14  18
ATOM     18  O   UNL d   1     -59.396 -98.911 -43.269  0.00  0.00    -0.326 OA
ATOM     19  C   UNL d   1     -59.555 -99.046 -42.466  0.00  0.00     0.181 C 
ENDBRANCH  14  18
BRANCH  15  20
ATOM     20  O   UNL d   1     -59.077 -98.809 -44.905  0.00  0.00    -0.324 OA
ATOM     21  C   UNL d   1     -59.864 -98.874 -44.649  0.00  0.00     0.182 C 
ENDBRANCH  15  20
BRANCH  16  22
ATOM     22  O   UNL d   1     -57.509 -98.761 -45.431  0.00  0.00    -0.326 OA
ATOM     23  C   UNL d   1     -58.022 -99.109 -45.974  0.00  0.00     0.181 C 
ENDBRANCH  16  22
ENDBRANCH   1  12
BRANCH   2  24
ATOM     24  N   UNL d   1     -55.650 -99.071 -43.813  0.00  0.00    -0.182 NA
ATOM     25  C   UNL d   1     -55.115 -99.644 -44.083  0.00  0.00     0.304 C 
ATOM     26  O   UNL d   1     -54.739-100.150 -43.552  0.00  0.00    -0.263 OA
BRANCH  25  27
ATOM     27  C   UNL d   1     -54.961 -99.705 -44.896  0.00  0.00     0.158 A 
ATOM     28  O   UNL d   1     -54.884 -99.140 -45.485  0.00  0.00    -0.300 OA
ATOM     29  C   UNL d   1     -54.730 -99.529 -46.196  0.00  0.00     0.123 A 
ATOM     30  C   UNL d   1     -54.712-100.344 -46.041  0.00  0.00     0.029 A 
ATOM     31  C   UNL d   1     -54.855-100.448 -45.239  0.00  0.00     0.032 A 
ENDBRANCH  25  27
ENDBRANCH   2  24
TORSDOF 6
ENDMDL
MODEL 2
REMARK VINA RESULT:     119.1      1.226      4.570
REMARK  6 active torsions:
REMARK  status: ('A' for Active; 'I' for Inactive)
REMARK    1  A    between atoms: C_6  and  C_1 
REMARK    2  A    between atoms: N_4  and  C_2 
REMARK       I    between atoms: C_8  and  N_4 
REMARK    3  A    between atoms: C_11  and  C_8 
REMARK    4  A    between atoms: O_22  and  C_10 
REMARK    5  A    between atoms: O_24  and  C_12 
REMARK    6  A    between atoms: O_23  and  C_13 
ROOT
ATOM      1  C   UNL d   1     -55.955 -99.426 -44.064  0.00  0.00     0.080 A 
ATOM      2  C   UNL d   1     -56.703 -99.081 -44.116  0.00  0.00     0.188 A 
ATOM      3  C   UNL d   1     -55.508 -99.548 -44.748  0.00  0.00     0.201 A 
ATOM      4  O   UNL d   1     -57.004 -98.858 -44.853  0.00  0.00    -0.289 OA
ATOM      5  C   UNL d   1     -55.809 -99.325 -45.482  0.00  0.00     0.062 A 
ATOM      6  C   UNL d   1     -56.557 -98.980 -45.534  0.00  0.00     0.105 A 
ATOM      7  O   UNL d   1     -54.761 -99.892 -44.696  0.00  0.00    -0.286 OA
ATOM      8  C   UNL d   1     -55.363 -99.446 -46.163  0.00  0.00     0.005 A 
ATOM      9  C   UNL d   1     -56.858 -98.757 -46.268  0.00  0.00     0.025 A 
ATOM     10  C   UNL d   1     -55.663 -99.223 -46.903  0.00  0.00     0.000 A 
ATOM     11  C   UNL d   1     -56.410 -98.878 -46.956  0.00  0.00     0.002 A 
ENDROOT
BRANCH   1  12
ATOM     12  C   UNL d   1     -55.654 -99.649 -43.330  0.00  0.00     0.011 A 
ATOM     13  C   UNL d   1     -55.622 -99.102 -42.717  0.00  0.00     0.027 A 
ATOM     14  C   UNL d   1     -55.320 -99.323 -41.976  0.00  0.00     0.118 A 
ATOM     15  C   UNL d   1     -55.050-100.099 -41.856  0.00  0.00     0.138 A 
ATOM     16  C   UNL d   1     -55.084-100.648 -42.478  0.00  0.00     0.118 A 
ATOM     17  C   UNL d   1     -55.385-100.425 -43.210  0.00  0.00     0.027 A 
BRANCH  14  18
ATOM     18  O   UNL d   1     -55.289 -98.768 -41.358  0.00  0.00    -0.326 OA
ATOM     19  C   UNL d   1     -54.780 -98.885 -40.713  0.00  0.00     0.181 C 
ENDBRANCH  14  18
BRANCH  15  20
ATOM     20  O   UNL d   1     -54.746-100.328 -41.117  0.00  0.00    -0.324 OA
ATOM     21  C   UNL d   1     -54.953-101.061 -40.788  0.00  0.00     0.182 C 
ENDBRANCH  15  20
BRANCH  16  22
ATOM     22  O   UNL d   1     -54.816-101.419 -42.358  0.00  0.00    -0.326 OA
ATOM     23  C   UNL d   1     -54.721-101.927 -43.000  0.00  0.00     0.181 C 
ENDBRANCH  16  22
ENDBRANCH   1  12
BRANCH   2  24
ATOM     24  N   UNL d   1     -57.158 -98.957 -43.427  0.00  0.00    -0.182 NA
ATOM     25  C   UNL d   1     -57.975 -99.096 -43.444  0.00  0.00     0.304 C 
ATOM     26  O   UNL d   1     -58.343 -99.357 -44.133  0.00  0.00    -0.263 OA
BRANCH  25  27
ATOM     27  C   UNL d   1     -58.422 -98.970 -42.756  0.00  0.00     0.158 A 
ATOM     28  O   UNL d   1     -58.206 -98.848 -41.974  0.00  0.00    -0.300 OA
ATOM     29  C   UNL d   1     -58.895 -98.755 -41.529  0.00  0.00     0.123 A 
ATOM     30  C   UNL d   1     -59.541 -98.821 -42.044  0.00  0.00     0.029 A 
ATOM     31  C   UNL d   1     -59.246 -98.954 -42.799  0.00  0.00     0.032 A 
ENDBRANCH  25  27
ENDBRANCH   2  24
TORSDOF 6
ENDMDL
