MODEL 1
REMARK VINA RESULT:      54.1      0.000      0.000
REMARK  4 active torsions:
REMARK  status: ('A' for Active; 'I' for Inactive)
REMARK    1  A    between atoms: C_13  and  N_3 
REMARK    2  A    between atoms: C_11  and  C_6 
REMARK    3  A    between atoms: O_22  and  C_11 
REMARK    4  A    between atoms: C_21  and  C_13 
ROOT
ATOM      1  C   UNL d   1      13.994  13.963  -2.588  0.00  0.00     0.155 A 
ATOM      2  C   UNL d   1      14.003  14.221  -3.369  0.00  0.00     0.091 A 
ATOM      3  N   UNL d   1      13.727  13.207  -2.407  0.00  0.00    -0.274 N 
ATOM      4  N   UNL d   1      14.254  14.463  -1.985  0.00  0.00    -0.210 NA
ATOM      5  N   UNL d   1      14.530  15.479  -2.951  0.00  0.00    -0.258 N 
ATOM      6  C   UNL d   1      13.475  12.959  -3.784  0.00  0.00     0.100 A 
ATOM      7  C   UNL d   1      14.524  15.226  -2.164  0.00  0.00     0.152 A 
ATOM      8  C   UNL d   1      13.469  12.707  -3.001  0.00  0.00     0.175 A 
ATOM      9  C   UNL d   1      14.270  14.981  -3.561  0.00  0.00     0.269 A 
ATOM     10  C   UNL d   1      13.742  13.718  -3.977  0.00  0.00     0.016 A 
ATOM     11  C   UNL d   1      14.782  15.724  -1.566  0.00  0.00     0.035 A 
ATOM     12  C   UNL d   1      14.800  16.244  -3.137  0.00  0.00     0.084 A 
ATOM     13  N   UNL d   1      13.199  11.943  -2.819  0.00  0.00    -0.128 N 
ATOM     14  O   UNL d   1      14.279  15.239  -4.343  0.00  0.00    -0.266 OA
ATOM     15  C   UNL d   1      15.058  16.739  -2.528  0.00  0.00     0.019 A 
ATOM     16  C   UNL d   1      15.049  16.479  -1.743  0.00  0.00     0.005 A 
ATOM     17  C   UNL d   1      14.770  15.457  -0.783  0.00  0.00     0.003 C 
ENDROOT
BRANCH   3  18
ATOM     18  C   UNL d   1      13.720  12.952  -1.625  0.00  0.00     0.084 C 
BRANCH  18  19
ATOM     19  C   UNL d   1      14.377  12.558  -1.311  0.00  0.00     0.037 A 
ATOM     20  C   UNL d   1      14.901  12.182  -1.812  0.00  0.00     0.100 A 
ATOM     21  N   UNL d   1      15.557  11.788  -1.506  0.00  0.00    -0.242 NA
ATOM     22  C   UNL d   1      15.677  11.779  -0.692  0.00  0.00     0.099 A 
ATOM     23  C   UNL d   1      15.148  12.160  -0.185  0.00  0.00     0.021 A 
ATOM     24  C   UNL d   1      14.497  12.549  -0.500  0.00  0.00     0.005 A 
ENDBRANCH  18  19
ENDBRANCH   3  18
BRANCH   6  25
ATOM     25  C   UNL d   1      13.215  12.458  -4.386  0.00  0.00     0.299 C 
ATOM     26  O   UNL d   1      12.769  11.779  -4.206  0.00  0.00    -0.259 OA
BRANCH  25  27
ATOM     27  O   UNL d   1      13.396  12.627  -5.169  0.00  0.00    -0.296 OA
ATOM     28  C   UNL d   1      13.325  12.045  -5.751  0.00  0.00     0.185 C 
ENDBRANCH  25  27
ENDBRANCH   6  25
TORSDOF 4
ENDMDL
MODEL 2
REMARK VINA RESULT:      55.5      1.143      3.251
REMARK  4 active torsions:
REMARK  status: ('A' for Active; 'I' for Inactive)
REMARK    1  A    between atoms: C_13  and  N_3 
REMARK    2  A    between atoms: C_11  and  C_6 
REMARK    3  A    between atoms: O_22  and  C_11 
REMARK    4  A    between atoms: C_21  and  C_13 
ROOT
ATOM      1  C   UNL d   1      13.879  13.785  -2.551  0.00  0.00     0.155 A 
ATOM      2  C   UNL d   1      14.015  14.453  -3.012  0.00  0.00     0.091 A 
ATOM      3  N   UNL d   1      14.086  13.784  -1.756  0.00  0.00    -0.274 N 
ATOM      4  N   UNL d   1      13.535  13.115  -2.888  0.00  0.00    -0.210 NA
ATOM      5  N   UNL d   1      13.465  13.787  -4.147  0.00  0.00    -0.258 N 
ATOM      6  C   UNL d   1      14.566  15.117  -1.872  0.00  0.00     0.100 A 
ATOM      7  C   UNL d   1      13.326  13.112  -3.690  0.00  0.00     0.152 A 
ATOM      8  C   UNL d   1      14.427  14.446  -1.417  0.00  0.00     0.175 A 
ATOM      9  C   UNL d   1      13.811  14.464  -3.814  0.00  0.00     0.269 A 
ATOM     10  C   UNL d   1      14.362  15.128  -2.674  0.00  0.00     0.016 A 
ATOM     11  C   UNL d   1      12.984  12.447  -4.026  0.00  0.00     0.035 A 
ATOM     12  C   UNL d   1      13.257  13.791  -4.953  0.00  0.00     0.084 A 
ATOM     13  N   UNL d   1      14.636  14.445  -0.613  0.00  0.00    -0.128 N 
ATOM     14  O   UNL d   1      13.947  15.132  -4.275  0.00  0.00    -0.266 OA
ATOM     15  C   UNL d   1      12.913  13.116  -5.282  0.00  0.00     0.019 A 
ATOM     16  C   UNL d   1      12.776  12.445  -4.819  0.00  0.00     0.005 A 
ATOM     17  C   UNL d   1      12.850  11.779  -3.557  0.00  0.00     0.003 C 
ENDROOT
BRANCH   3  18
ATOM     18  C   UNL d   1      13.948  13.114  -1.298  0.00  0.00     0.084 C 
BRANCH  18  19
ATOM     19  C   UNL d   1      14.586  12.665  -1.018  0.00  0.00     0.037 A 
ATOM     20  C   UNL d   1      15.267  12.609  -1.464  0.00  0.00     0.100 A 
ATOM     21  N   UNL d   1      15.905  12.164  -1.190  0.00  0.00    -0.242 NA
ATOM     22  C   UNL d   1      15.846  11.779  -0.466  0.00  0.00     0.099 A 
ATOM     23  C   UNL d   1      15.157  11.836  -0.015  0.00  0.00     0.021 A 
ATOM     24  C   UNL d   1      14.527  12.282  -0.296  0.00  0.00     0.005 A 
ENDBRANCH  18  19
ENDBRANCH   3  18
BRANCH   6  25
ATOM     25  C   UNL d   1      14.910  15.787  -1.534  0.00  0.00     0.299 C 
ATOM     26  O   UNL d   1      15.144  15.783  -0.736  0.00  0.00    -0.259 OA
BRANCH  25  27
ATOM     27  O   UNL d   1      15.024  16.463  -1.986  0.00  0.00    -0.296 OA
ATOM     28  C   UNL d   1      15.021  17.209  -1.631  0.00  0.00     0.185 C 
ENDBRANCH  25  27
ENDBRANCH   6  25
TORSDOF 4
ENDMDL
MODEL 3
REMARK VINA RESULT:      56.7      1.503      3.067
REMARK  4 active torsions:
REMARK  status: ('A' for Active; 'I' for Inactive)
REMARK    1  A    between atoms: C_13  and  N_3 
REMARK    2  A    between atoms: C_11  and  C_6 
REMARK    3  A    between atoms: O_22  and  C_11 
REMARK    4  A    between atoms: C_21  and  C_13 
ROOT
ATOM      1  C   UNL d   1      13.803  13.846  -3.038  0.00  0.00     0.155 A 
ATOM      2  C   UNL d   1      14.341  13.991  -2.432  0.00  0.00     0.091 A 
ATOM      3  N   UNL d   1      13.429  13.117  -3.092  0.00  0.00    -0.274 N 
ATOM      4  N   UNL d   1      13.640  14.435  -3.593  0.00  0.00    -0.210 NA
ATOM      5  N   UNL d   1      14.555  15.310  -2.931  0.00  0.00    -0.258 N 
ATOM      6  C   UNL d   1      14.124  12.668  -1.934  0.00  0.00     0.100 A 
ATOM      7  C   UNL d   1      14.016  15.172  -3.543  0.00  0.00     0.152 A 
ATOM      8  C   UNL d   1      13.587  12.531  -2.544  0.00  0.00     0.175 A 
ATOM      9  C   UNL d   1      14.723  14.723  -2.369  0.00  0.00     0.269 A 
ATOM     10  C   UNL d   1      14.506  13.400  -1.872  0.00  0.00     0.016 A 
ATOM     11  C   UNL d   1      13.855  15.757  -4.094  0.00  0.00     0.035 A 
ATOM     12  C   UNL d   1      14.935  16.048  -2.874  0.00  0.00     0.084 A 
ATOM     13  N   UNL d   1      13.209  11.793  -2.597  0.00  0.00    -0.128 N 
ATOM     14  O   UNL d   1      15.260  14.867  -1.763  0.00  0.00    -0.266 OA
ATOM     15  C   UNL d   1      14.766  16.631  -3.434  0.00  0.00     0.019 A 
ATOM     16  C   UNL d   1      14.227  16.486  -4.043  0.00  0.00     0.005 A 
ATOM     17  C   UNL d   1      13.314  15.604  -4.700  0.00  0.00     0.003 C 
ENDROOT
BRANCH   3  18
ATOM     18  C   UNL d   1      12.893  12.976  -3.699  0.00  0.00     0.084 C 
BRANCH  18  19
ATOM     19  C   UNL d   1      13.151  12.640  -4.411  0.00  0.00     0.037 A 
ATOM     20  C   UNL d   1      13.779  12.118  -4.407  0.00  0.00     0.100 A 
ATOM     21  N   UNL d   1      14.041  11.781  -5.112  0.00  0.00    -0.242 NA
ATOM     22  C   UNL d   1      13.663  11.976  -5.817  0.00  0.00     0.099 A 
ATOM     23  C   UNL d   1      13.028  12.504  -5.821  0.00  0.00     0.021 A 
ATOM     24  C   UNL d   1      12.775  12.834  -5.112  0.00  0.00     0.005 A 
ENDBRANCH  18  19
ENDBRANCH   3  18
BRANCH   6  25
ATOM     25  C   UNL d   1      14.286  12.079  -1.380  0.00  0.00     0.299 C 
ATOM     26  O   UNL d   1      15.057  11.779  -1.297  0.00  0.00    -0.259 OA
BRANCH  25  27
ATOM     27  O   UNL d   1      13.685  11.785  -0.904  0.00  0.00    -0.296 OA
ATOM     28  C   UNL d   1      13.740  11.833  -0.081  0.00  0.00     0.185 C 
ENDBRANCH  25  27
ENDBRANCH   6  25
TORSDOF 4
ENDMDL
