MODEL 1
REMARK VINA RESULT:     145.7      0.000      0.000
REMARK  3 active torsions:
REMARK  status: ('A' for Active; 'I' for Inactive)
REMARK    1  A    between atoms: C_3  and  S_1 
REMARK    2  A    between atoms: N_4  and  S_1 
REMARK       I    between atoms: C_2  and  N_5 
REMARK       I    between atoms: N_6  and  C_2 
REMARK    3  A    between atoms: C_13  and  N_6 
ROOT
ATOM      1  C   UNL d   1      62.206  43.577  49.643  0.00  0.00     0.339 C 
ATOM      2  N   UNL d   1      61.532  45.887  50.257  0.00  0.00    -0.226 N 
ATOM      3  N   UNL d   1      61.981  44.343  49.853  0.00  0.00    -0.254 N 
ATOM      4  N   UNL d   1      62.271  42.988  50.223  0.00  0.00    -0.257 N 
ATOM      5  C   UNL d   1      61.592  45.312  50.846  0.00  0.00     0.111 A 
ATOM      6  C   UNL d   1      61.696  45.691  49.462  0.00  0.00     0.111 A 
ATOM      7  O   UNL d   1      62.369  43.390  48.847  0.00  0.00    -0.245 OA
ATOM      8  C   UNL d   1      61.819  44.532  50.641  0.00  0.00     0.104 A 
ATOM      9  C   UNL d   1      61.920  44.923  49.261  0.00  0.00     0.104 A 
ATOM     10  C   UNL d   1      62.109  43.178  51.008  0.00  0.00     0.104 C 
ENDROOT
BRANCH   2  11
ATOM     11  S   UNL d   1      61.310  46.648  50.457  0.00  0.00     0.271 S 
ATOM     12  O   UNL d   1      60.634  46.354  50.827  0.00  0.00    -0.200 OA
ATOM     13  O   UNL d   1      61.986  46.942  50.086  0.00  0.00    -0.200 OA
BRANCH  11  14
ATOM     14  C   UNL d   1      61.086  47.416  50.658  0.00  0.00     0.104 A 
ATOM     15  C   UNL d   1      61.228  48.035  50.141  0.00  0.00     0.012 A 
ATOM     16  C   UNL d   1      61.007  48.792  50.339  0.00  0.00     0.001 A 
ATOM     17  C   UNL d   1      61.596  47.885  49.417  0.00  0.00     0.001 C 
ATOM     18  C   UNL d   1      60.640  48.939  51.061  0.00  0.00     0.000 A 
ATOM     19  C   UNL d   1      60.498  48.319  51.579  0.00  0.00     0.001 A 
ATOM     20  C   UNL d   1      60.417  49.707  51.262  0.00  0.00     0.000 C 
ATOM     21  C   UNL d   1      60.720  47.558  51.379  0.00  0.00     0.012 A 
ATOM     22  C   UNL d   1      60.580  46.929  51.898  0.00  0.00     0.001 C 
ENDBRANCH  11  14
ENDBRANCH   2  11
BRANCH   4  23
ATOM     23  C   UNL d   1      62.497  42.219  50.009  0.00  0.00     0.068 A 
ATOM     24  C   UNL d   1      62.872  41.715  50.548  0.00  0.00     0.018 A 
ATOM     25  C   UNL d   1      63.090  40.959  50.326  0.00  0.00     0.002 A 
ATOM     26  C   UNL d   1      62.935  40.694  49.554  0.00  0.00     0.000 A 
ATOM     27  C   UNL d   1      62.560  41.196  49.011  0.00  0.00     0.002 A 
ATOM     28  C   UNL d   1      63.158  39.931  49.338  0.00  0.00     0.000 C 
ATOM     29  C   UNL d   1      62.344  41.957  49.246  0.00  0.00     0.018 A 
ENDBRANCH   4  23
TORSDOF 3
ENDMDL
