MODEL 1
REMARK VINA RESULT:      41.2      0.000      0.000
REMARK  4 active torsions:
REMARK  status: ('A' for Active; 'I' for Inactive)
REMARK    1  A    between atoms: C_6  and  C_1 
REMARK       I    between atoms: N_8  and  C_6 
REMARK    2  A    between atoms: C_17  and  N_8 
REMARK    3  A    between atoms: C_9  and  C_17 
REMARK    4  A    between atoms: O_18  and  C_12 
ROOT
ATOM      1  C   UNL d   1      43.548 -16.353  36.531  0.00  0.00     0.121 A 
ATOM      2  C   UNL d   1      43.040 -16.990  36.502  0.00  0.00     0.305 A 
ATOM      3  O   UNL d   1      42.221 -16.872  36.444  0.00  0.00    -0.271 OA
ATOM      4  C   UNL d   1      43.255 -15.581  36.505  0.00  0.00     0.012 A 
ATOM      5  C   UNL d   1      41.928 -16.100  36.417  0.00  0.00     0.125 A 
ATOM      6  C   UNL d   1      42.435 -15.463  36.447  0.00  0.00     0.025 A 
ATOM      7  O   UNL d   1      43.339 -17.767  36.529  0.00  0.00    -0.259 OA
ATOM      8  C   UNL d   1      41.121 -15.982  36.361  0.00  0.00     0.117 A 
ATOM      9  C   UNL d   1      42.146 -14.694  36.421  0.00  0.00     0.002 A 
ATOM     10  C   UNL d   1      41.328 -14.562  36.363  0.00  0.00     0.002 A 
ATOM     11  C   UNL d   1      40.813 -15.208  36.333  0.00  0.00     0.026 A 
ENDROOT
BRANCH   1  12
ATOM     12  C   UNL d   1      44.356 -16.489  36.588  0.00  0.00     0.284 C 
ATOM     13  N   UNL d   1      45.020 -16.065  36.832  0.00  0.00    -0.204 NA
ATOM     14  O   UNL d   1      44.670 -17.225  36.360  0.00  0.00    -0.265 OA
BRANCH  13  15
ATOM     15  C   UNL d   1      44.927 -15.291  37.104  0.00  0.00     0.127 C 
BRANCH  15  16
ATOM     16  C   UNL d   1      45.558 -14.755  37.074  0.00  0.00     0.119 A 
ATOM     17  O   UNL d   1      46.077 -14.652  36.446  0.00  0.00    -0.304 OA
ATOM     18  C   UNL d   1      46.605 -14.068  36.662  0.00  0.00     0.123 A 
ATOM     19  C   UNL d   1      46.408 -13.814  37.427  0.00  0.00     0.029 A 
ATOM     20  C   UNL d   1      45.763 -14.236  37.681  0.00  0.00     0.028 A 
ENDBRANCH  15  16
ENDBRANCH  13  15
ENDBRANCH   1  12
BRANCH   8  21
ATOM     21  O   UNL d   1      40.611 -16.622  36.331  0.00  0.00    -0.326 OA
ATOM     22  C   UNL d   1      39.800 -16.509  36.348  0.00  0.00     0.181 C 
ENDBRANCH   8  21
TORSDOF 4
ENDMDL
MODEL 2
REMARK VINA RESULT:      43.9      1.095      4.338
REMARK  4 active torsions:
REMARK  status: ('A' for Active; 'I' for Inactive)
REMARK    1  A    between atoms: C_6  and  C_1 
REMARK       I    between atoms: N_8  and  C_6 
REMARK    2  A    between atoms: C_17  and  N_8 
REMARK    3  A    between atoms: C_9  and  C_17 
REMARK    4  A    between atoms: O_18  and  C_12 
ROOT
ATOM      1  C   UNL d   1      43.972 -15.866  36.749  0.00  0.00     0.121 A 
ATOM      2  C   UNL d   1      43.682 -15.179  37.078  0.00  0.00     0.305 A 
ATOM      3  O   UNL d   1      44.199 -14.573  37.310  0.00  0.00    -0.271 OA
ATOM      4  C   UNL d   1      44.784 -15.970  36.642  0.00  0.00     0.012 A 
ATOM      5  C   UNL d   1      45.011 -14.677  37.203  0.00  0.00     0.125 A 
ATOM      6  C   UNL d   1      45.302 -15.364  36.874  0.00  0.00     0.025 A 
ATOM      7  O   UNL d   1      42.862 -15.078  37.184  0.00  0.00    -0.259 OA
ATOM      8  C   UNL d   1      45.523 -14.081  37.431  0.00  0.00     0.117 A 
ATOM      9  C   UNL d   1      46.109 -15.469  36.766  0.00  0.00     0.002 A 
ATOM     10  C   UNL d   1      46.639 -14.871  36.994  0.00  0.00     0.002 A 
ATOM     11  C   UNL d   1      46.344 -14.174  37.328  0.00  0.00     0.026 A 
ENDROOT
BRANCH   1  12
ATOM     12  C   UNL d   1      43.444 -16.455  36.525  0.00  0.00     0.284 C 
ATOM     13  N   UNL d   1      42.642 -16.502  36.338  0.00  0.00    -0.204 NA
ATOM     14  O   UNL d   1      43.708 -17.240  36.443  0.00  0.00    -0.265 OA
BRANCH  13  15
ATOM     15  C   UNL d   1      42.182 -15.817  36.360  0.00  0.00     0.127 C 
BRANCH  15  16
ATOM     16  C   UNL d   1      41.359 -15.864  36.444  0.00  0.00     0.119 A 
ATOM     17  O   UNL d   1      40.899 -16.536  36.334  0.00  0.00    -0.304 OA
ATOM     18  C   UNL d   1      40.123 -16.323  36.476  0.00  0.00     0.123 A 
ATOM     19  C   UNL d   1      40.110 -15.516  36.673  0.00  0.00     0.029 A 
ATOM     20  C   UNL d   1      40.870 -15.234  36.653  0.00  0.00     0.028 A 
ENDBRANCH  15  16
ENDBRANCH  13  15
ENDBRANCH   1  12
BRANCH   8  21
ATOM     21  O   UNL d   1      45.231 -13.391  37.761  0.00  0.00    -0.326 OA
ATOM     22  C   UNL d   1      45.665 -12.984  38.325  0.00  0.00     0.181 C 
ENDBRANCH   8  21
TORSDOF 4
ENDMDL
