MODEL 1
REMARK VINA RESULT:      36.1      0.000      0.000
REMARK  3 active torsions:
REMARK  status: ('A' for Active; 'I' for Inactive)
REMARK    1  A    between atoms: C_6  and  N_1 
REMARK    2  A    between atoms: C_8  and  C_6 
REMARK    3  A    between atoms: O_15  and  C_9 
ROOT
ATOM      1  N   UNL d   1     -55.673 -99.672 -44.420  0.00  0.00    -0.268 N 
ATOM      2  C   UNL d   1     -55.393 -99.513 -45.181  0.00  0.00     0.296 A 
ATOM      3  S   UNL d   1     -54.983-100.190 -45.446  0.00  0.00    -0.025 SA
ATOM      4  C   UNL d   1     -55.439-100.441 -44.216  0.00  0.00     0.073 A 
ATOM      5  C   UNL d   1     -55.019-100.756 -44.840  0.00  0.00     0.050 A 
ATOM      6  O   UNL d   1     -55.501 -98.813 -45.596  0.00  0.00    -0.259 OA
ATOM      7  C   UNL d   1     -55.561-100.887 -43.533  0.00  0.00     0.018 A 
ATOM      8  C   UNL d   1     -54.712-101.526 -44.797  0.00  0.00     0.008 A 
ATOM      9  C   UNL d   1     -55.259-101.653 -43.482  0.00  0.00     0.002 A 
ATOM     10  C   UNL d   1     -54.831-101.975 -44.117  0.00  0.00     0.001 A 
ENDROOT
BRANCH   1  11
ATOM     11  C   UNL d   1     -56.110 -99.157 -43.945  0.00  0.00     0.084 C 
BRANCH  11  12
ATOM     12  C   UNL d   1     -56.914 -99.057 -44.077  0.00  0.00     0.018 A 
ATOM     13  C   UNL d   1     -57.419 -98.926 -43.437  0.00  0.00     0.004 A 
ATOM     14  C   UNL d   1     -58.223 -98.825 -43.565  0.00  0.00     0.024 A 
ATOM     15  C   UNL d   1     -58.532 -98.853 -44.332  0.00  0.00     0.094 A 
ATOM     16  C   UNL d   1     -58.019 -98.985 -44.973  0.00  0.00     0.024 A 
ATOM     17  C   UNL d   1     -57.214 -99.086 -44.840  0.00  0.00     0.004 A 
BRANCH  15  18
ATOM     18  O   UNL d   1     -59.330 -98.757 -44.499  0.00  0.00    -0.328 OA
ATOM     19  C   UNL d   1     -59.896 -98.978 -43.947  0.00  0.00     0.181 C 
ENDBRANCH  15  18
ENDBRANCH  11  12
ENDBRANCH   1  11
TORSDOF 3
ENDMDL
MODEL 2
REMARK VINA RESULT:      36.6      1.006      1.217
REMARK  3 active torsions:
REMARK  status: ('A' for Active; 'I' for Inactive)
REMARK    1  A    between atoms: C_6  and  N_1 
REMARK    2  A    between atoms: C_8  and  C_6 
REMARK    3  A    between atoms: O_15  and  C_9 
ROOT
ATOM      1  N   UNL d   1     -55.323 -99.821 -44.168  0.00  0.00    -0.268 N 
ATOM      2  C   UNL d   1     -54.979 -99.847 -43.417  0.00  0.00     0.296 A 
ATOM      3  S   UNL d   1     -54.715-100.629 -43.287  0.00  0.00    -0.025 SA
ATOM      4  C   UNL d   1     -55.273-100.579 -44.500  0.00  0.00     0.073 A 
ATOM      5  C   UNL d   1     -54.902-101.071 -43.964  0.00  0.00     0.050 A 
ATOM      6  O   UNL d   1     -54.912 -99.215 -42.897  0.00  0.00    -0.259 OA
ATOM      7  C   UNL d   1     -55.522-100.875 -45.228  0.00  0.00     0.018 A 
ATOM      8  C   UNL d   1     -54.772-101.870 -44.143  0.00  0.00     0.008 A 
ATOM      9  C   UNL d   1     -55.397-101.670 -45.415  0.00  0.00     0.002 A 
ATOM     10  C   UNL d   1     -55.019-102.170 -44.869  0.00  0.00     0.001 A 
ENDROOT
BRANCH   1  11
ATOM     11  C   UNL d   1     -55.659 -99.158 -44.526  0.00  0.00     0.084 C 
BRANCH  11  12
ATOM     12  C   UNL d   1     -56.475 -99.059 -44.526  0.00  0.00     0.018 A 
ATOM     13  C   UNL d   1     -56.896 -99.158 -43.823  0.00  0.00     0.004 A 
ATOM     14  C   UNL d   1     -57.711 -99.060 -43.818  0.00  0.00     0.024 A 
ATOM     15  C   UNL d   1     -58.114 -98.861 -44.514  0.00  0.00     0.094 A 
ATOM     16  C   UNL d   1     -57.683 -98.762 -45.219  0.00  0.00     0.024 A 
ATOM     17  C   UNL d   1     -56.867 -98.862 -45.219  0.00  0.00     0.004 A 
BRANCH  15  18
ATOM     18  O   UNL d   1     -58.926 -98.755 -44.549  0.00  0.00    -0.328 OA
ATOM     19  C   UNL d   1     -59.375 -98.786 -43.862  0.00  0.00     0.181 C 
ENDBRANCH  15  18
ENDBRANCH  11  12
ENDBRANCH   1  11
TORSDOF 3
ENDMDL
