MODEL 1
REMARK VINA RESULT:      -7.9      0.000      0.000
REMARK  6 active torsions:
REMARK  status: ('A' for Active; 'I' for Inactive)
REMARK    1  A    between atoms: C_3  and  N_1 
REMARK    2  A    between atoms: N_9  and  C_3 
REMARK    3  A    between atoms: C_7  and  C_4 
REMARK    4  A    between atoms: C_8  and  C_5 
REMARK    5  A    between atoms: C_16  and  N_9 
REMARK    6  A    between atoms: O_17  and  C_13 
ROOT
ATOM      1  N   UNL d   1      53.062  32.550  53.460  0.00  0.00    -0.201 N 
ATOM      2  N   UNL d   1      52.409  32.685  52.971  0.00  0.00    -0.163 NA
ATOM      3  C   UNL d   1      52.150  33.459  53.110  0.00  0.00     0.105 A 
ATOM      4  C   UNL d   1      53.218  33.224  53.902  0.00  0.00     0.110 A 
ATOM      5  C   UNL d   1      52.638  33.769  53.665  0.00  0.00     0.042 A 
ENDROOT
BRANCH   1   6
ATOM      6  C   UNL d   1      53.493  31.848  53.500  0.00  0.00     0.222 C 
ATOM      7  S   UNL d   1      53.763  31.980  52.734  0.00  0.00    -0.037 SA
BRANCH   6   8
ATOM      8  N   UNL d   1      53.924  31.137  53.549  0.00  0.00    -0.217 NA
BRANCH   8   9
ATOM      9  C   UNL d   1      53.537  30.453  53.712  0.00  0.00     0.084 A 
ATOM     10  C   UNL d   1      53.061  30.074  53.138  0.00  0.00     0.019 A 
ATOM     11  C   UNL d   1      52.679  29.377  53.336  0.00  0.00     0.002 A 
ATOM     12  C   UNL d   1      52.746  29.045  54.066  0.00  0.00     0.000 A 
ATOM     13  C   UNL d   1      53.213  29.405  54.653  0.00  0.00     0.002 A 
ATOM     14  C   UNL d   1      53.609  30.109  54.476  0.00  0.00     0.019 A 
ENDBRANCH   8   9
ENDBRANCH   6   8
ENDBRANCH   1   6
BRANCH   4  15
ATOM     15  C   UNL d   1      53.949  33.344  54.574  0.00  0.00     0.118 A 
ATOM     16  O   UNL d   1      53.904  33.157  55.406  0.00  0.00    -0.304 OA
ATOM     17  C   UNL d   1      54.625  33.340  55.756  0.00  0.00     0.123 A 
ATOM     18  C   UNL d   1      55.127  33.637  55.172  0.00  0.00     0.029 A 
ATOM     19  C   UNL d   1      54.734  33.642  54.471  0.00  0.00     0.028 A 
ENDBRANCH   4  15
BRANCH   3  20
ATOM     20  C   UNL d   1      51.466  33.850  52.714  0.00  0.00     0.042 A 
ATOM     21  C   UNL d   1      50.994  34.201  52.171  0.00  0.00     0.096 A 
ATOM     22  C   UNL d   1      50.285  34.412  52.408  0.00  0.00     0.024 A 
ATOM     23  C   UNL d   1      50.025  34.284  53.181  0.00  0.00     0.002 A 
ATOM     24  C   UNL d   1      50.473  33.945  53.716  0.00  0.00     0.000 A 
ATOM     25  C   UNL d   1      51.206  33.723  53.486  0.00  0.00     0.004 A 
BRANCH  21  26
ATOM     26  O   UNL d   1      51.254  34.328  51.399  0.00  0.00    -0.328 OA
ATOM     27  C   UNL d   1      50.747  34.488  50.869  0.00  0.00     0.181 C 
ENDBRANCH  21  26
ENDBRANCH   3  20
TORSDOF 6
ENDMDL
MODEL 2
REMARK VINA RESULT:      -7.4      1.108      2.826
REMARK  6 active torsions:
REMARK  status: ('A' for Active; 'I' for Inactive)
REMARK    1  A    between atoms: C_3  and  N_1 
REMARK    2  A    between atoms: N_9  and  C_3 
REMARK    3  A    between atoms: C_7  and  C_4 
REMARK    4  A    between atoms: C_8  and  C_5 
REMARK    5  A    between atoms: C_16  and  N_9 
REMARK    6  A    between atoms: O_17  and  C_13 
ROOT
ATOM      1  N   UNL d   1      52.843  32.720  53.131  0.00  0.00    -0.201 N 
ATOM      2  N   UNL d   1      52.418  33.415  52.990  0.00  0.00    -0.163 NA
ATOM      3  C   UNL d   1      51.668  33.198  52.716  0.00  0.00     0.105 A 
ATOM      4  C   UNL d   1      52.373  32.071  52.951  0.00  0.00     0.110 A 
ATOM      5  C   UNL d   1      51.653  32.397  52.697  0.00  0.00     0.042 A 
ENDROOT
BRANCH   1   6
ATOM      6  C   UNL d   1      53.619  32.681  53.409  0.00  0.00     0.222 C 
ATOM      7  S   UNL d   1      53.864  33.129  52.764  0.00  0.00    -0.037 SA
BRANCH   6   8
ATOM      8  N   UNL d   1      54.398  32.636  53.698  0.00  0.00    -0.217 NA
BRANCH   8   9
ATOM      9  C   UNL d   1      54.581  32.998  54.391  0.00  0.00     0.084 A 
ATOM     10  C   UNL d   1      54.245  32.750  55.115  0.00  0.00     0.019 A 
ATOM     11  C   UNL d   1      54.452  33.139  55.805  0.00  0.00     0.002 A 
ATOM     12  C   UNL d   1      54.971  33.755  55.809  0.00  0.00     0.000 A 
ATOM     13  C   UNL d   1      55.319  34.019  55.100  0.00  0.00     0.002 A 
ATOM     14  C   UNL d   1      55.124  33.641  54.391  0.00  0.00     0.019 A 
ENDBRANCH   8   9
ENDBRANCH   6   8
ENDBRANCH   1   6
BRANCH   4  15
ATOM     15  C   UNL d   1      52.630  31.107  53.026  0.00  0.00     0.118 A 
ATOM     16  O   UNL d   1      53.053  30.651  52.441  0.00  0.00    -0.304 OA
ATOM     17  C   UNL d   1      53.148  29.885  52.724  0.00  0.00     0.123 A 
ATOM     18  C   UNL d   1      52.799  29.840  53.470  0.00  0.00     0.029 A 
ATOM     19  C   UNL d   1      52.491  30.558  53.655  0.00  0.00     0.028 A 
ENDBRANCH   4  15
BRANCH   3  20
ATOM     20  C   UNL d   1      51.022  33.755  52.494  0.00  0.00     0.042 A 
ATOM     21  C   UNL d   1      50.507  34.202  52.075  0.00  0.00     0.096 A 
ATOM     22  C   UNL d   1      50.003  34.630  52.483  0.00  0.00     0.024 A 
ATOM     23  C   UNL d   1      49.993  34.629  53.308  0.00  0.00     0.002 A 
ATOM     24  C   UNL d   1      50.487  34.199  53.725  0.00  0.00     0.000 A 
ATOM     25  C   UNL d   1      51.012  33.754  53.319  0.00  0.00     0.004 A 
BRANCH  21  26
ATOM     26  O   UNL d   1      50.517  34.204  51.250  0.00  0.00    -0.328 OA
ATOM     27  C   UNL d   1      49.908  34.444  50.882  0.00  0.00     0.181 C 
ENDBRANCH  21  26
ENDBRANCH   3  20
TORSDOF 6
ENDMDL
MODEL 3
REMARK VINA RESULT:      -7.1      1.294      4.094
REMARK  6 active torsions:
REMARK  status: ('A' for Active; 'I' for Inactive)
REMARK    1  A    between atoms: C_3  and  N_1 
REMARK    2  A    between atoms: N_9  and  C_3 
REMARK    3  A    between atoms: C_7  and  C_4 
REMARK    4  A    between atoms: C_8  and  C_5 
REMARK    5  A    between atoms: C_16  and  N_9 
REMARK    6  A    between atoms: O_17  and  C_13 
ROOT
ATOM      1  N   UNL d   1      53.195  32.562  53.932  0.00  0.00    -0.201 N 
ATOM      2  N   UNL d   1      52.829  31.836  53.785  0.00  0.00    -0.163 NA
ATOM      3  C   UNL d   1      53.381  31.241  53.953  0.00  0.00     0.105 A 
ATOM      4  C   UNL d   1      53.965  32.435  54.189  0.00  0.00     0.110 A 
ATOM      5  C   UNL d   1      54.051  31.609  54.192  0.00  0.00     0.042 A 
ENDROOT
BRANCH   1   6
ATOM      6  C   UNL d   1      52.844  33.303  53.837  0.00  0.00     0.222 C 
ATOM      7  S   UNL d   1      52.437  33.191  54.543  0.00  0.00    -0.037 SA
BRANCH   6   8
ATOM      8  N   UNL d   1      52.495  34.051  53.732  0.00  0.00    -0.217 NA
BRANCH   8   9
ATOM      9  C   UNL d   1      51.986  34.165  53.122  0.00  0.00     0.084 A 
ATOM     10  C   UNL d   1      52.261  34.295  52.343  0.00  0.00     0.019 A 
ATOM     11  C   UNL d   1      51.716  34.408  51.742  0.00  0.00     0.002 A 
ATOM     12  C   UNL d   1      50.922  34.396  51.877  0.00  0.00     0.000 A 
ATOM     13  C   UNL d   1      50.625  34.268  52.644  0.00  0.00     0.002 A 
ATOM     14  C   UNL d   1      51.157  34.152  53.266  0.00  0.00     0.019 A 
ENDBRANCH   8   9
ENDBRANCH   6   8
ENDBRANCH   1   6
BRANCH   4  15
ATOM     15  C   UNL d   1      54.636  33.133  54.439  0.00  0.00     0.118 A 
ATOM     16  O   UNL d   1      55.214  33.485  53.919  0.00  0.00    -0.304 OA
ATOM     17  C   UNL d   1      55.654  34.032  54.347  0.00  0.00     0.123 A 
ATOM     18  C   UNL d   1      55.373  34.038  55.123  0.00  0.00     0.029 A 
ATOM     19  C   UNL d   1      54.772  33.510  55.185  0.00  0.00     0.028 A 
ENDBRANCH   4  15
BRANCH   3  20
ATOM     20  C   UNL d   1      53.239  30.374  53.877  0.00  0.00     0.042 A 
ATOM     21  C   UNL d   1      53.160  29.594  54.038  0.00  0.00     0.096 A 
ATOM     22  C   UNL d   1      52.965  29.132  53.445  0.00  0.00     0.024 A 
ATOM     23  C   UNL d   1      52.843  29.424  52.683  0.00  0.00     0.002 A 
ATOM     24  C   UNL d   1      52.916  30.178  52.514  0.00  0.00     0.000 A 
ATOM     25  C   UNL d   1      53.116  30.666  53.115  0.00  0.00     0.004 A 
BRANCH  21  26
ATOM     26  O   UNL d   1      53.283  29.302  54.800  0.00  0.00    -0.328 OA
ATOM     27  C   UNL d   1      53.305  28.559  54.902  0.00  0.00     0.181 C 
ENDBRANCH  21  26
ENDBRANCH   3  20
TORSDOF 6
ENDMDL
MODEL 4
REMARK VINA RESULT:      -5.7      1.133      4.384
REMARK  6 active torsions:
REMARK  status: ('A' for Active; 'I' for Inactive)
REMARK    1  A    between atoms: C_3  and  N_1 
REMARK    2  A    between atoms: N_9  and  C_3 
REMARK    3  A    between atoms: C_7  and  C_4 
REMARK    4  A    between atoms: C_8  and  C_5 
REMARK    5  A    between atoms: C_16  and  N_9 
REMARK    6  A    between atoms: O_17  and  C_13 
ROOT
ATOM      1  N   UNL d   1      53.238  32.325  53.508  0.00  0.00    -0.201 N 
ATOM      2  N   UNL d   1      53.511  31.569  53.700  0.00  0.00    -0.163 NA
ATOM      3  C   UNL d   1      52.907  31.032  53.519  0.00  0.00     0.105 A 
ATOM      4  C   UNL d   1      52.474  32.273  53.210  0.00  0.00     0.110 A 
ATOM      5  C   UNL d   1      52.297  31.462  53.229  0.00  0.00     0.042 A 
ENDROOT
BRANCH   1   6
ATOM      6  C   UNL d   1      53.664  33.025  53.600  0.00  0.00     0.222 C 
ATOM      7  S   UNL d   1      54.275  32.703  53.153  0.00  0.00    -0.037 SA
BRANCH   6   8
ATOM      8  N   UNL d   1      54.086  33.736  53.698  0.00  0.00    -0.217 NA
BRANCH   8   9
ATOM      9  C   UNL d   1      54.348  33.939  54.429  0.00  0.00     0.084 A 
ATOM     10  C   UNL d   1      55.094  33.687  54.711  0.00  0.00     0.019 A 
ATOM     11  C   UNL d   1      55.333  33.911  55.462  0.00  0.00     0.002 A 
ATOM     12  C   UNL d   1      54.872  34.367  55.939  0.00  0.00     0.000 A 
ATOM     13  C   UNL d   1      54.125  34.629  55.680  0.00  0.00     0.002 A 
ATOM     14  C   UNL d   1      53.863  34.415  54.925  0.00  0.00     0.019 A 
ENDBRANCH   8   9
ENDBRANCH   6   8
ENDBRANCH   1   6
BRANCH   4  15
ATOM     15  C   UNL d   1      51.900  33.031  52.899  0.00  0.00     0.118 A 
ATOM     16  O   UNL d   1      51.958  33.430  52.146  0.00  0.00    -0.304 OA
ATOM     17  C   UNL d   1      51.384  34.017  52.116  0.00  0.00     0.123 A 
ATOM     18  C   UNL d   1      50.963  34.003  52.826  0.00  0.00     0.029 A 
ATOM     19  C   UNL d   1      51.263  33.423  53.293  0.00  0.00     0.028 A 
ENDBRANCH   4  15
BRANCH   3  20
ATOM     20  C   UNL d   1      52.947  30.158  53.631  0.00  0.00     0.042 A 
ATOM     21  C   UNL d   1      53.033  29.431  53.953  0.00  0.00     0.096 A 
ATOM     22  C   UNL d   1      52.932  28.824  53.479  0.00  0.00     0.024 A 
ATOM     23  C   UNL d   1      52.746  28.917  52.681  0.00  0.00     0.002 A 
ATOM     24  C   UNL d   1      52.659  29.617  52.357  0.00  0.00     0.000 A 
ATOM     25  C   UNL d   1      52.760  30.251  52.833  0.00  0.00     0.004 A 
BRANCH  21  26
ATOM     26  O   UNL d   1      53.219  29.338  54.751  0.00  0.00    -0.328 OA
ATOM     27  C   UNL d   1      53.305  28.644  55.023  0.00  0.00     0.181 C 
ENDBRANCH  21  26
ENDBRANCH   3  20
TORSDOF 6
ENDMDL
MODEL 5
REMARK VINA RESULT:      -5.4      1.538      4.197
REMARK  6 active torsions:
REMARK  status: ('A' for Active; 'I' for Inactive)
REMARK    1  A    between atoms: C_3  and  N_1 
REMARK    2  A    between atoms: N_9  and  C_3 
REMARK    3  A    between atoms: C_7  and  C_4 
REMARK    4  A    between atoms: C_8  and  C_5 
REMARK    5  A    between atoms: C_16  and  N_9 
REMARK    6  A    between atoms: O_17  and  C_13 
ROOT
ATOM      1  N   UNL d   1      52.195  33.484  52.997  0.00  0.00    -0.201 N 
ATOM      2  N   UNL d   1      52.201  32.685  52.784  0.00  0.00    -0.163 NA
ATOM      3  C   UNL d   1      52.708  32.291  53.308  0.00  0.00     0.105 A 
ATOM      4  C   UNL d   1      52.687  33.599  53.644  0.00  0.00     0.110 A 
ATOM      5  C   UNL d   1      52.990  32.845  53.814  0.00  0.00     0.042 A 
ENDROOT
BRANCH   1   6
ATOM      6  C   UNL d   1      51.761  34.076  52.620  0.00  0.00     0.222 C 
ATOM      7  S   UNL d   1      52.211  33.961  51.941  0.00  0.00    -0.037 SA
BRANCH   6   8
ATOM      8  N   UNL d   1      51.319  34.674  52.248  0.00  0.00    -0.217 NA
BRANCH   8   9
ATOM      9  C   UNL d   1      50.519  34.613  52.223  0.00  0.00     0.084 A 
ATOM     10  C   UNL d   1      50.044  34.832  52.876  0.00  0.00     0.019 A 
ATOM     11  C   UNL d   1      49.230  34.758  52.820  0.00  0.00     0.002 A 
ATOM     12  C   UNL d   1      48.871  34.480  52.155  0.00  0.00     0.000 A 
ATOM     13  C   UNL d   1      49.323  34.256  51.493  0.00  0.00     0.002 A 
ATOM     14  C   UNL d   1      50.147  34.323  51.527  0.00  0.00     0.019 A 
ENDBRANCH   8   9
ENDBRANCH   6   8
ENDBRANCH   1   6
BRANCH   4  15
ATOM     15  C   UNL d   1      52.869  34.465  54.111  0.00  0.00     0.118 A 
ATOM     16  O   UNL d   1      52.551  34.707  54.866  0.00  0.00    -0.304 OA
ATOM     17  C   UNL d   1      52.840  35.455  55.045  0.00  0.00     0.123 A 
ATOM     18  C   UNL d   1      53.333  35.695  54.428  0.00  0.00     0.029 A 
ATOM     19  C   UNL d   1      53.355  35.115  53.873  0.00  0.00     0.028 A 
ENDBRANCH   4  15
BRANCH   3  20
ATOM     20  C   UNL d   1      52.889  31.429  53.296  0.00  0.00     0.042 A 
ATOM     21  C   UNL d   1      52.820  30.632  53.271  0.00  0.00     0.096 A 
ATOM     22  C   UNL d   1      53.479  30.222  53.298  0.00  0.00     0.024 A 
ATOM     23  C   UNL d   1      54.219  30.583  53.349  0.00  0.00     0.002 A 
ATOM     24  C   UNL d   1      54.299  31.355  53.374  0.00  0.00     0.000 A 
ATOM     25  C   UNL d   1      53.629  31.790  53.347  0.00  0.00     0.004 A 
BRANCH  21  26
ATOM     26  O   UNL d   1      52.080  30.271  53.220  0.00  0.00    -0.328 OA
ATOM     27  C   UNL d   1      52.035  29.526  53.302  0.00  0.00     0.181 C 
ENDBRANCH  21  26
ENDBRANCH   3  20
TORSDOF 6
ENDMDL
