MODEL 1
REMARK VINA RESULT:      -4.9      0.000      0.000
REMARK  9 active torsions:
REMARK  status: ('A' for Active; 'I' for Inactive)
REMARK    1  A    between atoms: N_4  and  C_1 
REMARK       I    between atoms: C_7  and  N_4 
REMARK    2  A    between atoms: C_13  and  C_7 
REMARK    3  A    between atoms: C_8  and  C_14 
REMARK    4  A    between atoms: O_12  and  C_8 
REMARK    5  A    between atoms: S_11  and  C_13 
REMARK    6  A    between atoms: C_14  and  S_11 
REMARK    7  A    between atoms: C_16  and  O_12 
REMARK    8  A    between atoms: C_17  and  C_16 
REMARK    9  A    between atoms: C_18  and  C_17 
ROOT
ATOM      1  C   UNL d   1     -48.571  12.493  23.228  0.00  0.00     0.127 C 
ENDROOT
BRANCH   1   2
ATOM      2  S   UNL d   1     -47.875  12.193  23.554  0.00  0.00    -0.089 SA
BRANCH   2   3
ATOM      3  C   UNL d   1     -47.177  12.205  23.115  0.00  0.00     0.103 C 
BRANCH   3   4
ATOM      4  C   UNL d   1     -46.450  12.142  23.492  0.00  0.00     0.307 C 
ATOM      5  O   UNL d   1     -46.021  12.816  23.676  0.00  0.00    -0.258 OA
BRANCH   4   6
ATOM      6  O   UNL d   1     -46.159  11.402  23.683  0.00  0.00    -0.271 OA
BRANCH   6   7
ATOM      7  C   UNL d   1     -45.500  11.099  23.290  0.00  0.00     0.126 C 
BRANCH   7   8
ATOM      8  C   UNL d   1     -44.955  10.632  23.697  0.00  0.00     0.027 C 
BRANCH   8   9
ATOM      9  C   UNL d   1     -44.335  10.272  23.289  0.00  0.00     0.002 C 
ATOM     10  C   UNL d   1     -43.688   9.986  23.690  0.00  0.00     0.000 C 
ENDBRANCH   8   9
ENDBRANCH   7   8
ENDBRANCH   6   7
ENDBRANCH   4   6
ENDBRANCH   3   4
ENDBRANCH   2   3
ENDBRANCH   1   2
BRANCH   1  11
ATOM     11  C   UNL d   1     -49.272  12.060  23.280  0.00  0.00     0.275 C 
ATOM     12  N   UNL d   1     -49.986  12.423  23.116  0.00  0.00    -0.187 NA
ATOM     13  O   UNL d   1     -49.250  11.264  23.495  0.00  0.00    -0.266 OA
BRANCH  12  14
ATOM     14  C   UNL d   1     -50.009  13.219  22.900  0.00  0.00     0.194 A 
ATOM     15  N   UNL d   1     -49.800  13.524  22.163  0.00  0.00    -0.107 NA
ATOM     16  O   UNL d   1     -49.906  14.341  22.193  0.00  0.00    -0.210 OA
ATOM     17  C   UNL d   1     -50.177  14.549  22.933  0.00  0.00     0.128 A 
ATOM     18  C   UNL d   1     -50.242  13.855  23.378  0.00  0.00     0.068 A 
ATOM     19  C   UNL d   1     -50.353  15.321  23.190  0.00  0.00     0.029 C 
ENDBRANCH  12  14
ENDBRANCH   1  11
TORSDOF 9
ENDMDL
MODEL 2
REMARK VINA RESULT:      -4.4      2.916      3.472
REMARK  9 active torsions:
REMARK  status: ('A' for Active; 'I' for Inactive)
REMARK    1  A    between atoms: N_4  and  C_1 
REMARK       I    between atoms: C_7  and  N_4 
REMARK    2  A    between atoms: C_13  and  C_7 
REMARK    3  A    between atoms: C_8  and  C_14 
REMARK    4  A    between atoms: O_12  and  C_8 
REMARK    5  A    between atoms: S_11  and  C_13 
REMARK    6  A    between atoms: C_14  and  S_11 
REMARK    7  A    between atoms: C_16  and  O_12 
REMARK    8  A    between atoms: C_17  and  C_16 
REMARK    9  A    between atoms: C_18  and  C_17 
ROOT
ATOM      1  C   UNL d   1     -46.164  13.179  22.517  0.00  0.00     0.127 C 
ENDROOT
BRANCH   1   2
ATOM      2  S   UNL d   1     -45.346  13.072  22.519  0.00  0.00    -0.089 SA
BRANCH   2   3
ATOM      3  C   UNL d   1     -44.944  12.963  21.807  0.00  0.00     0.103 C 
BRANCH   3   4
ATOM      4  C   UNL d   1     -44.143  12.780  21.809  0.00  0.00     0.307 C 
ATOM      5  O   UNL d   1     -43.882  12.073  22.132  0.00  0.00    -0.258 OA
BRANCH   4   6
ATOM      6  O   UNL d   1     -43.608  13.310  21.487  0.00  0.00    -0.271 OA
BRANCH   6   7
ATOM      7  C   UNL d   1     -42.834  13.074  21.328  0.00  0.00     0.126 C 
BRANCH   7   8
ATOM      8  C   UNL d   1     -42.337  13.564  20.887  0.00  0.00     0.027 C 
BRANCH   8   9
ATOM      9  C   UNL d   1     -41.549  13.662  21.112  0.00  0.00     0.002 C 
ATOM     10  C   UNL d   1     -41.079  14.211  20.741  0.00  0.00     0.000 C 
ENDBRANCH   8   9
ENDBRANCH   7   8
ENDBRANCH   6   7
ENDBRANCH   4   6
ENDBRANCH   3   4
ENDBRANCH   2   3
ENDBRANCH   1   2
BRANCH   1  11
ATOM     11  C   UNL d   1     -46.524  13.622  23.113  0.00  0.00     0.275 C 
ATOM     12  N   UNL d   1     -47.336  13.593  23.207  0.00  0.00    -0.187 NA
ATOM     13  O   UNL d   1     -46.065  14.093  23.612  0.00  0.00    -0.266 OA
BRANCH  12  14
ATOM     14  C   UNL d   1     -47.795  13.122  22.709  0.00  0.00     0.194 A 
ATOM     15  N   UNL d   1     -47.855  12.300  22.742  0.00  0.00    -0.107 NA
ATOM     16  O   UNL d   1     -48.371  12.064  22.144  0.00  0.00    -0.210 OA
ATOM     17  C   UNL d   1     -48.633  12.722  21.741  0.00  0.00     0.128 A 
ATOM     18  C   UNL d   1     -48.278  13.383  22.088  0.00  0.00     0.068 A 
ATOM     19  C   UNL d   1     -49.162  12.722  21.097  0.00  0.00     0.029 C 
ENDBRANCH  12  14
ENDBRANCH   1  11
TORSDOF 9
ENDMDL
MODEL 3
REMARK VINA RESULT:      -4.4      1.987      4.242
REMARK  9 active torsions:
REMARK  status: ('A' for Active; 'I' for Inactive)
REMARK    1  A    between atoms: N_4  and  C_1 
REMARK       I    between atoms: C_7  and  N_4 
REMARK    2  A    between atoms: C_13  and  C_7 
REMARK    3  A    between atoms: C_8  and  C_14 
REMARK    4  A    between atoms: O_12  and  C_8 
REMARK    5  A    between atoms: S_11  and  C_13 
REMARK    6  A    between atoms: C_14  and  S_11 
REMARK    7  A    between atoms: C_16  and  O_12 
REMARK    8  A    between atoms: C_17  and  C_16 
REMARK    9  A    between atoms: C_18  and  C_17 
ROOT
ATOM      1  C   UNL d   1     -46.930  11.937  23.589  0.00  0.00     0.127 C 
ENDROOT
BRANCH   1   2
ATOM      2  S   UNL d   1     -47.481  11.334  23.467  0.00  0.00    -0.089 SA
BRANCH   2   3
ATOM      3  C   UNL d   1     -48.266  11.441  23.698  0.00  0.00     0.103 C 
BRANCH   3   4
ATOM      4  C   UNL d   1     -48.877  11.276  23.174  0.00  0.00     0.307 C 
ATOM      5  O   UNL d   1     -48.730  10.846  22.492  0.00  0.00    -0.258 OA
BRANCH   4   6
ATOM      6  O   UNL d   1     -49.632  11.544  23.339  0.00  0.00    -0.271 OA
BRANCH   6   7
ATOM      7  C   UNL d   1     -50.010  12.066  22.823  0.00  0.00     0.126 C 
BRANCH   7   8
ATOM      8  C   UNL d   1     -50.633  12.535  23.095  0.00  0.00     0.027 C 
BRANCH   8   9
ATOM      9  C   UNL d   1     -51.064  12.996  22.564  0.00  0.00     0.002 C 
ATOM     10  C   UNL d   1     -50.883  13.782  22.458  0.00  0.00     0.000 C 
ENDBRANCH   8   9
ENDBRANCH   7   8
ENDBRANCH   6   7
ENDBRANCH   4   6
ENDBRANCH   3   4
ENDBRANCH   2   3
ENDBRANCH   1   2
BRANCH   1  11
ATOM     11  C   UNL d   1     -46.145  11.832  23.358  0.00  0.00     0.275 C 
ATOM     12  N   UNL d   1     -45.710  12.473  23.098  0.00  0.00    -0.187 NA
ATOM     13  O   UNL d   1     -45.803  11.082  23.391  0.00  0.00    -0.266 OA
BRANCH  12  14
ATOM     14  C   UNL d   1     -46.052  13.223  23.065  0.00  0.00     0.194 A 
ATOM     15  N   UNL d   1     -46.127  13.747  23.698  0.00  0.00    -0.107 NA
ATOM     16  O   UNL d   1     -46.500  14.425  23.416  0.00  0.00    -0.210 OA
ATOM     17  C   UNL d   1     -46.659  14.333  22.622  0.00  0.00     0.128 A 
ATOM     18  C   UNL d   1     -46.383  13.587  22.398  0.00  0.00     0.068 A 
ATOM     19  C   UNL d   1     -47.032  14.893  22.131  0.00  0.00     0.029 C 
ENDBRANCH  12  14
ENDBRANCH   1  11
TORSDOF 9
ENDMDL
MODEL 4
REMARK VINA RESULT:      -4.2      9.167      9.970
REMARK  9 active torsions:
REMARK  status: ('A' for Active; 'I' for Inactive)
REMARK    1  A    between atoms: N_4  and  C_1 
REMARK       I    between atoms: C_7  and  N_4 
REMARK    2  A    between atoms: C_13  and  C_7 
REMARK    3  A    between atoms: C_8  and  C_14 
REMARK    4  A    between atoms: O_12  and  C_8 
REMARK    5  A    between atoms: S_11  and  C_13 
REMARK    6  A    between atoms: C_14  and  S_11 
REMARK    7  A    between atoms: C_16  and  O_12 
REMARK    8  A    between atoms: C_17  and  C_16 
REMARK    9  A    between atoms: C_18  and  C_17 
ROOT
ATOM      1  C   UNL d   1     -40.014  15.122  18.726  0.00  0.00     0.127 C 
ENDROOT
BRANCH   1   2
ATOM      2  S   UNL d   1     -40.205  15.392  19.482  0.00  0.00    -0.089 SA
BRANCH   2   3
ATOM      3  C   UNL d   1     -39.623  15.430  20.066  0.00  0.00     0.103 C 
BRANCH   3   4
ATOM      4  C   UNL d   1     -39.819  15.304  20.853  0.00  0.00     0.307 C 
ATOM      5  O   UNL d   1     -40.211  15.885  21.279  0.00  0.00    -0.258 OA
BRANCH   4   6
ATOM      6  O   UNL d   1     -39.621  14.595  21.209  0.00  0.00    -0.271 OA
BRANCH   6   7
ATOM      7  C   UNL d   1     -39.314  14.584  21.974  0.00  0.00     0.126 C 
BRANCH   7   8
ATOM      8  C   UNL d   1     -39.075  13.870  22.313  0.00  0.00     0.027 C 
BRANCH   8   9
ATOM      9  C   UNL d   1     -38.577  13.873  22.971  0.00  0.00     0.002 C 
ATOM     10  C   UNL d   1     -38.673  13.322  23.563  0.00  0.00     0.000 C 
ENDBRANCH   8   9
ENDBRANCH   7   8
ENDBRANCH   6   7
ENDBRANCH   4   6
ENDBRANCH   3   4
ENDBRANCH   2   3
ENDBRANCH   1   2
BRANCH   1  11
ATOM     11  C   UNL d   1     -40.502  15.304  18.086  0.00  0.00     0.275 C 
ATOM     12  N   UNL d   1     -40.443  14.871  17.395  0.00  0.00    -0.187 NA
ATOM     13  O   UNL d   1     -41.046  15.921  18.145  0.00  0.00    -0.266 OA
BRANCH  12  14
ATOM     14  C   UNL d   1     -39.899  14.254  17.336  0.00  0.00     0.194 A 
ATOM     15  N   UNL d   1     -39.960  13.520  17.706  0.00  0.00    -0.107 NA
ATOM     16  O   UNL d   1     -39.297  13.078  17.494  0.00  0.00    -0.210 OA
ATOM     17  C   UNL d   1     -38.826  13.523  17.000  0.00  0.00     0.128 A 
ATOM     18  C   UNL d   1     -39.194  14.256  16.898  0.00  0.00     0.068 A 
ATOM     19  C   UNL d   1     -38.104  13.279  16.663  0.00  0.00     0.029 C 
ENDBRANCH  12  14
ENDBRANCH   1  11
TORSDOF 9
ENDMDL
MODEL 5
REMARK VINA RESULT:      -4.1      8.696     10.119
REMARK  9 active torsions:
REMARK  status: ('A' for Active; 'I' for Inactive)
REMARK    1  A    between atoms: N_4  and  C_1 
REMARK       I    between atoms: C_7  and  N_4 
REMARK    2  A    between atoms: C_13  and  C_7 
REMARK    3  A    between atoms: C_8  and  C_14 
REMARK    4  A    between atoms: O_12  and  C_8 
REMARK    5  A    between atoms: S_11  and  C_13 
REMARK    6  A    between atoms: C_14  and  S_11 
REMARK    7  A    between atoms: C_16  and  O_12 
REMARK    8  A    between atoms: C_17  and  C_16 
REMARK    9  A    between atoms: C_18  and  C_17 
ROOT
ATOM      1  C   UNL d   1     -40.070  14.928  20.141  0.00  0.00     0.127 C 
ENDROOT
BRANCH   1   2
ATOM      2  S   UNL d   1     -40.349  14.849  19.368  0.00  0.00    -0.089 SA
BRANCH   2   3
ATOM      3  C   UNL d   1     -39.909  14.427  18.813  0.00  0.00     0.103 C 
BRANCH   3   4
ATOM      4  C   UNL d   1     -40.200  14.318  18.052  0.00  0.00     0.307 C 
ATOM      5  O   UNL d   1     -40.939  13.980  17.938  0.00  0.00    -0.258 OA
BRANCH   4   6
ATOM      6  O   UNL d   1     -39.748  14.548  17.411  0.00  0.00    -0.271 OA
BRANCH   6   7
ATOM      7  C   UNL d   1     -39.335  13.986  16.970  0.00  0.00     0.126 C 
BRANCH   7   8
ATOM      8  C   UNL d   1     -38.945  14.211  16.278  0.00  0.00     0.027 C 
BRANCH   8   9
ATOM      9  C   UNL d   1     -38.302  13.772  16.006  0.00  0.00     0.002 C 
ATOM     10  C   UNL d   1     -37.940  13.962  15.303  0.00  0.00     0.000 C 
ENDBRANCH   8   9
ENDBRANCH   7   8
ENDBRANCH   6   7
ENDBRANCH   4   6
ENDBRANCH   3   4
ENDBRANCH   2   3
ENDBRANCH   1   2
BRANCH   1  11
ATOM     11  C   UNL d   1     -40.467  15.415  20.677  0.00  0.00     0.275 C 
ATOM     12  N   UNL d   1     -40.205  15.466  21.449  0.00  0.00    -0.187 NA
ATOM     13  O   UNL d   1     -41.125  15.847  20.431  0.00  0.00    -0.266 OA
BRANCH  12  14
ATOM     14  C   UNL d   1     -39.547  15.033  21.695  0.00  0.00     0.194 A 
ATOM     15  N   UNL d   1     -38.759  15.253  21.592  0.00  0.00    -0.107 NA
ATOM     16  O   UNL d   1     -38.290  14.661  21.920  0.00  0.00    -0.210 OA
ATOM     17  C   UNL d   1     -38.770  14.077  22.225  0.00  0.00     0.128 A 
ATOM     18  C   UNL d   1     -39.553  14.303  22.088  0.00  0.00     0.068 A 
ATOM     19  C   UNL d   1     -38.513  13.382  22.605  0.00  0.00     0.029 C 
ENDBRANCH  12  14
ENDBRANCH   1  11
TORSDOF 9
ENDMDL
MODEL 6
REMARK VINA RESULT:      -4.1      1.967      3.569
REMARK  9 active torsions:
REMARK  status: ('A' for Active; 'I' for Inactive)
REMARK    1  A    between atoms: N_4  and  C_1 
REMARK       I    between atoms: C_7  and  N_4 
REMARK    2  A    between atoms: C_13  and  C_7 
REMARK    3  A    between atoms: C_8  and  C_14 
REMARK    4  A    between atoms: O_12  and  C_8 
REMARK    5  A    between atoms: S_11  and  C_13 
REMARK    6  A    between atoms: C_14  and  S_11 
REMARK    7  A    between atoms: C_16  and  O_12 
REMARK    8  A    between atoms: C_17  and  C_16 
REMARK    9  A    between atoms: C_18  and  C_17 
ROOT
ATOM      1  C   UNL d   1     -47.653  12.049  23.031  0.00  0.00     0.127 C 
ENDROOT
BRANCH   1   2
ATOM      2  S   UNL d   1     -47.109  12.615  23.285  0.00  0.00    -0.089 SA
BRANCH   2   3
ATOM      3  C   UNL d   1     -46.769  13.132  22.739  0.00  0.00     0.103 C 
BRANCH   3   4
ATOM      4  C   UNL d   1     -46.691  13.930  22.920  0.00  0.00     0.307 C 
ATOM      5  O   UNL d   1     -45.955  14.291  22.884  0.00  0.00    -0.258 OA
BRANCH   4   6
ATOM      6  O   UNL d   1     -47.352  14.360  23.137  0.00  0.00    -0.271 OA
BRANCH   6   7
ATOM      7  C   UNL d   1     -47.622  14.977  22.660  0.00  0.00     0.126 C 
BRANCH   7   8
ATOM      8  C   UNL d   1     -48.423  15.029  22.468  0.00  0.00     0.027 C 
BRANCH   8   9
ATOM      9  C   UNL d   1     -48.857  15.694  22.689  0.00  0.00     0.002 C 
ATOM     10  C   UNL d   1     -49.661  15.644  22.801  0.00  0.00     0.000 C 
ENDBRANCH   8   9
ENDBRANCH   7   8
ENDBRANCH   6   7
ENDBRANCH   4   6
ENDBRANCH   3   4
ENDBRANCH   2   3
ENDBRANCH   1   2
BRANCH   1  11
ATOM     11  C   UNL d   1     -47.702  11.320  23.415  0.00  0.00     0.275 C 
ATOM     12  N   UNL d   1     -48.430  10.962  23.516  0.00  0.00    -0.187 NA
ATOM     13  O   UNL d   1     -47.017  10.956  23.697  0.00  0.00    -0.266 OA
BRANCH  12  14
ATOM     14  C   UNL d   1     -49.115  11.326  23.234  0.00  0.00     0.194 A 
ATOM     15  N   UNL d   1     -49.277  11.504  22.446  0.00  0.00    -0.107 NA
ATOM     16  O   UNL d   1     -50.018  11.862  22.419  0.00  0.00    -0.210 OA
ATOM     17  C   UNL d   1     -50.320  11.910  23.174  0.00  0.00     0.128 A 
ATOM     18  C   UNL d   1     -49.762  11.578  23.686  0.00  0.00     0.068 A 
ATOM     19  C   UNL d   1     -51.057  12.236  23.387  0.00  0.00     0.029 C 
ENDBRANCH  12  14
ENDBRANCH   1  11
TORSDOF 9
ENDMDL
MODEL 7
REMARK VINA RESULT:      -4.1      1.972      5.079
REMARK  9 active torsions:
REMARK  status: ('A' for Active; 'I' for Inactive)
REMARK    1  A    between atoms: N_4  and  C_1 
REMARK       I    between atoms: C_7  and  N_4 
REMARK    2  A    between atoms: C_13  and  C_7 
REMARK    3  A    between atoms: C_8  and  C_14 
REMARK    4  A    between atoms: O_12  and  C_8 
REMARK    5  A    between atoms: S_11  and  C_13 
REMARK    6  A    between atoms: C_14  and  S_11 
REMARK    7  A    between atoms: C_16  and  O_12 
REMARK    8  A    between atoms: C_17  and  C_16 
REMARK    9  A    between atoms: C_18  and  C_17 
ROOT
ATOM      1  C   UNL d   1     -46.935  12.374  22.766  0.00  0.00     0.127 C 
ENDROOT
BRANCH   1   2
ATOM      2  S   UNL d   1     -47.749  12.459  22.871  0.00  0.00    -0.089 SA
BRANCH   2   3
ATOM      3  C   UNL d   1     -48.155  13.059  22.476  0.00  0.00     0.103 C 
BRANCH   3   4
ATOM      4  C   UNL d   1     -48.971  13.122  22.549  0.00  0.00     0.307 C 
ATOM      5  O   UNL d   1     -49.462  12.617  22.130  0.00  0.00    -0.258 OA
BRANCH   4   6
ATOM      6  O   UNL d   1     -49.288  13.693  23.042  0.00  0.00    -0.271 OA
BRANCH   6   7
ATOM      7  C   UNL d   1     -49.872  14.205  22.764  0.00  0.00     0.126 C 
BRANCH   7   8
ATOM      8  C   UNL d   1     -50.312  14.655  23.297  0.00  0.00     0.027 C 
BRANCH   8   9
ATOM      9  C   UNL d   1     -50.406  15.465  23.173  0.00  0.00     0.002 C 
ATOM     10  C   UNL d   1     -50.836  15.916  23.697  0.00  0.00     0.000 C 
ENDBRANCH   8   9
ENDBRANCH   7   8
ENDBRANCH   6   7
ENDBRANCH   4   6
ENDBRANCH   3   4
ENDBRANCH   2   3
ENDBRANCH   1   2
BRANCH   1  11
ATOM     11  C   UNL d   1     -46.511  11.839  23.229  0.00  0.00     0.275 C 
ATOM     12  N   UNL d   1     -45.694  11.855  23.224  0.00  0.00    -0.187 NA
ATOM     13  O   UNL d   1     -46.913  11.290  23.696  0.00  0.00    -0.266 OA
BRANCH  12  14
ATOM     14  C   UNL d   1     -45.292  12.403  22.757  0.00  0.00     0.194 A 
ATOM     15  N   UNL d   1     -45.433  13.216  22.738  0.00  0.00    -0.107 NA
ATOM     16  O   UNL d   1     -44.907  13.548  22.198  0.00  0.00    -0.210 OA
ATOM     17  C   UNL d   1     -44.442  12.958  21.880  0.00  0.00     0.128 A 
ATOM     18  C   UNL d   1     -44.677  12.244  22.224  0.00  0.00     0.068 A 
ATOM     19  C   UNL d   1     -43.841  13.062  21.313  0.00  0.00     0.029 C 
ENDBRANCH  12  14
ENDBRANCH   1  11
TORSDOF 9
ENDMDL
MODEL 8
REMARK VINA RESULT:      -3.9      6.056      7.760
REMARK  9 active torsions:
REMARK  status: ('A' for Active; 'I' for Inactive)
REMARK    1  A    between atoms: N_4  and  C_1 
REMARK       I    between atoms: C_7  and  N_4 
REMARK    2  A    between atoms: C_13  and  C_7 
REMARK    3  A    between atoms: C_8  and  C_14 
REMARK    4  A    between atoms: O_12  and  C_8 
REMARK    5  A    between atoms: S_11  and  C_13 
REMARK    6  A    between atoms: C_14  and  S_11 
REMARK    7  A    between atoms: C_16  and  O_12 
REMARK    8  A    between atoms: C_17  and  C_16 
REMARK    9  A    between atoms: C_18  and  C_17 
ROOT
ATOM      1  C   UNL d   1     -41.519  13.919  20.471  0.00  0.00     0.127 C 
ENDROOT
BRANCH   1   2
ATOM      2  S   UNL d   1     -42.015  13.594  21.045  0.00  0.00    -0.089 SA
BRANCH   2   3
ATOM      3  C   UNL d   1     -42.779  13.356  20.843  0.00  0.00     0.103 C 
BRANCH   3   4
ATOM      4  C   UNL d   1     -43.262  12.999  21.403  0.00  0.00     0.307 C 
ATOM      5  O   UNL d   1     -43.066  12.262  21.707  0.00  0.00    -0.258 OA
BRANCH   4   6
ATOM      6  O   UNL d   1     -43.938  13.383  21.655  0.00  0.00    -0.271 OA
BRANCH   6   7
ATOM      7  C   UNL d   1     -44.589  12.950  21.919  0.00  0.00     0.126 C 
BRANCH   7   8
ATOM      8  C   UNL d   1     -45.324  13.317  21.997  0.00  0.00     0.027 C 
BRANCH   8   9
ATOM      9  C   UNL d   1     -45.780  13.187  22.673  0.00  0.00     0.002 C 
ATOM     10  C   UNL d   1     -46.587  13.107  22.617  0.00  0.00     0.000 C 
ENDBRANCH   8   9
ENDBRANCH   7   8
ENDBRANCH   6   7
ENDBRANCH   4   6
ENDBRANCH   3   4
ENDBRANCH   2   3
ENDBRANCH   1   2
BRANCH   1  11
ATOM     11  C   UNL d   1     -40.794  14.247  20.688  0.00  0.00     0.275 C 
ATOM     12  N   UNL d   1     -40.280  14.514  20.111  0.00  0.00    -0.187 NA
ATOM     13  O   UNL d   1     -40.590  14.305  21.486  0.00  0.00    -0.266 OA
BRANCH  12  14
ATOM     14  C   UNL d   1     -40.484  14.457  19.314  0.00  0.00     0.194 A 
ATOM     15  N   UNL d   1     -40.596  13.755  18.895  0.00  0.00    -0.107 NA
ATOM     16  O   UNL d   1     -40.792  13.957  18.120  0.00  0.00    -0.210 OA
ATOM     17  C   UNL d   1     -40.803  14.769  18.050  0.00  0.00     0.128 A 
ATOM     18  C   UNL d   1     -40.612  15.085  18.789  0.00  0.00     0.068 A 
ATOM     19  C   UNL d   1     -40.976  15.197  17.356  0.00  0.00     0.029 C 
ENDBRANCH  12  14
ENDBRANCH   1  11
TORSDOF 9
ENDMDL
MODEL 9
REMARK VINA RESULT:      -3.7      1.776      2.348
REMARK  9 active torsions:
REMARK  status: ('A' for Active; 'I' for Inactive)
REMARK    1  A    between atoms: N_4  and  C_1 
REMARK       I    between atoms: C_7  and  N_4 
REMARK    2  A    between atoms: C_13  and  C_7 
REMARK    3  A    between atoms: C_8  and  C_14 
REMARK    4  A    between atoms: O_12  and  C_8 
REMARK    5  A    between atoms: S_11  and  C_13 
REMARK    6  A    between atoms: C_14  and  S_11 
REMARK    7  A    between atoms: C_16  and  O_12 
REMARK    8  A    between atoms: C_17  and  C_16 
REMARK    9  A    between atoms: C_18  and  C_17 
ROOT
ATOM      1  C   UNL d   1     -48.225  13.732  22.675  0.00  0.00     0.127 C 
ENDROOT
BRANCH   1   2
ATOM      2  S   UNL d   1     -47.411  13.844  22.753  0.00  0.00    -0.089 SA
BRANCH   2   3
ATOM      3  C   UNL d   1     -46.891  13.231  22.568  0.00  0.00     0.103 C 
BRANCH   3   4
ATOM      4  C   UNL d   1     -46.103  13.275  22.795  0.00  0.00     0.307 C 
ATOM      5  O   UNL d   1     -45.896  13.182  23.583  0.00  0.00    -0.258 OA
BRANCH   4   6
ATOM      6  O   UNL d   1     -45.528  13.411  22.229  0.00  0.00    -0.271 OA
BRANCH   6   7
ATOM      7  C   UNL d   1     -44.855  12.936  22.197  0.00  0.00     0.126 C 
BRANCH   7   8
ATOM      8  C   UNL d   1     -44.306  13.039  21.589  0.00  0.00     0.027 C 
BRANCH   8   9
ATOM      9  C   UNL d   1     -43.604  12.606  21.590  0.00  0.00     0.002 C 
ATOM     10  C   UNL d   1     -42.931  12.910  21.249  0.00  0.00     0.000 C 
ENDBRANCH   8   9
ENDBRANCH   7   8
ENDBRANCH   6   7
ENDBRANCH   4   6
ENDBRANCH   3   4
ENDBRANCH   2   3
ENDBRANCH   1   2
BRANCH   1  11
ATOM     11  C   UNL d   1     -48.732  14.383  22.649  0.00  0.00     0.275 C 
ATOM     12  N   UNL d   1     -49.541  14.269  22.669  0.00  0.00    -0.187 NA
ATOM     13  O   UNL d   1     -48.420  15.146  22.602  0.00  0.00    -0.266 OA
BRANCH  12  14
ATOM     14  C   UNL d   1     -49.852  13.506  22.716  0.00  0.00     0.194 A 
ATOM     15  N   UNL d   1     -49.961  12.990  22.083  0.00  0.00    -0.107 NA
ATOM     16  O   UNL d   1     -50.284  12.293  22.381  0.00  0.00    -0.210 OA
ATOM     17  C   UNL d   1     -50.379  12.366  23.188  0.00  0.00     0.128 A 
ATOM     18  C   UNL d   1     -50.112  13.119  23.402  0.00  0.00     0.068 A 
ATOM     19  C   UNL d   1     -50.689  11.786  23.698  0.00  0.00     0.029 C 
ENDBRANCH  12  14
ENDBRANCH   1  11
TORSDOF 9
ENDMDL
