MODEL 1
REMARK VINA RESULT:      26.5      0.000      0.000
REMARK  3 active torsions:
REMARK  status: ('A' for Active; 'I' for Inactive)
REMARK    1  A    between atoms: C_5  and  C_4 
REMARK    2  A    between atoms: C_6  and  C_5 
REMARK       I    between atoms: N_9  and  C_6 
REMARK    3  A    between atoms: C_12  and  N_9 
ROOT
ATOM      1  N   UNL d   1      14.614  11.781  -2.261  0.00  0.00    -0.205 NA
ATOM      2  C   UNL d   1      14.130  11.780  -2.930  0.00  0.00     0.297 A 
ATOM      3  N   UNL d   1      12.944  11.780  -2.113  0.00  0.00    -0.239 NA
ATOM      4  C   UNL d   1      13.309  11.780  -2.857  0.00  0.00     0.144 A 
ATOM      5  C   UNL d   1      14.256  11.780  -1.513  0.00  0.00     0.102 A 
ATOM      6  C   UNL d   1      13.435  11.780  -1.440  0.00  0.00     0.099 A 
ATOM      7  O   UNL d   1      14.488  11.781  -3.674  0.00  0.00    -0.264 OA
ATOM      8  C   UNL d   1      14.741  11.780  -0.833  0.00  0.00     0.021 A 
ATOM      9  C   UNL d   1      13.071  11.780  -0.685  0.00  0.00     0.021 A 
ATOM     10  C   UNL d   1      14.382  11.780  -0.089  0.00  0.00     0.002 A 
ATOM     11  C   UNL d   1      13.561  11.780  -0.016  0.00  0.00     0.002 A 
ENDROOT
BRANCH   4  12
ATOM     12  C   UNL d   1      12.819  11.780  -3.525  0.00  0.00     0.086 C 
BRANCH  12  13
ATOM     13  C   UNL d   1      12.849  12.418  -4.050  0.00  0.00     0.281 C 
ATOM     14  N   UNL d   1      12.833  13.163  -3.753  0.00  0.00    -0.208 NA
ATOM     15  O   UNL d   1      12.894  12.299  -4.854  0.00  0.00    -0.265 OA
BRANCH  14  16
ATOM     16  C   UNL d   1      12.862  13.826  -4.269  0.00  0.00     0.085 A 
ATOM     17  C   UNL d   1      12.945  13.724  -5.062  0.00  0.00     0.019 A 
ATOM     18  C   UNL d   1      12.974  14.382  -5.569  0.00  0.00     0.002 A 
ATOM     19  C   UNL d   1      12.917  15.125  -5.242  0.00  0.00     0.000 A 
ATOM     20  C   UNL d   1      12.834  15.234  -4.452  0.00  0.00     0.002 A 
ATOM     21  C   UNL d   1      12.807  14.584  -3.965  0.00  0.00     0.019 A 
ENDBRANCH  14  16
ENDBRANCH  12  13
ENDBRANCH   4  12
TORSDOF 3
ENDMDL
