MODEL 1
REMARK VINA RESULT:      -1.8      0.000      0.000
REMARK  5 active torsions:
REMARK  status: ('A' for Active; 'I' for Inactive)
REMARK    1  A    between atoms: C_4  and  C_1 
REMARK    2  A    between atoms: S_2  and  C_4 
REMARK    3  A    between atoms: C_8  and  S_2 
REMARK    4  A    between atoms: N_5  and  C_3 
REMARK    5  A    between atoms: C_9  and  C_4 
ROOT
ATOM      1  C   UNL d   1      57.887  -0.606  30.607  0.00  0.00     0.128 A 
ATOM      2  C   UNL d   1      58.345  -0.003  30.918  0.00  0.00     0.166 A 
ATOM      3  N   UNL d   1      57.191  -0.834  30.981  0.00  0.00    -0.240 NA
ATOM      4  N   UNL d   1      58.111   0.378  31.606  0.00  0.00    -0.225 NA
ATOM      5  C   UNL d   1      56.962  -0.451  31.667  0.00  0.00     0.099 A 
ATOM      6  C   UNL d   1      57.415   0.153  31.984  0.00  0.00     0.101 A 
ATOM      7  C   UNL d   1      57.177   0.528  32.669  0.00  0.00     0.021 A 
ATOM      8  C   UNL d   1      56.263  -0.678  32.043  0.00  0.00     0.021 A 
ATOM      9  C   UNL d   1      56.488   0.305  33.042  0.00  0.00     0.002 A 
ATOM     10  C   UNL d   1      56.033  -0.298  32.728  0.00  0.00     0.002 A 
ENDROOT
BRANCH   1  11
ATOM     11  C   UNL d   1      58.115  -0.989  29.921  0.00  0.00     0.129 C 
BRANCH  11  12
ATOM     12  S   UNL d   1      58.208  -1.871  29.947  0.00  0.00     0.213 S 
ATOM     13  O   UNL d   1      57.708  -2.316  30.527  0.00  0.00    -0.217 OA
ATOM     14  O   UNL d   1      57.634  -1.685  30.516  0.00  0.00    -0.217 OA
BRANCH  12  15
ATOM     15  C   UNL d   1      58.685  -2.404  29.526  0.00  0.00     0.088 A 
ATOM     16  C   UNL d   1      59.475  -2.515  29.761  0.00  0.00     0.011 A 
ATOM     17  C   UNL d   1      59.945  -3.047  29.339  0.00  0.00     0.001 A 
ATOM     18  C   UNL d   1      60.725  -3.164  29.563  0.00  0.00     0.000 C 
ATOM     19  C   UNL d   1      59.638  -3.461  28.695  0.00  0.00     0.000 A 
ATOM     20  C   UNL d   1      58.846  -3.341  28.470  0.00  0.00     0.001 A 
ATOM     21  C   UNL d   1      58.380  -2.812  28.892  0.00  0.00     0.011 A 
ENDBRANCH  12  15
ENDBRANCH  11  12
BRANCH  11  22
ATOM     22  C   UNL d   1      58.290  -0.669  29.138  0.00  0.00     0.135 C 
ATOM     23  N   UNL d   1      57.723  -0.424  28.508  0.00  0.00    -0.146 N 
ENDBRANCH  11  22
ENDBRANCH   1  11
BRANCH   2  24
ATOM     24  N   UNL d   1      59.044   0.221  30.538  0.00  0.00    -0.284 N 
ATOM     25  C   UNL d   1      59.738   0.337  30.985  0.00  0.00     0.106 A 
ATOM     26  C   UNL d   1      60.437   0.562  30.591  0.00  0.00     0.118 A 
ATOM     27  C   UNL d   1      61.131   0.678  31.039  0.00  0.00     0.028 C 
ATOM     28  O   UNL d   1      60.443   0.670  29.767  0.00  0.00    -0.304 OA
ATOM     29  C   UNL d   1      59.748   0.552  29.337  0.00  0.00     0.118 A 
ATOM     30  C   UNL d   1      59.049   0.328  29.714  0.00  0.00     0.106 A 
ATOM     31  C   UNL d   1      59.750   0.659  28.513  0.00  0.00     0.028 C 
ENDBRANCH   2  24
TORSDOF 5
ENDMDL
MODEL 2
REMARK VINA RESULT:      -0.5      1.232      2.993
REMARK  5 active torsions:
REMARK  status: ('A' for Active; 'I' for Inactive)
REMARK    1  A    between atoms: C_4  and  C_1 
REMARK    2  A    between atoms: S_2  and  C_4 
REMARK    3  A    between atoms: C_8  and  S_2 
REMARK    4  A    between atoms: N_5  and  C_3 
REMARK    5  A    between atoms: C_9  and  C_4 
ROOT
ATOM      1  C   UNL d   1      58.516  -0.068  30.803  0.00  0.00     0.128 A 
ATOM      2  C   UNL d   1      58.270  -0.073  31.584  0.00  0.00     0.166 A 
ATOM      3  N   UNL d   1      59.294   0.122  30.615  0.00  0.00    -0.240 NA
ATOM      4  N   UNL d   1      58.798   0.112  32.184  0.00  0.00    -0.225 NA
ATOM      5  C   UNL d   1      59.817   0.306  31.217  0.00  0.00     0.099 A 
ATOM      6  C   UNL d   1      59.578   0.303  32.000  0.00  0.00     0.101 A 
ATOM      7  C   UNL d   1      60.109   0.489  32.591  0.00  0.00     0.021 A 
ATOM      8  C   UNL d   1      60.598   0.497  31.029  0.00  0.00     0.021 A 
ATOM      9  C   UNL d   1      60.880   0.678  32.408  0.00  0.00     0.002 A 
ATOM     10  C   UNL d   1      61.122   0.681  31.627  0.00  0.00     0.002 A 
ENDROOT
BRANCH   1  11
ATOM     11  C   UNL d   1      57.993  -0.252  30.202  0.00  0.00     0.129 C 
BRANCH  11  12
ATOM     12  S   UNL d   1      58.309  -0.678  29.491  0.00  0.00     0.213 S 
ATOM     13  O   UNL d   1      58.392  -0.214  28.741  0.00  0.00    -0.217 OA
ATOM     14  O   UNL d   1      58.165   0.100  29.244  0.00  0.00    -0.217 OA
BRANCH  12  15
ATOM     15  C   UNL d   1      58.559  -1.460  29.362  0.00  0.00     0.088 A 
ATOM     16  C   UNL d   1      59.340  -1.601  29.115  0.00  0.00     0.011 A 
ATOM     17  C   UNL d   1      59.583  -2.379  28.989  0.00  0.00     0.001 A 
ATOM     18  C   UNL d   1      60.352  -2.529  28.745  0.00  0.00     0.000 C 
ATOM     19  C   UNL d   1      59.062  -3.008  29.106  0.00  0.00     0.000 A 
ATOM     20  C   UNL d   1      58.283  -2.854  29.353  0.00  0.00     0.001 A 
ATOM     21  C   UNL d   1      58.043  -2.078  29.478  0.00  0.00     0.011 A 
ENDBRANCH  12  15
ENDBRANCH  11  12
BRANCH  11  22
ATOM     22  C   UNL d   1      57.147  -0.096  30.136  0.00  0.00     0.135 C 
ATOM     23  N   UNL d   1      56.700   0.208  29.438  0.00  0.00    -0.146 N 
ENDBRANCH  11  22
ENDBRANCH   1  11
BRANCH   2  24
ATOM     24  N   UNL d   1      57.487  -0.265  31.767  0.00  0.00    -0.284 N 
ATOM     25  C   UNL d   1      57.304  -1.030  32.043  0.00  0.00     0.106 A 
ATOM     26  C   UNL d   1      56.511  -1.214  32.225  0.00  0.00     0.118 A 
ATOM     27  C   UNL d   1      56.328  -1.979  32.501  0.00  0.00     0.028 C 
ATOM     28  O   UNL d   1      55.913  -0.644  32.131  0.00  0.00    -0.304 OA
ATOM     29  C   UNL d   1      56.108   0.109  31.857  0.00  0.00     0.118 A 
ATOM     30  C   UNL d   1      56.889   0.305  31.674  0.00  0.00     0.106 A 
ATOM     31  C   UNL d   1      55.513   0.682  31.763  0.00  0.00     0.028 C 
ENDBRANCH   2  24
TORSDOF 5
ENDMDL
MODEL 3
REMARK VINA RESULT:       1.1      1.160      3.098
REMARK  5 active torsions:
REMARK  status: ('A' for Active; 'I' for Inactive)
REMARK    1  A    between atoms: C_4  and  C_1 
REMARK    2  A    between atoms: S_2  and  C_4 
REMARK    3  A    between atoms: C_8  and  S_2 
REMARK    4  A    between atoms: N_5  and  C_3 
REMARK    5  A    between atoms: C_9  and  C_4 
ROOT
ATOM      1  C   UNL d   1      57.986  -1.061  30.393  0.00  0.00     0.128 A 
ATOM      2  C   UNL d   1      57.825  -1.856  30.505  0.00  0.00     0.166 A 
ATOM      3  N   UNL d   1      57.578  -0.490  30.821  0.00  0.00    -0.240 NA
ATOM      4  N   UNL d   1      57.253  -2.087  31.047  0.00  0.00    -0.225 NA
ATOM      5  C   UNL d   1      57.009  -0.726  31.360  0.00  0.00     0.099 A 
ATOM      6  C   UNL d   1      56.842  -1.519  31.478  0.00  0.00     0.101 A 
ATOM      7  C   UNL d   1      56.272  -1.742  32.018  0.00  0.00     0.021 A 
ATOM      8  C   UNL d   1      56.598  -0.154  31.791  0.00  0.00     0.021 A 
ATOM      9  C   UNL d   1      55.866  -1.179  32.444  0.00  0.00     0.002 A 
ATOM     10  C   UNL d   1      56.030  -0.386  32.329  0.00  0.00     0.002 A 
ENDROOT
BRANCH   1  11
ATOM     11  C   UNL d   1      58.555  -0.825  29.854  0.00  0.00     0.129 C 
BRANCH  11  12
ATOM     12  S   UNL d   1      58.982  -0.063  30.006  0.00  0.00     0.213 S 
ATOM     13  O   UNL d   1      58.714   0.651  29.556  0.00  0.00    -0.217 OA
ATOM     14  O   UNL d   1      58.402   0.111  29.440  0.00  0.00    -0.217 OA
BRANCH  12  15
ATOM     15  C   UNL d   1      59.614   0.144  30.504  0.00  0.00     0.088 A 
ATOM     16  C   UNL d   1      59.471   0.260  31.315  0.00  0.00     0.011 A 
ATOM     17  C   UNL d   1      60.102   0.466  31.805  0.00  0.00     0.001 A 
ATOM     18  C   UNL d   1      59.972   0.583  32.606  0.00  0.00     0.000 C 
ATOM     19  C   UNL d   1      60.863   0.555  31.498  0.00  0.00     0.000 A 
ATOM     20  C   UNL d   1      60.993   0.436  30.685  0.00  0.00     0.001 A 
ATOM     21  C   UNL d   1      60.363   0.232  30.199  0.00  0.00     0.011 A 
ENDBRANCH  12  15
ENDBRANCH  11  12
BRANCH  11  22
ATOM     22  C   UNL d   1      58.825  -1.208  29.128  0.00  0.00     0.135 C 
ATOM     23  N   UNL d   1      59.348  -0.879  28.499  0.00  0.00    -0.146 N 
ENDBRANCH  11  22
ENDBRANCH   1  11
BRANCH   2  24
ATOM     24  N   UNL d   1      58.238  -2.425  30.071  0.00  0.00    -0.284 N 
ATOM     25  C   UNL d   1      59.055  -2.531  30.204  0.00  0.00     0.106 A 
ATOM     26  C   UNL d   1      59.463  -3.107  29.761  0.00  0.00     0.118 A 
ATOM     27  C   UNL d   1      60.280  -3.213  29.894  0.00  0.00     0.028 C 
ATOM     28  O   UNL d   1      59.064  -3.568  29.197  0.00  0.00    -0.304 OA
ATOM     29  C   UNL d   1      58.256  -3.453  29.076  0.00  0.00     0.118 A 
ATOM     30  C   UNL d   1      57.839  -2.886  29.507  0.00  0.00     0.106 A 
ATOM     31  C   UNL d   1      57.852  -3.912  28.513  0.00  0.00     0.028 C 
ENDBRANCH   2  24
TORSDOF 5
ENDMDL
