MODEL 1
REMARK VINA RESULT:      -5.6      0.000      0.000
REMARK  6 active torsions:
REMARK  status: ('A' for Active; 'I' for Inactive)
REMARK       I    between atoms: C_2  and  N_1 
REMARK    1  A    between atoms: C_3  and  C_2 
REMARK    2  A    between atoms: C_12  and  C_4 
REMARK       I    between atoms: C_5  and  N_8 
REMARK    3  A    between atoms: C_6  and  C_5 
REMARK       I    between atoms: N_9  and  C_6 
REMARK    4  A    between atoms: N_8  and  C_12 
REMARK    5  A    between atoms: C_19  and  N_9 
REMARK    6  A    between atoms: C_20  and  C_19 
ROOT
ATOM      1  C   UNL d   1     -43.396  11.871  22.251  0.00  0.00     0.337 C 
ATOM      2  N   UNL d   1     -44.087  11.808  22.686  0.00  0.00    -0.199 NA
ATOM      3  O   UNL d   1     -42.762  11.375  22.416  0.00  0.00    -0.260 OA
ENDROOT
BRANCH   2   4
ATOM      4  C   UNL d   1     -44.722  12.305  22.521  0.00  0.00     0.146 C 
BRANCH   4   5
ATOM      5  C   UNL d   1     -45.443  12.199  22.922  0.00  0.00     0.190 A 
ATOM      6  N   UNL d   1     -46.088  12.706  22.872  0.00  0.00    -0.250 N 
ATOM      7  C   UNL d   1     -46.212  13.409  22.450  0.00  0.00     0.272 C 
ATOM      8  C   UNL d   1     -46.680  12.391  23.356  0.00  0.00     0.112 A 
ATOM      9  O   UNL d   1     -45.611  13.712  21.970  0.00  0.00    -0.266 OA
ATOM     10  C   UNL d   1     -46.396  11.699  23.697  0.00  0.00     0.144 A 
ATOM     11  O   UNL d   1     -45.622  11.587  23.420  0.00  0.00    -0.285 OA
BRANCH   7  12
ATOM     12  C   UNL d   1     -46.930  13.807  22.507  0.00  0.00     0.086 A 
ATOM     13  S   UNL d   1     -47.694  13.596  22.263  0.00  0.00    -0.082 SA
ATOM     14  C   UNL d   1     -48.206  14.225  22.469  0.00  0.00     0.036 A 
ATOM     15  C   UNL d   1     -47.750  14.808  22.835  0.00  0.00     0.008 A 
ATOM     16  C   UNL d   1     -46.967  14.557  22.860  0.00  0.00     0.012 A 
ENDBRANCH   7  12
ENDBRANCH   4   5
ENDBRANCH   2   4
BRANCH   1  17
ATOM     17  C   UNL d   1     -43.327  12.433  21.643  0.00  0.00     0.337 C 
ATOM     18  N   UNL d   1     -42.714  12.977  21.643  0.00  0.00    -0.202 NA
ATOM     19  O   UNL d   1     -43.881  12.440  21.035  0.00  0.00    -0.260 OA
BRANCH  18  20
ATOM     20  C   UNL d   1     -42.631  13.535  21.055  0.00  0.00     0.102 C 
BRANCH  20  21
ATOM     21  C   UNL d   1     -41.968  14.032  21.021  0.00  0.00     0.019 A 
ATOM     22  C   UNL d   1     -42.062  14.837  21.030  0.00  0.00     0.002 A 
ATOM     23  C   UNL d   1     -41.413  15.337  20.996  0.00  0.00     0.000 A 
ATOM     24  C   UNL d   1     -40.642  15.018  20.951  0.00  0.00     0.000 A 
ATOM     25  C   UNL d   1     -40.551  14.204  20.941  0.00  0.00     0.000 A 
ATOM     26  C   UNL d   1     -39.982  15.536  20.917  0.00  0.00     0.000 C 
ATOM     27  C   UNL d   1     -41.219  13.719  20.977  0.00  0.00     0.002 A 
ENDBRANCH  20  21
ENDBRANCH  18  20
ENDBRANCH   1  17
TORSDOF 6
ENDMDL
MODEL 2
REMARK VINA RESULT:      -5.5      5.161      7.209
REMARK  6 active torsions:
REMARK  status: ('A' for Active; 'I' for Inactive)
REMARK       I    between atoms: C_2  and  N_1 
REMARK    1  A    between atoms: C_3  and  C_2 
REMARK    2  A    between atoms: C_12  and  C_4 
REMARK       I    between atoms: C_5  and  N_8 
REMARK    3  A    between atoms: C_6  and  C_5 
REMARK       I    between atoms: N_9  and  C_6 
REMARK    4  A    between atoms: N_8  and  C_12 
REMARK    5  A    between atoms: C_19  and  N_9 
REMARK    6  A    between atoms: C_20  and  C_19 
ROOT
ATOM      1  C   UNL d   1     -41.349  15.495  19.867  0.00  0.00     0.337 C 
ATOM      2  N   UNL d   1     -41.173  15.836  19.143  0.00  0.00    -0.199 NA
ATOM      3  O   UNL d   1     -41.886  15.860  20.371  0.00  0.00    -0.260 OA
ENDROOT
BRANCH   2   4
ATOM      4  C   UNL d   1     -40.635  15.471  18.638  0.00  0.00     0.146 C 
BRANCH   4   5
ATOM      5  C   UNL d   1     -40.681  15.607  17.819  0.00  0.00     0.190 A 
ATOM      6  N   UNL d   1     -40.061  15.505  17.289  0.00  0.00    -0.250 N 
ATOM      7  C   UNL d   1     -39.275  15.260  17.392  0.00  0.00     0.272 C 
ATOM      8  C   UNL d   1     -40.350  15.702  16.540  0.00  0.00     0.112 A 
ATOM      9  O   UNL d   1     -39.001  15.066  18.148  0.00  0.00    -0.266 OA
ATOM     10  C   UNL d   1     -41.138  15.922  16.615  0.00  0.00     0.144 A 
ATOM     11  O   UNL d   1     -41.337  15.860  17.418  0.00  0.00    -0.285 OA
BRANCH   7  12
ATOM     12  C   UNL d   1     -38.768  15.208  16.747  0.00  0.00     0.086 A 
ATOM     13  S   UNL d   1     -38.455  15.792  16.248  0.00  0.00    -0.082 SA
ATOM     14  C   UNL d   1     -37.969  15.407  15.686  0.00  0.00     0.036 A 
ATOM     15  C   UNL d   1     -37.992  14.598  15.848  0.00  0.00     0.008 A 
ATOM     16  C   UNL d   1     -38.480  14.471  16.498  0.00  0.00     0.012 A 
ENDBRANCH   7  12
ENDBRANCH   4   5
ENDBRANCH   2   4
BRANCH   1  17
ATOM     17  C   UNL d   1     -40.990  14.783  20.099  0.00  0.00     0.337 C 
ATOM     18  N   UNL d   1     -40.500  14.756  20.756  0.00  0.00    -0.202 NA
ATOM     19  O   UNL d   1     -41.129  14.099  19.664  0.00  0.00    -0.260 OA
BRANCH  18  20
ATOM     20  C   UNL d   1     -40.139  14.067  20.999  0.00  0.00     0.102 C 
BRANCH  20  21
ATOM     21  C   UNL d   1     -39.588  14.062  21.619  0.00  0.00     0.019 A 
ATOM     22  C   UNL d   1     -39.830  13.910  22.377  0.00  0.00     0.002 A 
ATOM     23  C   UNL d   1     -39.293  13.903  22.996  0.00  0.00     0.000 A 
ATOM     24  C   UNL d   1     -38.484  14.052  22.850  0.00  0.00     0.000 A 
ATOM     25  C   UNL d   1     -38.243  14.204  22.083  0.00  0.00     0.000 A 
ATOM     26  C   UNL d   1     -37.940  14.042  23.490  0.00  0.00     0.000 C 
ATOM     27  C   UNL d   1     -38.801  14.207  21.474  0.00  0.00     0.002 A 
ENDBRANCH  20  21
ENDBRANCH  18  20
ENDBRANCH   1  17
TORSDOF 6
ENDMDL
MODEL 3
REMARK VINA RESULT:      -5.4      2.988      4.277
REMARK  6 active torsions:
REMARK  status: ('A' for Active; 'I' for Inactive)
REMARK       I    between atoms: C_2  and  N_1 
REMARK    1  A    between atoms: C_3  and  C_2 
REMARK    2  A    between atoms: C_12  and  C_4 
REMARK       I    between atoms: C_5  and  N_8 
REMARK    3  A    between atoms: C_6  and  C_5 
REMARK       I    between atoms: N_9  and  C_6 
REMARK    4  A    between atoms: N_8  and  C_12 
REMARK    5  A    between atoms: C_19  and  N_9 
REMARK    6  A    between atoms: C_20  and  C_19 
ROOT
ATOM      1  C   UNL d   1     -45.766  13.575  22.348  0.00  0.00     0.337 C 
ATOM      2  N   UNL d   1     -46.462  13.860  22.024  0.00  0.00    -0.199 NA
ATOM      3  O   UNL d   1     -45.042  13.824  22.048  0.00  0.00    -0.260 OA
ENDROOT
BRANCH   2   4
ATOM      4  C   UNL d   1     -47.186  13.611  22.325  0.00  0.00     0.146 C 
BRANCH   4   5
ATOM      5  C   UNL d   1     -47.849  14.111  22.271  0.00  0.00     0.190 A 
ATOM      6  N   UNL d   1     -48.627  13.855  22.204  0.00  0.00    -0.250 N 
ATOM      7  C   UNL d   1     -48.964  13.097  22.172  0.00  0.00     0.272 C 
ATOM      8  C   UNL d   1     -49.101  14.532  22.167  0.00  0.00     0.112 A 
ATOM      9  O   UNL d   1     -48.477  12.429  22.210  0.00  0.00    -0.266 OA
ATOM     10  C   UNL d   1     -48.614  15.192  22.211  0.00  0.00     0.144 A 
ATOM     11  O   UNL d   1     -47.833  14.920  22.276  0.00  0.00    -0.285 OA
BRANCH   7  12
ATOM     12  C   UNL d   1     -49.778  13.006  22.102  0.00  0.00     0.086 A 
ATOM     13  S   UNL d   1     -50.284  13.089  21.451  0.00  0.00    -0.082 SA
ATOM     14  C   UNL d   1     -51.062  12.927  21.715  0.00  0.00     0.036 A 
ATOM     15  C   UNL d   1     -51.019  12.748  22.519  0.00  0.00     0.008 A 
ATOM     16  C   UNL d   1     -50.234  12.795  22.762  0.00  0.00     0.012 A 
ENDBRANCH   7  12
ENDBRANCH   4   5
ENDBRANCH   2   4
BRANCH   1  17
ATOM     17  C   UNL d   1     -45.781  13.035  22.979  0.00  0.00     0.337 C 
ATOM     18  N   UNL d   1     -45.471  12.281  22.892  0.00  0.00    -0.202 NA
ATOM     19  O   UNL d   1     -46.112  13.262  23.698  0.00  0.00    -0.260 OA
BRANCH  18  20
ATOM     20  C   UNL d   1     -45.477  11.738  23.499  0.00  0.00     0.102 C 
BRANCH  20  21
ATOM     21  C   UNL d   1     -44.981  11.074  23.492  0.00  0.00     0.019 A 
ATOM     22  C   UNL d   1     -44.203  11.150  23.279  0.00  0.00     0.002 A 
ATOM     23  C   UNL d   1     -43.704  10.499  23.269  0.00  0.00     0.000 A 
ATOM     24  C   UNL d   1     -43.996   9.745  23.480  0.00  0.00     0.000 A 
ATOM     25  C   UNL d   1     -44.784   9.672  23.694  0.00  0.00     0.000 A 
ATOM     26  C   UNL d   1     -43.480   9.082  23.467  0.00  0.00     0.000 C 
ATOM     27  C   UNL d   1     -45.268  10.341  23.697  0.00  0.00     0.002 A 
ENDBRANCH  20  21
ENDBRANCH  18  20
ENDBRANCH   1  17
TORSDOF 6
ENDMDL
MODEL 4
REMARK VINA RESULT:      -4.9      2.513      5.820
REMARK  6 active torsions:
REMARK  status: ('A' for Active; 'I' for Inactive)
REMARK       I    between atoms: C_2  and  N_1 
REMARK    1  A    between atoms: C_3  and  C_2 
REMARK    2  A    between atoms: C_12  and  C_4 
REMARK       I    between atoms: C_5  and  N_8 
REMARK    3  A    between atoms: C_6  and  C_5 
REMARK       I    between atoms: N_9  and  C_6 
REMARK    4  A    between atoms: N_8  and  C_12 
REMARK    5  A    between atoms: C_19  and  N_9 
REMARK    6  A    between atoms: C_20  and  C_19 
ROOT
ATOM      1  C   UNL d   1     -42.311  12.872  21.644  0.00  0.00     0.337 C 
ATOM      2  N   UNL d   1     -41.733  13.361  21.330  0.00  0.00    -0.199 NA
ATOM      3  O   UNL d   1     -42.133  12.388  22.284  0.00  0.00    -0.260 OA
ENDROOT
BRANCH   2   4
ATOM      4  C   UNL d   1     -41.911  13.846  20.689  0.00  0.00     0.146 C 
BRANCH   4   5
ATOM      5  C   UNL d   1     -41.476  14.544  20.569  0.00  0.00     0.190 A 
ATOM      6  N   UNL d   1     -41.061  14.727  19.883  0.00  0.00    -0.250 N 
ATOM      7  C   UNL d   1     -40.955  14.318  19.169  0.00  0.00     0.272 C 
ATOM      8  C   UNL d   1     -40.713  15.468  20.003  0.00  0.00     0.112 A 
ATOM      9  O   UNL d   1     -41.310  13.577  19.064  0.00  0.00    -0.266 OA
ATOM     10  C   UNL d   1     -40.916  15.732  20.754  0.00  0.00     0.144 A 
ATOM     11  O   UNL d   1     -41.392  15.148  21.101  0.00  0.00    -0.285 OA
BRANCH   7  12
ATOM     12  C   UNL d   1     -40.501  14.643  18.566  0.00  0.00     0.086 A 
ATOM     13  S   UNL d   1     -39.681  14.744  18.491  0.00  0.00    -0.082 SA
ATOM     14  C   UNL d   1     -39.539  15.109  17.752  0.00  0.00     0.036 A 
ATOM     15  C   UNL d   1     -40.271  15.226  17.388  0.00  0.00     0.008 A 
ATOM     16  C   UNL d   1     -40.863  14.942  17.882  0.00  0.00     0.012 A 
ENDBRANCH   7  12
ENDBRANCH   4   5
ENDBRANCH   2   4
BRANCH   1  17
ATOM     17  C   UNL d   1     -43.077  12.860  21.324  0.00  0.00     0.337 C 
ATOM     18  N   UNL d   1     -43.726  13.062  21.782  0.00  0.00    -0.202 NA
ATOM     19  O   UNL d   1     -43.182  12.643  20.537  0.00  0.00    -0.260 OA
BRANCH  18  20
ATOM     20  C   UNL d   1     -44.484  13.055  21.485  0.00  0.00     0.102 C 
BRANCH  20  21
ATOM     21  C   UNL d   1     -45.144  13.154  21.978  0.00  0.00     0.019 A 
ATOM     22  C   UNL d   1     -45.532  12.507  22.273  0.00  0.00     0.002 A 
ATOM     23  C   UNL d   1     -46.185  12.595  22.762  0.00  0.00     0.000 A 
ATOM     24  C   UNL d   1     -46.458  13.358  22.961  0.00  0.00     0.000 A 
ATOM     25  C   UNL d   1     -46.064  14.010  22.661  0.00  0.00     0.000 A 
ATOM     26  C   UNL d   1     -47.128  13.440  23.462  0.00  0.00     0.000 C 
ATOM     27  C   UNL d   1     -45.408  13.899  22.171  0.00  0.00     0.002 A 
ENDBRANCH  20  21
ENDBRANCH  18  20
ENDBRANCH   1  17
TORSDOF 6
ENDMDL
MODEL 5
REMARK VINA RESULT:      -4.4      1.639      2.824
REMARK  6 active torsions:
REMARK  status: ('A' for Active; 'I' for Inactive)
REMARK       I    between atoms: C_2  and  N_1 
REMARK    1  A    between atoms: C_3  and  C_2 
REMARK    2  A    between atoms: C_12  and  C_4 
REMARK       I    between atoms: C_5  and  N_8 
REMARK    3  A    between atoms: C_6  and  C_5 
REMARK       I    between atoms: N_9  and  C_6 
REMARK    4  A    between atoms: N_8  and  C_12 
REMARK    5  A    between atoms: C_19  and  N_9 
REMARK    6  A    between atoms: C_20  and  C_19 
ROOT
ATOM      1  C   UNL d   1     -46.036  12.750  23.041  0.00  0.00     0.337 C 
ATOM      2  N   UNL d   1     -46.771  13.105  23.123  0.00  0.00    -0.199 NA
ATOM      3  O   UNL d   1     -45.662  12.428  23.698  0.00  0.00    -0.260 OA
ENDROOT
BRANCH   2   4
ATOM      4  C   UNL d   1     -47.146  13.427  22.466  0.00  0.00     0.146 C 
BRANCH   4   5
ATOM      5  C   UNL d   1     -47.722  14.018  22.570  0.00  0.00     0.190 A 
ATOM      6  N   UNL d   1     -48.521  13.932  22.392  0.00  0.00    -0.250 N 
ATOM      7  C   UNL d   1     -48.958  13.298  22.084  0.00  0.00     0.272 C 
ATOM      8  C   UNL d   1     -48.887  14.649  22.580  0.00  0.00     0.112 A 
ATOM      9  O   UNL d   1     -48.577  12.587  21.901  0.00  0.00    -0.266 OA
ATOM     10  C   UNL d   1     -48.316  15.165  22.869  0.00  0.00     0.144 A 
ATOM     11  O   UNL d   1     -47.591  14.762  22.860  0.00  0.00    -0.285 OA
BRANCH   7  12
ATOM     12  C   UNL d   1     -49.768  13.372  21.961  0.00  0.00     0.086 A 
ATOM     13  S   UNL d   1     -50.199  13.661  21.314  0.00  0.00    -0.082 SA
ATOM     14  C   UNL d   1     -51.011  13.600  21.506  0.00  0.00     0.036 A 
ATOM     15  C   UNL d   1     -51.064  13.276  22.263  0.00  0.00     0.008 A 
ATOM     16  C   UNL d   1     -50.305  13.135  22.547  0.00  0.00     0.012 A 
ENDBRANCH   7  12
ENDBRANCH   4   5
ENDBRANCH   2   4
BRANCH   1  17
ATOM     17  C   UNL d   1     -45.664  12.713  22.300  0.00  0.00     0.337 C 
ATOM     18  N   UNL d   1     -44.882  12.941  22.212  0.00  0.00    -0.202 NA
ATOM     19  O   UNL d   1     -46.088  12.443  21.648  0.00  0.00    -0.260 OA
BRANCH  18  20
ATOM     20  C   UNL d   1     -44.500  12.911  21.493  0.00  0.00     0.102 C 
BRANCH  20  21
ATOM     21  C   UNL d   1     -43.691  13.076  21.424  0.00  0.00     0.019 A 
ATOM     22  C   UNL d   1     -43.443  13.819  21.216  0.00  0.00     0.002 A 
ATOM     23  C   UNL d   1     -42.645  13.992  21.146  0.00  0.00     0.000 A 
ATOM     24  C   UNL d   1     -42.074  13.399  21.290  0.00  0.00     0.000 A 
ATOM     25  C   UNL d   1     -42.328  12.649  21.500  0.00  0.00     0.000 A 
ATOM     26  C   UNL d   1     -41.258  13.583  21.216  0.00  0.00     0.000 C 
ATOM     27  C   UNL d   1     -43.138  12.497  21.565  0.00  0.00     0.002 A 
ENDBRANCH  20  21
ENDBRANCH  18  20
ENDBRANCH   1  17
TORSDOF 6
ENDMDL
MODEL 6
REMARK VINA RESULT:      -4.3      3.797      6.947
REMARK  6 active torsions:
REMARK  status: ('A' for Active; 'I' for Inactive)
REMARK       I    between atoms: C_2  and  N_1 
REMARK    1  A    between atoms: C_3  and  C_2 
REMARK    2  A    between atoms: C_12  and  C_4 
REMARK       I    between atoms: C_5  and  N_8 
REMARK    3  A    between atoms: C_6  and  C_5 
REMARK       I    between atoms: N_9  and  C_6 
REMARK    4  A    between atoms: N_8  and  C_12 
REMARK    5  A    between atoms: C_19  and  N_9 
REMARK    6  A    between atoms: C_20  and  C_19 
ROOT
ATOM      1  C   UNL d   1     -40.945  15.152  20.548  0.00  0.00     0.337 C 
ATOM      2  N   UNL d   1     -40.669  15.333  19.798  0.00  0.00    -0.199 NA
ATOM      3  O   UNL d   1     -41.102  15.756  21.083  0.00  0.00    -0.260 OA
ENDROOT
BRANCH   2   4
ATOM      4  C   UNL d   1     -40.512  14.728  19.262  0.00  0.00     0.146 C 
BRANCH   4   5
ATOM      5  C   UNL d   1     -40.534  14.886  18.446  0.00  0.00     0.190 A 
ATOM      6  N   UNL d   1     -39.961  14.647  17.906  0.00  0.00    -0.250 N 
ATOM      7  C   UNL d   1     -39.256  14.219  17.993  0.00  0.00     0.272 C 
ATOM      8  C   UNL d   1     -40.203  14.921  17.163  0.00  0.00     0.112 A 
ATOM      9  O   UNL d   1     -39.028  13.952  18.742  0.00  0.00    -0.266 OA
ATOM     10  C   UNL d   1     -40.915  15.321  17.253  0.00  0.00     0.144 A 
ATOM     11  O   UNL d   1     -41.114  15.295  18.058  0.00  0.00    -0.285 OA
BRANCH   7  12
ATOM     12  C   UNL d   1     -38.784  14.058  17.340  0.00  0.00     0.086 A 
ATOM     13  S   UNL d   1     -38.304  14.551  16.876  0.00  0.00    -0.082 SA
ATOM     14  C   UNL d   1     -37.953  14.076  16.284  0.00  0.00     0.036 A 
ATOM     15  C   UNL d   1     -38.221  13.303  16.394  0.00  0.00     0.008 A 
ATOM     16  C   UNL d   1     -38.731  13.287  17.040  0.00  0.00     0.012 A 
ENDBRANCH   7  12
ENDBRANCH   4   5
ENDBRANCH   2   4
BRANCH   1  17
ATOM     17  C   UNL d   1     -41.070  14.363  20.775  0.00  0.00     0.337 C 
ATOM     18  N   UNL d   1     -41.829  14.069  20.867  0.00  0.00    -0.202 NA
ATOM     19  O   UNL d   1     -40.422  13.874  20.909  0.00  0.00    -0.260 OA
BRANCH  18  20
ATOM     20  C   UNL d   1     -41.971  13.298  21.090  0.00  0.00     0.102 C 
BRANCH  20  21
ATOM     21  C   UNL d   1     -42.713  13.057  21.371  0.00  0.00     0.019 A 
ATOM     22  C   UNL d   1     -42.778  12.393  21.829  0.00  0.00     0.002 A 
ATOM     23  C   UNL d   1     -43.508  12.147  22.111  0.00  0.00     0.000 A 
ATOM     24  C   UNL d   1     -44.197  12.583  21.927  0.00  0.00     0.000 A 
ATOM     25  C   UNL d   1     -44.127  13.254  21.463  0.00  0.00     0.000 A 
ATOM     26  C   UNL d   1     -44.940  12.325  22.220  0.00  0.00     0.000 C 
ATOM     27  C   UNL d   1     -43.382  13.484  21.189  0.00  0.00     0.002 A 
ENDBRANCH  20  21
ENDBRANCH  18  20
ENDBRANCH   1  17
TORSDOF 6
ENDMDL
MODEL 7
REMARK VINA RESULT:      -3.5      2.206      5.875
REMARK  6 active torsions:
REMARK  status: ('A' for Active; 'I' for Inactive)
REMARK       I    between atoms: C_2  and  N_1 
REMARK    1  A    between atoms: C_3  and  C_2 
REMARK    2  A    between atoms: C_12  and  C_4 
REMARK       I    between atoms: C_5  and  N_8 
REMARK    3  A    between atoms: C_6  and  C_5 
REMARK       I    between atoms: N_9  and  C_6 
REMARK    4  A    between atoms: N_8  and  C_12 
REMARK    5  A    between atoms: C_19  and  N_9 
REMARK    6  A    between atoms: C_20  and  C_19 
ROOT
ATOM      1  C   UNL d   1     -42.956  12.950  20.746  0.00  0.00     0.337 C 
ATOM      2  N   UNL d   1     -42.301  13.431  20.643  0.00  0.00    -0.199 NA
ATOM      3  O   UNL d   1     -43.280  12.555  20.101  0.00  0.00    -0.260 OA
ENDROOT
BRANCH   2   4
ATOM      4  C   UNL d   1     -41.977  13.826  21.288  0.00  0.00     0.146 C 
BRANCH   4   5
ATOM      5  C   UNL d   1     -41.582  14.549  21.171  0.00  0.00     0.190 A 
ATOM      6  N   UNL d   1     -40.784  14.678  21.321  0.00  0.00    -0.250 N 
ATOM      7  C   UNL d   1     -40.183  14.182  21.606  0.00  0.00     0.272 C 
ATOM      8  C   UNL d   1     -40.628  15.467  21.130  0.00  0.00     0.112 A 
ATOM      9  O   UNL d   1     -40.355  13.395  21.794  0.00  0.00    -0.266 OA
ATOM     10  C   UNL d   1     -41.325  15.813  20.866  0.00  0.00     0.144 A 
ATOM     11  O   UNL d   1     -41.916  15.232  20.895  0.00  0.00    -0.285 OA
BRANCH   7  12
ATOM     12  C   UNL d   1     -39.418  14.468  21.703  0.00  0.00     0.086 A 
ATOM     13  S   UNL d   1     -39.094  14.984  22.265  0.00  0.00    -0.082 SA
ATOM     14  C   UNL d   1     -38.282  15.074  22.085  0.00  0.00     0.036 A 
ATOM     15  C   UNL d   1     -38.122  14.614  21.418  0.00  0.00     0.008 A 
ATOM     16  C   UNL d   1     -38.816  14.240  21.180  0.00  0.00     0.012 A 
ENDBRANCH   7  12
ENDBRANCH   4   5
ENDBRANCH   2   4
BRANCH   1  17
ATOM     17  C   UNL d   1     -43.299  12.856  21.496  0.00  0.00     0.337 C 
ATOM     18  N   UNL d   1     -44.072  13.091  21.635  0.00  0.00    -0.202 NA
ATOM     19  O   UNL d   1     -42.856  12.523  22.105  0.00  0.00    -0.260 OA
BRANCH  18  20
ATOM     20  C   UNL d   1     -44.426  13.007  22.364  0.00  0.00     0.102 C 
BRANCH  20  21
ATOM     21  C   UNL d   1     -45.225  13.193  22.483  0.00  0.00     0.019 A 
ATOM     22  C   UNL d   1     -45.765  12.604  22.616  0.00  0.00     0.002 A 
ATOM     23  C   UNL d   1     -46.557  12.779  22.734  0.00  0.00     0.000 A 
ATOM     24  C   UNL d   1     -46.817  13.572  22.719  0.00  0.00     0.000 A 
ATOM     25  C   UNL d   1     -46.269  14.165  22.584  0.00  0.00     0.000 A 
ATOM     26  C   UNL d   1     -47.631  13.744  22.841  0.00  0.00     0.000 C 
ATOM     27  C   UNL d   1     -45.475  13.967  22.468  0.00  0.00     0.002 A 
ENDBRANCH  20  21
ENDBRANCH  18  20
ENDBRANCH   1  17
TORSDOF 6
ENDMDL
