MODEL 1
REMARK VINA RESULT:      -3.5      0.000      0.000
REMARK  5 active torsions:
REMARK  status: ('A' for Active; 'I' for Inactive)
REMARK    1  A    between atoms: S_3  and  N_1 
REMARK    2  A    between atoms: S_4  and  N_8 
REMARK    3  A    between atoms: C_12  and  C_5 
REMARK    4  A    between atoms: C_9  and  C_6 
REMARK    5  A    between atoms: N_8  and  C_16 
ROOT
ATOM      1  N   UNL d   1      58.037   0.145  29.996  0.00  0.00    -0.155 N 
ATOM      2  N   UNL d   1      57.720   0.574  30.633  0.00  0.00    -0.156 NA
ATOM      3  C   UNL d   1      58.194  -0.626  30.267  0.00  0.00     0.096 A 
ATOM      4  C   UNL d   1      57.682   0.074  31.289  0.00  0.00     0.104 A 
ATOM      5  C   UNL d   1      57.976  -0.664  31.059  0.00  0.00     0.041 A 
ENDROOT
BRANCH   4   6
ATOM      6  C   UNL d   1      57.403   0.276  32.037  0.00  0.00     0.021 A 
ATOM      7  C   UNL d   1      56.595   0.271  32.185  0.00  0.00     0.021 A 
ATOM      8  C   UNL d   1      56.313   0.474  32.938  0.00  0.00     0.093 A 
ATOM      9  C   UNL d   1      56.846   0.680  33.541  0.00  0.00     0.020 A 
ATOM     10  C   UNL d   1      57.659   0.682  33.383  0.00  0.00     0.002 A 
ATOM     11  C   UNL d   1      57.939   0.482  32.638  0.00  0.00     0.002 A 
BRANCH   8  12
ATOM     12  N   UNL d   1      55.493   0.470  33.090  0.00  0.00    -0.162 NA
BRANCH  12  13
ATOM     13  S   UNL d   1      55.194   0.037  33.719  0.00  0.00     0.266 S 
ATOM     14  O   UNL d   1      54.811  -0.584  34.120  0.00  0.00    -0.203 OA
ATOM     15  O   UNL d   1      54.955  -0.488  33.124  0.00  0.00    -0.203 OA
ATOM     16  C   UNL d   1      55.427   0.549  34.318  0.00  0.00     0.165 C 
ENDBRANCH  12  13
ENDBRANCH   8  12
ENDBRANCH   4   6
BRANCH   1  17
ATOM     17  S   UNL d   1      58.169   0.439  29.234  0.00  0.00     0.266 S 
ATOM     18  O   UNL d   1      57.888   0.630  28.482  0.00  0.00    -0.203 OA
ATOM     19  O   UNL d   1      57.414   0.181  29.455  0.00  0.00    -0.203 OA
ATOM     20  C   UNL d   1      58.936   0.676  29.082  0.00  0.00     0.165 C 
ENDBRANCH   1  17
BRANCH   3  21
ATOM     21  C   UNL d   1      58.511  -1.232  29.816  0.00  0.00     0.018 A 
ATOM     22  C   UNL d   1      58.033  -1.869  29.602  0.00  0.00     0.002 A 
ATOM     23  C   UNL d   1      58.346  -2.482  29.148  0.00  0.00     0.000 A 
ATOM     24  C   UNL d   1      59.130  -2.458  28.911  0.00  0.00     0.000 A 
ATOM     25  C   UNL d   1      59.600  -1.816  29.130  0.00  0.00     0.000 A 
ATOM     26  C   UNL d   1      59.443  -3.073  28.456  0.00  0.00     0.000 C 
ATOM     27  C   UNL d   1      59.299  -1.210  29.576  0.00  0.00     0.002 A 
ENDBRANCH   3  21
TORSDOF 5
ENDMDL
MODEL 2
REMARK VINA RESULT:      -2.3      1.958      5.072
REMARK  5 active torsions:
REMARK  status: ('A' for Active; 'I' for Inactive)
REMARK    1  A    between atoms: S_3  and  N_1 
REMARK    2  A    between atoms: S_4  and  N_8 
REMARK    3  A    between atoms: C_12  and  C_5 
REMARK    4  A    between atoms: C_9  and  C_6 
REMARK    5  A    between atoms: N_8  and  C_16 
ROOT
ATOM      1  N   UNL d   1      56.504  -0.959  32.294  0.00  0.00    -0.155 N 
ATOM      2  N   UNL d   1      56.917  -0.936  31.573  0.00  0.00    -0.156 NA
ATOM      3  C   UNL d   1      56.560  -0.203  32.639  0.00  0.00     0.096 A 
ATOM      4  C   UNL d   1      57.223  -0.176  31.475  0.00  0.00     0.104 A 
ATOM      5  C   UNL d   1      57.001   0.272  32.134  0.00  0.00     0.041 A 
ENDROOT
BRANCH   4   6
ATOM      6  C   UNL d   1      57.670   0.089  30.835  0.00  0.00     0.021 A 
ATOM      7  C   UNL d   1      58.489   0.037  30.861  0.00  0.00     0.021 A 
ATOM      8  C   UNL d   1      58.940   0.303  30.218  0.00  0.00     0.093 A 
ATOM      9  C   UNL d   1      58.563   0.621  29.549  0.00  0.00     0.020 A 
ATOM     10  C   UNL d   1      57.737   0.669  29.531  0.00  0.00     0.002 A 
ATOM     11  C   UNL d   1      57.290   0.406  30.167  0.00  0.00     0.002 A 
BRANCH   8  12
ATOM     12  N   UNL d   1      59.771   0.251  30.243  0.00  0.00    -0.162 NA
BRANCH  12  13
ATOM     13  S   UNL d   1      60.183  -0.045  29.598  0.00  0.00     0.266 S 
ATOM     14  O   UNL d   1      60.504  -0.608  29.076  0.00  0.00    -0.203 OA
ATOM     15  O   UNL d   1      59.951  -0.779  29.904  0.00  0.00    -0.203 OA
ATOM     16  C   UNL d   1      60.420   0.677  29.285  0.00  0.00     0.165 C 
ENDBRANCH  12  13
ENDBRANCH   8  12
ENDBRANCH   4   6
BRANCH   1  17
ATOM     17  S   UNL d   1      56.112  -1.618  32.604  0.00  0.00     0.266 S 
ATOM     18  O   UNL d   1      56.126  -2.322  33.034  0.00  0.00    -0.203 OA
ATOM     19  O   UNL d   1      56.924  -1.521  32.730  0.00  0.00    -0.203 OA
ATOM     20  C   UNL d   1      55.311  -1.653  32.443  0.00  0.00     0.165 C 
ENDBRANCH   1  17
BRANCH   3  21
ATOM     21  C   UNL d   1      56.229   0.016  33.355  0.00  0.00     0.018 A 
ATOM     22  C   UNL d   1      55.430   0.218  33.386  0.00  0.00     0.002 A 
ATOM     23  C   UNL d   1      55.091   0.440  34.105  0.00  0.00     0.000 A 
ATOM     24  C   UNL d   1      55.547   0.460  34.785  0.00  0.00     0.000 A 
ATOM     25  C   UNL d   1      56.345   0.255  34.743  0.00  0.00     0.000 A 
ATOM     26  C   UNL d   1      55.207   0.682  35.505  0.00  0.00     0.000 C 
ATOM     27  C   UNL d   1      56.685   0.036  34.041  0.00  0.00     0.002 A 
ENDBRANCH   3  21
TORSDOF 5
ENDMDL
MODEL 3
REMARK VINA RESULT:      -1.5      1.181      1.725
REMARK  5 active torsions:
REMARK  status: ('A' for Active; 'I' for Inactive)
REMARK    1  A    between atoms: S_3  and  N_1 
REMARK    2  A    between atoms: S_4  and  N_8 
REMARK    3  A    between atoms: C_12  and  C_5 
REMARK    4  A    between atoms: C_9  and  C_6 
REMARK    5  A    between atoms: N_8  and  C_16 
ROOT
ATOM      1  N   UNL d   1      59.188  -0.831  29.545  0.00  0.00    -0.155 N 
ATOM      2  N   UNL d   1      58.747  -0.259  29.956  0.00  0.00    -0.156 NA
ATOM      3  C   UNL d   1      58.823  -1.568  29.672  0.00  0.00     0.096 A 
ATOM      4  C   UNL d   1      58.117  -0.639  30.332  0.00  0.00     0.104 A 
ATOM      5  C   UNL d   1      58.168  -1.445  30.154  0.00  0.00     0.041 A 
ENDROOT
BRANCH   4   6
ATOM      6  C   UNL d   1      57.543  -0.279  30.799  0.00  0.00     0.021 A 
ATOM      7  C   UNL d   1      57.443  -0.517  31.579  0.00  0.00     0.021 A 
ATOM      8  C   UNL d   1      56.865  -0.155  32.050  0.00  0.00     0.093 A 
ATOM      9  C   UNL d   1      56.387   0.447  31.734  0.00  0.00     0.020 A 
ATOM     10  C   UNL d   1      56.494   0.681  30.947  0.00  0.00     0.002 A 
ATOM     11  C   UNL d   1      57.066   0.324  30.480  0.00  0.00     0.002 A 
BRANCH   8  12
ATOM     12  N   UNL d   1      56.763  -0.396  32.841  0.00  0.00    -0.162 NA
BRANCH  12  13
ATOM     13  S   UNL d   1      56.064  -0.759  33.073  0.00  0.00     0.266 S 
ATOM     14  O   UNL d   1      55.478  -1.347  33.128  0.00  0.00    -0.203 OA
ATOM     15  O   UNL d   1      56.341  -1.383  32.603  0.00  0.00    -0.203 OA
ATOM     16  C   UNL d   1      55.780  -0.148  33.542  0.00  0.00     0.165 C 
ENDBRANCH  12  13
ENDBRANCH   8  12
ENDBRANCH   4   6
BRANCH   1  17
ATOM     17  S   UNL d   1      59.866  -0.685  29.095  0.00  0.00     0.266 S 
ATOM     18  O   UNL d   1      60.235  -0.313  28.457  0.00  0.00    -0.203 OA
ATOM     19  O   UNL d   1      59.147  -0.330  28.889  0.00  0.00    -0.203 OA
ATOM     20  C   UNL d   1      60.543  -1.066  29.352  0.00  0.00     0.165 C 
ENDBRANCH   1  17
BRANCH   3  21
ATOM     21  C   UNL d   1      59.079  -2.283  29.366  0.00  0.00     0.018 A 
ATOM     22  C   UNL d   1      59.781  -2.614  29.646  0.00  0.00     0.002 A 
ATOM     23  C   UNL d   1      60.045  -3.334  29.341  0.00  0.00     0.000 A 
ATOM     24  C   UNL d   1      59.611  -3.719  28.763  0.00  0.00     0.000 A 
ATOM     25  C   UNL d   1      58.910  -3.379  28.490  0.00  0.00     0.000 A 
ATOM     26  C   UNL d   1      59.875  -4.440  28.458  0.00  0.00     0.000 C 
ATOM     27  C   UNL d   1      58.644  -2.672  28.784  0.00  0.00     0.002 A 
ENDBRANCH   3  21
TORSDOF 5
ENDMDL
