MODEL 1
REMARK VINA RESULT:      66.4      0.000      0.000
REMARK  5 active torsions:
REMARK  status: ('A' for Active; 'I' for Inactive)
REMARK    1  A    between atoms: C_11  and  C_4 
REMARK    2  A    between atoms: N_10  and  C_5 
REMARK    3  A    between atoms: C_12  and  C_8 
REMARK    4  A    between atoms: C_16  and  N_10 
REMARK    5  A    between atoms: C_17  and  C_16 
ROOT
ATOM      1  C   UNL d   1      13.876  13.721  -3.151  0.00  0.00     0.167 A 
ATOM      2  N   UNL d   1      13.663  14.015  -3.897  0.00  0.00    -0.195 N 
ATOM      3  N   UNL d   1      14.196  14.223  -2.601  0.00  0.00    -0.231 NA
ATOM      4  C   UNL d   1      13.765  12.945  -2.981  0.00  0.00     0.057 A 
ATOM      5  C   UNL d   1      13.779  14.797  -4.058  0.00  0.00     0.167 A 
ATOM      6  N   UNL d   1      13.236  12.744  -4.270  0.00  0.00    -0.161 NA
ATOM      7  C   UNL d   1      14.099  15.303  -3.510  0.00  0.00     0.054 A 
ATOM      8  C   UNL d   1      14.311  15.011  -2.768  0.00  0.00     0.063 A 
ATOM      9  C   UNL d   1      13.445  12.456  -3.540  0.00  0.00     0.124 A 
ENDROOT
BRANCH   5  10
ATOM     10  N   UNL d   1      13.561  15.096  -4.819  0.00  0.00    -0.224 NA
BRANCH  10  11
ATOM     11  C   UNL d   1      13.891  15.423  -5.521  0.00  0.00     0.120 C 
BRANCH  11  12
ATOM     12  C   UNL d   1      13.702  16.203  -5.761  0.00  0.00     0.101 A 
ATOM     13  N   UNL d   1      14.249  16.838  -5.620  0.00  0.00    -0.242 NA
ATOM     14  C   UNL d   1      14.052  17.622  -5.865  0.00  0.00     0.099 A 
ATOM     15  C   UNL d   1      13.313  17.776  -6.249  0.00  0.00     0.021 A 
ATOM     16  C   UNL d   1      12.769  17.133  -6.388  0.00  0.00     0.003 A 
ATOM     17  C   UNL d   1      12.966  16.357  -6.144  0.00  0.00     0.021 A 
ENDBRANCH  11  12
ENDBRANCH  10  11
ENDBRANCH   5  10
BRANCH   8  18
ATOM     18  C   UNL d   1      14.646  15.531  -2.186  0.00  0.00     0.036 C 
ATOM     19  C   UNL d   1      14.978  16.050  -1.613  0.00  0.00     0.006 C 
ATOM     20  C   UNL d   1      14.783  15.251  -1.398  0.00  0.00     0.006 C 
ATOM     21  C   UNL d   1      14.841  16.331  -2.403  0.00  0.00     0.006 C 
ENDBRANCH   8  18
BRANCH   4  22
ATOM     22  C   UNL d   1      13.974  12.658  -2.251  0.00  0.00     0.005 A 
ATOM     23  C   UNL d   1      14.759  12.634  -2.026  0.00  0.00     0.001 A 
ATOM     24  C   UNL d   1      14.965  12.351  -1.307  0.00  0.00     0.011 A 
ATOM     25  C   UNL d   1      14.394  12.080  -0.783  0.00  0.00     0.058 A 
ATOM     26  C   UNL d   1      13.621  12.100  -0.997  0.00  0.00     0.011 A 
ATOM     27 CL   UNL d   1      14.611  11.782  -0.025  0.00  0.00    -0.082 Cl
ATOM     28  C   UNL d   1      13.410  12.391  -1.735  0.00  0.00     0.001 A 
ENDBRANCH   4  22
TORSDOF 5
ENDMDL
MODEL 2
REMARK VINA RESULT:      68.8      1.559      2.736
REMARK  5 active torsions:
REMARK  status: ('A' for Active; 'I' for Inactive)
REMARK    1  A    between atoms: C_11  and  C_4 
REMARK    2  A    between atoms: N_10  and  C_5 
REMARK    3  A    between atoms: C_12  and  C_8 
REMARK    4  A    between atoms: C_16  and  N_10 
REMARK    5  A    between atoms: C_17  and  C_16 
ROOT
ATOM      1  C   UNL d   1      14.753  15.927  -2.507  0.00  0.00     0.167 A 
ATOM      2  N   UNL d   1      14.884  16.622  -2.943  0.00  0.00    -0.195 N 
ATOM      3  N   UNL d   1      14.357  15.310  -2.851  0.00  0.00    -0.231 NA
ATOM      4  C   UNL d   1      15.018  15.874  -1.752  0.00  0.00     0.057 A 
ATOM      5  C   UNL d   1      14.614  16.664  -3.701  0.00  0.00     0.167 A 
ATOM      6  N   UNL d   1      15.540  17.179  -1.848  0.00  0.00    -0.161 NA
ATOM      7  C   UNL d   1      14.217  16.047  -4.049  0.00  0.00     0.054 A 
ATOM      8  C   UNL d   1      14.086  15.357  -3.616  0.00  0.00     0.063 A 
ATOM      9  C   UNL d   1      15.411  16.500  -1.422  0.00  0.00     0.124 A 
ENDROOT
BRANCH   5  10
ATOM     10  N   UNL d   1      14.748  17.372  -4.145  0.00  0.00    -0.224 NA
BRANCH  10  11
ATOM     11  C   UNL d   1      15.071  17.645  -4.873  0.00  0.00     0.120 C 
BRANCH  11  12
ATOM     12  C   UNL d   1      14.699  18.262  -5.302  0.00  0.00     0.101 A 
ATOM     13  N   UNL d   1      14.926  19.070  -5.169  0.00  0.00    -0.242 NA
ATOM     14  C   UNL d   1      14.548  19.687  -5.605  0.00  0.00     0.099 A 
ATOM     15  C   UNL d   1      13.946  19.503  -6.172  0.00  0.00     0.021 A 
ATOM     16  C   UNL d   1      13.724  18.689  -6.300  0.00  0.00     0.003 A 
ATOM     17  C   UNL d   1      14.100  18.079  -5.867  0.00  0.00     0.021 A 
ENDBRANCH  11  12
ENDBRANCH  10  11
ENDBRANCH   5  10
BRANCH   8  18
ATOM     18  C   UNL d   1      13.672  14.706  -3.970  0.00  0.00     0.036 C 
ATOM     19  C   UNL d   1      13.266  14.059  -4.323  0.00  0.00     0.006 C 
ATOM     20  C   UNL d   1      12.892  14.507  -3.704  0.00  0.00     0.006 C 
ATOM     21  C   UNL d   1      14.048  14.258  -4.589  0.00  0.00     0.006 C 
ENDBRANCH   8  18
BRANCH   4  22
ATOM     22  C   UNL d   1      14.889  15.195  -1.325  0.00  0.00     0.005 A 
ATOM     23  C   UNL d   1      14.398  15.205  -0.673  0.00  0.00     0.001 A 
ATOM     24  C   UNL d   1      14.271  14.536  -0.253  0.00  0.00     0.011 A 
ATOM     25  C   UNL d   1      14.630  13.830  -0.468  0.00  0.00     0.058 A 
ATOM     26  C   UNL d   1      15.114  13.814  -1.108  0.00  0.00     0.011 A 
ATOM     27 CL   UNL d   1      14.496  13.126  -0.026  0.00  0.00    -0.082 Cl
ATOM     28  C   UNL d   1      15.244  14.500  -1.539  0.00  0.00     0.001 A 
ENDBRANCH   4  22
TORSDOF 5
ENDMDL
