MODEL 1
REMARK VINA RESULT:      -8.6      0.000      0.000
REMARK  5 active torsions:
REMARK  status: ('A' for Active; 'I' for Inactive)
REMARK    1  A    between atoms: C_10  and  C_1 
REMARK    2  A    between atoms: C_16  and  C_2 
REMARK    3  A    between atoms: C_7  and  C_14 
REMARK    4  A    between atoms: C_13  and  C_10 
REMARK    5  A    between atoms: C_14  and  C_13 
ROOT
ATOM      1  C   UNL d   1     -47.651  13.984  22.439  0.00  0.00     0.097 A 
ATOM      2  C   UNL d   1     -48.491  13.893  22.489  0.00  0.00     0.009 A 
ATOM      3  C   UNL d   1     -47.300  14.701  22.628  0.00  0.00     0.282 A 
ATOM      4  C   UNL d   1     -48.926  14.532  22.727  0.00  0.00     0.019 A 
ATOM      5  N   UNL d   1     -47.775  15.357  22.875  0.00  0.00    -0.208 NA
ATOM      6  C   UNL d   1     -48.575  15.249  22.916  0.00  0.00     0.085 A 
ATOM      7  C   UNL d   1     -49.757  14.438  22.775  0.00  0.00     0.013 A 
ATOM      8  C   UNL d   1     -49.041  15.901  23.160  0.00  0.00     0.020 A 
ATOM      9  O   UNL d   1     -46.468  14.794  22.580  0.00  0.00    -0.265 OA
ATOM     10  C   UNL d   1     -50.232  15.094  23.022  0.00  0.00     0.058 A 
ATOM     11  C   UNL d   1     -49.881  15.810  23.211  0.00  0.00     0.013 A 
ATOM     12 CL   UNL d   1     -51.064  15.000  23.070  0.00  0.00    -0.082 Cl
ENDROOT
BRANCH   1  13
ATOM     13  C   UNL d   1     -47.184  13.331  22.194  0.00  0.00     0.200 C 
ATOM     14  O   UNL d   1     -47.197  13.068  21.380  0.00  0.00    -0.286 OA
BRANCH  13  15
ATOM     15  C   UNL d   1     -46.707  12.931  22.727  0.00  0.00     0.045 C 
BRANCH  15  16
ATOM     16  C   UNL d   1     -45.877  12.856  22.642  0.00  0.00     0.042 C 
BRANCH  16  17
ATOM     17  C   UNL d   1     -45.474  12.159  22.874  0.00  0.00     0.163 A 
ATOM     18  N   UNL d   1     -45.730  11.492  23.263  0.00  0.00    -0.225 NA
ATOM     19  C   UNL d   1     -45.079  10.997  23.334  0.00  0.00     0.101 A 
ATOM     20  C   UNL d   1     -45.016  10.252  23.677  0.00  0.00     0.021 A 
ATOM     21  C   UNL d   1     -44.447  11.340  23.004  0.00  0.00     0.101 A 
ATOM     22  C   UNL d   1     -44.267   9.866  23.670  0.00  0.00     0.002 A 
ATOM     23  C   UNL d   1     -43.633  10.249  23.321  0.00  0.00     0.002 A 
ATOM     24  C   UNL d   1     -43.749  10.993  22.992  0.00  0.00     0.021 A 
ATOM     25  N   UNL d   1     -44.675  12.104  22.694  0.00  0.00    -0.225 NA
ENDBRANCH  16  17
ENDBRANCH  15  16
ENDBRANCH  13  15
ENDBRANCH   1  13
BRANCH   2  26
ATOM     26  C   UNL d   1     -48.858  13.145  22.292  0.00  0.00     0.000 A 
ATOM     27  C   UNL d   1     -48.997  12.985  21.495  0.00  0.00     0.000 A 
ATOM     28  C   UNL d   1     -49.346  12.280  21.262  0.00  0.00     0.000 A 
ATOM     29  C   UNL d   1     -49.555  11.721  21.917  0.00  0.00     0.000 A 
ATOM     30  C   UNL d   1     -49.410  11.899  22.673  0.00  0.00     0.000 A 
ATOM     31  C   UNL d   1     -49.044  12.646  22.870  0.00  0.00     0.000 A 
ENDBRANCH   2  26
TORSDOF 5
ENDMDL
MODEL 2
REMARK VINA RESULT:      -6.7      1.573      2.740
REMARK  5 active torsions:
REMARK  status: ('A' for Active; 'I' for Inactive)
REMARK    1  A    between atoms: C_10  and  C_1 
REMARK    2  A    between atoms: C_16  and  C_2 
REMARK    3  A    between atoms: C_7  and  C_14 
REMARK    4  A    between atoms: C_13  and  C_10 
REMARK    5  A    between atoms: C_14  and  C_13 
ROOT
ATOM      1  C   UNL d   1     -47.903  12.578  22.787  0.00  0.00     0.097 A 
ATOM      2  C   UNL d   1     -48.458  13.137  22.478  0.00  0.00     0.009 A 
ATOM      3  C   UNL d   1     -48.118  11.791  22.880  0.00  0.00     0.282 A 
ATOM      4  C   UNL d   1     -49.195  12.869  22.282  0.00  0.00     0.019 A 
ATOM      5  N   UNL d   1     -48.895  11.533  22.668  0.00  0.00    -0.208 NA
ATOM      6  C   UNL d   1     -49.409  12.083  22.375  0.00  0.00     0.085 A 
ATOM      7  C   UNL d   1     -49.740  13.427  21.976  0.00  0.00     0.013 A 
ATOM      8  C   UNL d   1     -50.177  11.823  22.166  0.00  0.00     0.020 A 
ATOM      9  O   UNL d   1     -47.571  11.233  23.186  0.00  0.00    -0.265 OA
ATOM     10  C   UNL d   1     -50.518  13.169  21.764  0.00  0.00     0.058 A 
ATOM     11  C   UNL d   1     -50.732  12.383  21.857  0.00  0.00     0.013 A 
ATOM     12 CL   UNL d   1     -51.064  13.727  21.458  0.00  0.00    -0.082 Cl
ENDROOT
BRANCH   1  13
ATOM     13  C   UNL d   1     -47.134  12.838  22.995  0.00  0.00     0.200 C 
ATOM     14  O   UNL d   1     -47.010  13.311  23.698  0.00  0.00    -0.286 OA
BRANCH  13  15
ATOM     15  C   UNL d   1     -46.484  12.647  22.533  0.00  0.00     0.045 C 
BRANCH  15  16
ATOM     16  C   UNL d   1     -45.733  12.451  22.846  0.00  0.00     0.042 C 
BRANCH  16  17
ATOM     17  C   UNL d   1     -45.027  12.614  22.425  0.00  0.00     0.163 A 
ATOM     18  N   UNL d   1     -44.819  13.233  21.939  0.00  0.00    -0.225 NA
ATOM     19  C   UNL d   1     -44.052  13.086  21.687  0.00  0.00     0.101 A 
ATOM     20  C   UNL d   1     -43.565  13.525  21.189  0.00  0.00     0.021 A 
ATOM     21  C   UNL d   1     -43.794  12.407  22.002  0.00  0.00     0.101 A 
ATOM     22  C   UNL d   1     -42.791  13.236  21.024  0.00  0.00     0.002 A 
ATOM     23  C   UNL d   1     -42.555  12.531  21.367  0.00  0.00     0.002 A 
ATOM     24  C   UNL d   1     -43.079  12.131  21.857  0.00  0.00     0.021 A 
ATOM     25  N   UNL d   1     -44.412  12.075  22.492  0.00  0.00    -0.225 NA
ENDBRANCH  16  17
ENDBRANCH  15  16
ENDBRANCH  13  15
ENDBRANCH   1  13
BRANCH   2  26
ATOM     26  C   UNL d   1     -48.235  13.958  22.380  0.00  0.00     0.000 A 
ATOM     27  C   UNL d   1     -48.349  14.465  23.022  0.00  0.00     0.000 A 
ATOM     28  C   UNL d   1     -48.148  15.258  22.971  0.00  0.00     0.000 A 
ATOM     29  C   UNL d   1     -47.809  15.520  22.195  0.00  0.00     0.000 A 
ATOM     30  C   UNL d   1     -47.710  15.014  21.597  0.00  0.00     0.000 A 
ATOM     31  C   UNL d   1     -47.934  14.194  21.694  0.00  0.00     0.000 A 
ENDBRANCH   2  26
TORSDOF 5
ENDMDL
MODEL 3
REMARK VINA RESULT:      -5.8      1.622      2.010
REMARK  5 active torsions:
REMARK  status: ('A' for Active; 'I' for Inactive)
REMARK    1  A    between atoms: C_10  and  C_1 
REMARK    2  A    between atoms: C_16  and  C_2 
REMARK    3  A    between atoms: C_7  and  C_14 
REMARK    4  A    between atoms: C_13  and  C_10 
REMARK    5  A    between atoms: C_14  and  C_13 
ROOT
ATOM      1  C   UNL d   1     -47.663  14.014  22.623  0.00  0.00     0.097 A 
ATOM      2  C   UNL d   1     -48.336  13.520  22.482  0.00  0.00     0.009 A 
ATOM      3  C   UNL d   1     -47.709  14.822  22.494  0.00  0.00     0.282 A 
ATOM      4  C   UNL d   1     -49.014  13.873  22.220  0.00  0.00     0.019 A 
ATOM      5  N   UNL d   1     -48.430  15.171  22.219  0.00  0.00    -0.208 NA
ATOM      6  C   UNL d   1     -49.060  14.681  22.091  0.00  0.00     0.085 A 
ATOM      7  C   UNL d   1     -49.678  13.380  22.082  0.00  0.00     0.013 A 
ATOM      8  C   UNL d   1     -49.772  15.030  21.819  0.00  0.00     0.020 A 
ATOM      9  O   UNL d   1     -47.045  15.315  22.632  0.00  0.00    -0.265 OA
ATOM     10  C   UNL d   1     -50.399  13.728  21.807  0.00  0.00     0.058 A 
ATOM     11  C   UNL d   1     -50.445  14.536  21.678  0.00  0.00     0.013 A 
ATOM     12 CL   UNL d   1     -51.063  13.235  21.669  0.00  0.00    -0.082 Cl
ENDROOT
BRANCH   1  13
ATOM     13  C   UNL d   1     -46.950  13.665  22.895  0.00  0.00     0.200 C 
ATOM     14  O   UNL d   1     -46.887  13.375  23.698  0.00  0.00    -0.286 OA
BRANCH  13  15
ATOM     15  C   UNL d   1     -46.300  13.594  22.401  0.00  0.00     0.045 C 
BRANCH  15  16
ATOM     16  C   UNL d   1     -45.531  13.854  22.605  0.00  0.00     0.042 C 
BRANCH  16  17
ATOM     17  C   UNL d   1     -44.848  13.520  22.253  0.00  0.00     0.163 A 
ATOM     18  N   UNL d   1     -44.588  12.750  22.203  0.00  0.00    -0.225 NA
ATOM     19  C   UNL d   1     -43.879  12.768  21.790  0.00  0.00     0.101 A 
ATOM     20  C   UNL d   1     -43.374  12.154  21.578  0.00  0.00     0.021 A 
ATOM     21  C   UNL d   1     -43.705  13.514  21.593  0.00  0.00     0.101 A 
ATOM     22  C   UNL d   1     -42.673  12.337  21.149  0.00  0.00     0.002 A 
ATOM     23  C   UNL d   1     -42.522  13.119  20.960  0.00  0.00     0.002 A 
ATOM     24  C   UNL d   1     -43.059  13.696  21.195  0.00  0.00     0.021 A 
ATOM     25  N   UNL d   1     -44.323  14.031  21.883  0.00  0.00    -0.225 NA
ENDBRANCH  16  17
ENDBRANCH  15  16
ENDBRANCH  13  15
ENDBRANCH   1  13
BRANCH   2  26
ATOM     26  C   UNL d   1     -48.288  12.676  22.617  0.00  0.00     0.000 A 
ATOM     27  C   UNL d   1     -48.483  12.396  23.368  0.00  0.00     0.000 A 
ATOM     28  C   UNL d   1     -48.450  11.595  23.539  0.00  0.00     0.000 A 
ATOM     29  C   UNL d   1     -48.196  11.069  22.873  0.00  0.00     0.000 A 
ATOM     30  C   UNL d   1     -48.015  11.364  22.163  0.00  0.00     0.000 A 
ATOM     31  C   UNL d   1     -48.063  12.207  22.028  0.00  0.00     0.000 A 
ENDBRANCH   2  26
TORSDOF 5
ENDMDL
MODEL 4
REMARK VINA RESULT:      -5.7      1.207      2.147
REMARK  5 active torsions:
REMARK  status: ('A' for Active; 'I' for Inactive)
REMARK    1  A    between atoms: C_10  and  C_1 
REMARK    2  A    between atoms: C_16  and  C_2 
REMARK    3  A    between atoms: C_7  and  C_14 
REMARK    4  A    between atoms: C_13  and  C_10 
REMARK    5  A    between atoms: C_14  and  C_13 
ROOT
ATOM      1  C   UNL d   1     -48.468  12.636  22.766  0.00  0.00     0.097 A 
ATOM      2  C   UNL d   1     -48.534  13.475  22.859  0.00  0.00     0.009 A 
ATOM      3  C   UNL d   1     -49.121  12.154  22.888  0.00  0.00     0.282 A 
ATOM      4  C   UNL d   1     -49.254  13.775  23.069  0.00  0.00     0.019 A 
ATOM      5  N   UNL d   1     -49.865  12.491  23.108  0.00  0.00    -0.208 NA
ATOM      6  C   UNL d   1     -49.906  13.293  23.191  0.00  0.00     0.085 A 
ATOM      7  C   UNL d   1     -49.314  14.606  23.160  0.00  0.00     0.013 A 
ATOM      8  C   UNL d   1     -50.646  13.622  23.409  0.00  0.00     0.020 A 
ATOM      9  O   UNL d   1     -49.060  11.322  22.797  0.00  0.00    -0.265 OA
ATOM     10  C   UNL d   1     -50.059  14.943  23.380  0.00  0.00     0.058 A 
ATOM     11  C   UNL d   1     -50.711  14.461  23.502  0.00  0.00     0.013 A 
ATOM     12 CL   UNL d   1     -50.120  15.775  23.471  0.00  0.00    -0.082 Cl
ENDROOT
BRANCH   1  13
ATOM     13  C   UNL d   1     -47.728  12.306  22.548  0.00  0.00     0.200 C 
ATOM     14  O   UNL d   1     -47.538  12.170  21.725  0.00  0.00    -0.286 OA
BRANCH  13  15
ATOM     15  C   UNL d   1     -47.172  12.107  23.117  0.00  0.00     0.045 C 
BRANCH  15  16
ATOM     16  C   UNL d   1     -46.927  11.322  23.272  0.00  0.00     0.042 C 
BRANCH  16  17
ATOM     17  C   UNL d   1     -46.116  11.118  23.325  0.00  0.00     0.163 A 
ATOM     18  N   UNL d   1     -45.441  11.558  23.213  0.00  0.00    -0.225 NA
ATOM     19  C   UNL d   1     -44.807  11.052  23.343  0.00  0.00     0.101 A 
ATOM     20  C   UNL d   1     -43.998  11.198  23.306  0.00  0.00     0.021 A 
ATOM     21  C   UNL d   1     -45.076  10.331  23.528  0.00  0.00     0.101 A 
ATOM     22  C   UNL d   1     -43.466  10.565  23.470  0.00  0.00     0.002 A 
ATOM     23  C   UNL d   1     -43.777   9.831  23.658  0.00  0.00     0.002 A 
ATOM     24  C   UNL d   1     -44.593   9.738  23.681  0.00  0.00     0.021 A 
ATOM     25  N   UNL d   1     -45.932  10.343  23.524  0.00  0.00    -0.225 NA
ENDBRANCH  16  17
ENDBRANCH  15  16
ENDBRANCH  13  15
ENDBRANCH   1  13
BRANCH   2  26
ATOM     26  C   UNL d   1     -47.853  13.978  22.732  0.00  0.00     0.000 A 
ATOM     27  C   UNL d   1     -47.750  14.299  21.979  0.00  0.00     0.000 A 
ATOM     28  C   UNL d   1     -47.111  14.786  21.815  0.00  0.00     0.000 A 
ATOM     29  C   UNL d   1     -46.557  14.936  22.490  0.00  0.00     0.000 A 
ATOM     30  C   UNL d   1     -46.680  14.615  23.202  0.00  0.00     0.000 A 
ATOM     31  C   UNL d   1     -47.360  14.113  23.329  0.00  0.00     0.000 A 
ENDBRANCH   2  26
TORSDOF 5
ENDMDL
MODEL 5
REMARK VINA RESULT:      -5.6      7.513      9.589
REMARK  5 active torsions:
REMARK  status: ('A' for Active; 'I' for Inactive)
REMARK    1  A    between atoms: C_10  and  C_1 
REMARK    2  A    between atoms: C_16  and  C_2 
REMARK    3  A    between atoms: C_7  and  C_14 
REMARK    4  A    between atoms: C_13  and  C_10 
REMARK    5  A    between atoms: C_14  and  C_13 
ROOT
ATOM      1  C   UNL d   1     -39.136  15.128  20.356  0.00  0.00     0.097 A 
ATOM      2  C   UNL d   1     -39.546  14.694  20.956  0.00  0.00     0.009 A 
ATOM      3  C   UNL d   1     -38.350  15.337  20.461  0.00  0.00     0.282 A 
ATOM      4  C   UNL d   1     -39.137  14.498  21.625  0.00  0.00     0.019 A 
ATOM      5  N   UNL d   1     -37.941  15.121  21.170  0.00  0.00    -0.208 NA
ATOM      6  C   UNL d   1     -38.351  14.707  21.730  0.00  0.00     0.085 A 
ATOM      7  C   UNL d   1     -39.548  14.068  22.216  0.00  0.00     0.013 A 
ATOM      8  C   UNL d   1     -37.943  14.495  22.430  0.00  0.00     0.020 A 
ATOM      9  O   UNL d   1     -37.940  15.767  19.869  0.00  0.00    -0.265 OA
ATOM     10  C   UNL d   1     -39.139  13.852  22.925  0.00  0.00     0.058 A 
ATOM     11  C   UNL d   1     -38.353  14.060  23.030  0.00  0.00     0.013 A 
ATOM     12 CL   UNL d   1     -39.549  13.421  23.517  0.00  0.00    -0.082 Cl
ENDROOT
BRANCH   1  13
ATOM     13  C   UNL d   1     -39.544  15.341  19.655  0.00  0.00     0.200 C 
ATOM     14  O   UNL d   1     -40.179  15.915  19.677  0.00  0.00    -0.286 OA
BRANCH  13  15
ATOM     15  C   UNL d   1     -39.346  15.006  18.933  0.00  0.00     0.045 C 
BRANCH  15  16
ATOM     16  C   UNL d   1     -39.664  15.257  18.201  0.00  0.00     0.042 C 
BRANCH  16  17
ATOM     17  C   UNL d   1     -39.267  15.111  17.478  0.00  0.00     0.163 A 
ATOM     18  N   UNL d   1     -38.899  15.612  16.952  0.00  0.00    -0.225 NA
ATOM     19  C   UNL d   1     -38.611  15.143  16.343  0.00  0.00     0.101 A 
ATOM     20  C   UNL d   1     -38.194  15.353  15.666  0.00  0.00     0.021 A 
ATOM     21  C   UNL d   1     -38.791  14.385  16.483  0.00  0.00     0.101 A 
ATOM     22  C   UNL d   1     -37.965  14.746  15.128  0.00  0.00     0.002 A 
ATOM     23  C   UNL d   1     -38.166  13.972  15.302  0.00  0.00     0.002 A 
ATOM     24  C   UNL d   1     -38.584  13.815  15.993  0.00  0.00     0.021 A 
ATOM     25  N   UNL d   1     -39.221  14.332  17.221  0.00  0.00    -0.225 NA
ENDBRANCH  16  17
ENDBRANCH  15  16
ENDBRANCH  13  15
ENDBRANCH   1  13
BRANCH   2  26
ATOM     26  C   UNL d   1     -40.366  14.476  20.847  0.00  0.00     0.000 A 
ATOM     27  C   UNL d   1     -40.941  15.023  21.073  0.00  0.00     0.000 A 
ATOM     28  C   UNL d   1     -41.739  14.854  20.985  0.00  0.00     0.000 A 
ATOM     29  C   UNL d   1     -41.929  14.061  20.638  0.00  0.00     0.000 A 
ATOM     30  C   UNL d   1     -41.358  13.556  20.430  0.00  0.00     0.000 A 
ATOM     31  C   UNL d   1     -40.538  13.774  20.539  0.00  0.00     0.000 A 
ENDBRANCH   2  26
TORSDOF 5
ENDMDL
