MODEL 1
REMARK VINA RESULT:      -1.3      0.000      0.000
REMARK  7 active torsions:
REMARK  status: ('A' for Active; 'I' for Inactive)
REMARK    1  A    between atoms: C_7  and  C_1 
REMARK    2  A    between atoms: C_8  and  C_2 
REMARK    3  A    between atoms: C_10  and  C_3 
REMARK    4  A    between atoms: O_14  and  C_7 
REMARK    5  A    between atoms: O_15  and  C_8 
REMARK    6  A    between atoms: C_19  and  O_14 
REMARK    7  A    between atoms: C_20  and  O_15 
ROOT
ATOM      1  C   UNL d   1      30.137  17.062 -24.465  0.00  0.00     0.100 A 
ATOM      2  C   UNL d   1      31.263  17.934 -24.562  0.00  0.00     0.103 A 
ATOM      3  C   UNL d   1      30.938  17.202 -24.347  0.00  0.00     0.016 A 
ATOM      4  C   UNL d   1      29.652  17.650 -24.800  0.00  0.00     0.171 A 
ATOM      5  C   UNL d   1      30.778  18.523 -24.896  0.00  0.00     0.204 A 
ATOM      6  C   UNL d   1      29.970  18.378 -25.014  0.00  0.00     0.081 A 
ATOM      7  O   UNL d   1      30.985  19.152 -25.096  0.00  0.00    -0.286 OA
ATOM      8  O   UNL d   1      29.273  17.131 -24.679  0.00  0.00    -0.289 OA
ATOM      9  C   UNL d   1      29.133  17.919 -25.017  0.00  0.00     0.042 C 
ENDROOT
BRANCH   3  10
ATOM     10  C   UNL d   1      31.415  16.624 -24.018  0.00  0.00     0.001 A 
ATOM     11  C   UNL d   1      31.496  16.563 -23.200  0.00  0.00     0.000 A 
ATOM     12  C   UNL d   1      31.976  15.980 -22.869  0.00  0.00     0.000 A 
ATOM     13  C   UNL d   1      32.379  15.453 -23.353  0.00  0.00     0.000 A 
ATOM     14  C   UNL d   1      32.304  15.507 -24.176  0.00  0.00     0.000 A 
ATOM     15  C   UNL d   1      31.823  16.090 -24.507  0.00  0.00     0.000 A 
ENDBRANCH   3  10
BRANCH   2  16
ATOM     16  C   UNL d   1      32.067  18.077 -24.443  0.00  0.00     0.303 C 
ATOM     17  O   UNL d   1      32.624  17.886 -25.026  0.00  0.00    -0.259 OA
BRANCH  16  18
ATOM     18  O   UNL d   1      32.346  18.412 -23.747  0.00  0.00    -0.271 OA
BRANCH  18  19
ATOM     19  C   UNL d   1      33.096  18.770 -23.727  0.00  0.00     0.126 C 
ATOM     20  C   UNL d   1      33.241  19.403 -23.212  0.00  0.00     0.029 C 
ENDBRANCH  18  19
ENDBRANCH  16  18
ENDBRANCH   2  16
BRANCH   1  21
ATOM     21  C   UNL d   1      29.815  16.331 -24.250  0.00  0.00     0.303 C 
ATOM     22  O   UNL d   1      30.065  15.658 -24.622  0.00  0.00    -0.259 OA
BRANCH  21  23
ATOM     23  O   UNL d   1      29.236  16.264 -23.659  0.00  0.00    -0.271 OA
BRANCH  23  24
ATOM     24  C   UNL d   1      28.910  15.530 -23.483  0.00  0.00     0.126 C 
ATOM     25  C   UNL d   1      28.260  15.481 -22.970  0.00  0.00     0.029 C 
ENDBRANCH  23  24
ENDBRANCH  21  23
ENDBRANCH   1  21
TORSDOF 7
ENDMDL
MODEL 2
REMARK VINA RESULT:      -0.9      0.279      3.063
REMARK  7 active torsions:
REMARK  status: ('A' for Active; 'I' for Inactive)
REMARK    1  A    between atoms: C_7  and  C_1 
REMARK    2  A    between atoms: C_8  and  C_2 
REMARK    3  A    between atoms: C_10  and  C_3 
REMARK    4  A    between atoms: O_14  and  C_7 
REMARK    5  A    between atoms: O_15  and  C_8 
REMARK    6  A    between atoms: C_19  and  O_14 
REMARK    7  A    between atoms: C_20  and  O_15 
ROOT
ATOM      1  C   UNL d   1      31.310  17.917 -24.467  0.00  0.00     0.100 A 
ATOM      2  C   UNL d   1      30.213  17.002 -24.457  0.00  0.00     0.103 A 
ATOM      3  C   UNL d   1      31.007  17.174 -24.288  0.00  0.00     0.016 A 
ATOM      4  C   UNL d   1      30.824  18.497 -24.816  0.00  0.00     0.171 A 
ATOM      5  C   UNL d   1      29.727  17.582 -24.806  0.00  0.00     0.204 A 
ATOM      6  C   UNL d   1      30.036  18.330 -24.985  0.00  0.00     0.081 A 
ATOM      7  O   UNL d   1      29.060  17.504 -24.972  0.00  0.00    -0.286 OA
ATOM      8  O   UNL d   1      31.417  18.761 -24.738  0.00  0.00    -0.289 OA
ATOM      9  C   UNL d   1      30.663  19.047 -25.059  0.00  0.00     0.042 C 
ENDROOT
BRANCH   3  10
ATOM     10  C   UNL d   1      31.484  16.605 -23.946  0.00  0.00     0.001 A 
ATOM     11  C   UNL d   1      31.479  16.489 -23.130  0.00  0.00     0.000 A 
ATOM     12  C   UNL d   1      31.961  15.915 -22.784  0.00  0.00     0.000 A 
ATOM     13  C   UNL d   1      32.451  15.453 -23.252  0.00  0.00     0.000 A 
ATOM     14  C   UNL d   1      32.464  15.561 -24.073  0.00  0.00     0.000 A 
ATOM     15  C   UNL d   1      31.982  16.135 -24.418  0.00  0.00     0.000 A 
ENDBRANCH   3  10
BRANCH   2  16
ATOM     16  C   UNL d   1      29.908  16.257 -24.279  0.00  0.00     0.303 C 
ATOM     17  O   UNL d   1      30.193  15.577 -24.659  0.00  0.00    -0.259 OA
BRANCH  16  18
ATOM     18  O   UNL d   1      29.313  16.158 -23.721  0.00  0.00    -0.271 OA
BRANCH  18  19
ATOM     19  C   UNL d   1      28.729  15.577 -23.832  0.00  0.00     0.126 C 
ATOM     20  C   UNL d   1      28.151  15.453 -23.251  0.00  0.00     0.029 C 
ENDBRANCH  18  19
ENDBRANCH  16  18
ENDBRANCH   2  16
BRANCH   1  21
ATOM     21  C   UNL d   1      32.101  18.086 -24.298  0.00  0.00     0.303 C 
ATOM     22  O   UNL d   1      32.687  17.762 -24.752  0.00  0.00    -0.259 OA
BRANCH  21  23
ATOM     23  O   UNL d   1      32.319  18.584 -23.670  0.00  0.00    -0.271 OA
BRANCH  23  24
ATOM     24  C   UNL d   1      33.058  18.944 -23.667  0.00  0.00     0.126 C 
ATOM     25  C   UNL d   1      33.241  19.504 -23.083  0.00  0.00     0.029 C 
ENDBRANCH  23  24
ENDBRANCH  21  23
ENDBRANCH   1  21
TORSDOF 7
ENDMDL
