MODEL 1
REMARK VINA RESULT:      97.2      0.000      0.000
REMARK  6 active torsions:
REMARK  status: ('A' for Active; 'I' for Inactive)
REMARK    1  A    between atoms: C_10  and  C_3 
REMARK    2  A    between atoms: N_12  and  C_4 
REMARK    3  A    between atoms: N_11  and  C_20 
REMARK    4  A    between atoms: C_25  and  N_12 
REMARK    5  A    between atoms: C_20  and  C_21 
REMARK    6  A    between atoms: C_21  and  C_25 
ROOT
ATOM      1  C   UNL d   1      61.936  45.552  49.920  0.00  0.00     0.168 A 
ATOM      2  N   UNL d   1      61.902  46.395  49.812  0.00  0.00    -0.184 N 
ATOM      3  C   UNL d   1      62.468  45.111  49.497  0.00  0.00     0.057 A 
ATOM      4  C   UNL d   1      61.368  46.820  50.240  0.00  0.00     0.218 A 
ATOM      5  N   UNL d   1      62.948  46.301  48.853  0.00  0.00    -0.160 NA
ATOM      6  N   UNL d   1      61.434  45.191  50.449  0.00  0.00    -0.227 NA
ATOM      7  C   UNL d   1      60.856  46.463  50.777  0.00  0.00     0.071 A 
ATOM      8  C   UNL d   1      62.981  45.484  48.957  0.00  0.00     0.124 A 
ATOM      9  C   UNL d   1      60.890  45.634  50.884  0.00  0.00     0.087 A 
ATOM     10  C   UNL d   1      60.359  45.253  51.443  0.00  0.00     0.021 C 
ENDROOT
BRANCH   4  11
ATOM     11  N   UNL d   1      61.331  47.671  50.133  0.00  0.00    -0.380 NA
BRANCH  11  12
ATOM     12  C   UNL d   1      61.188  48.502  49.970  0.00  0.00     0.164 C 
BRANCH  12  13
ATOM     13  C   UNL d   1      60.905  49.023  50.582  0.00  0.00     0.054 C 
BRANCH  13  14
ATOM     14  C   UNL d   1      60.419  49.704  50.390  0.00  0.00     0.083 C 
BRANCH  14  15
ATOM     15  N   UNL d   1      59.583  49.704  50.612  0.00  0.00    -0.299 N 
ATOM     16  C   UNL d   1      59.361  49.705  51.450  0.00  0.00     0.107 A 
ATOM     17  C   UNL d   1      58.531  49.705  51.666  0.00  0.00     0.142 A 
ATOM     18  O   UNL d   1      57.924  49.705  51.061  0.00  0.00    -0.300 OA
ATOM     19  C   UNL d   1      58.146  49.704  50.229  0.00  0.00     0.142 A 
ATOM     20  C   UNL d   1      58.981  49.704  50.001  0.00  0.00     0.107 A 
ENDBRANCH  14  15
ENDBRANCH  13  14
ENDBRANCH  12  13
ENDBRANCH  11  12
ENDBRANCH   4  11
BRANCH   3  21
ATOM     21  C   UNL d   1      62.501  44.293  49.603  0.00  0.00     0.005 A 
ATOM     22  C   UNL d   1      63.030  43.974  50.133  0.00  0.00     0.001 A 
ATOM     23  C   UNL d   1      63.063  43.170  50.236  0.00  0.00     0.011 A 
ATOM     24  C   UNL d   1      62.567  42.673  49.811  0.00  0.00     0.058 A 
ATOM     25  C   UNL d   1      62.038  42.993  49.280  0.00  0.00     0.011 A 
ATOM     26 CL   UNL d   1      62.602  41.818  49.921  0.00  0.00    -0.082 Cl
ATOM     27  C   UNL d   1      62.005  43.810  49.175  0.00  0.00     0.001 A 
ENDBRANCH   3  21
TORSDOF 6
ENDMDL
