MODEL 1
REMARK VINA RESULT:      -3.8      0.000      0.000
REMARK  4 active torsions:
REMARK  status: ('A' for Active; 'I' for Inactive)
REMARK    1  A    between atoms: O_8  and  C_1 
REMARK    2  A    between atoms: C_9  and  C_5 
REMARK    3  A    between atoms: C_11  and  O_8 
REMARK    4  A    between atoms: N_12  and  C_9 
ROOT
ATOM      1  C   UNL d   1      57.580   0.674  31.940  0.00  0.00     0.161 A 
ATOM      2  C   UNL d   1      59.002   0.669  31.075  0.00  0.00     0.108 A 
ATOM      3  C   UNL d   1      59.020   0.669  31.913  0.00  0.00     0.064 A 
ATOM      4  C   UNL d   1      58.309   0.671  32.342  0.00  0.00     0.222 A 
ATOM      5  C   UNL d   1      59.700   0.667  30.649  0.00  0.00     0.079 A 
ATOM      6  O   UNL d   1      58.272   0.671  30.676  0.00  0.00    -0.305 OA
ATOM      7  C   UNL d   1      57.561   0.674  31.109  0.00  0.00     0.126 A 
ATOM      8  C   UNL d   1      59.749   0.666  32.295  0.00  0.00     0.009 A 
ATOM      9  C   UNL d   1      60.424   0.664  31.036  0.00  0.00     0.199 A 
ATOM     10  O   UNL d   1      58.328   0.671  33.169  0.00  0.00    -0.284 OA
ATOM     11  C   UNL d   1      60.447   0.664  31.862  0.00  0.00     0.042 A 
ATOM     12  O   UNL d   1      61.127   0.662  30.603  0.00  0.00    -0.286 OA
ATOM     13  C   UNL d   1      56.836   0.676  30.707  0.00  0.00     0.029 C 
ENDROOT
BRANCH   1  14
ATOM     14  O   UNL d   1      56.877   0.676  32.373  0.00  0.00    -0.301 OA
BRANCH  14  15
ATOM     15  C   UNL d   1      56.505  -0.033  32.575  0.00  0.00     0.106 A 
ATOM     16  C   UNL d   1      55.878  -0.028  33.102  0.00  0.00     0.057 A 
ATOM     17 BR   UNL d   1      55.616   0.682  33.435  0.00  0.00    -0.047 Br
ATOM     18  C   UNL d   1      55.507  -0.740  33.303  0.00  0.00     0.009 A 
ATOM     19  C   UNL d   1      55.767  -1.454  32.972  0.00  0.00     0.001 A 
ATOM     20  C   UNL d   1      56.401  -1.449  32.438  0.00  0.00     0.002 A 
ATOM     21  C   UNL d   1      56.767  -0.740  32.242  0.00  0.00     0.025 A 
ENDBRANCH  14  15
ENDBRANCH   1  14
BRANCH   5  22
ATOM     22  C   UNL d   1      59.677   0.667  29.836  0.00  0.00     0.085 C 
BRANCH  22  23
ATOM     23  N   UNL d   1      59.774   0.020  29.349  0.00  0.00    -0.302 N 
ATOM     24  C   UNL d   1      60.439  -0.447  29.298  0.00  0.00     0.080 A 
ATOM     25  C   UNL d   1      60.297  -1.020  28.751  0.00  0.00     0.021 A 
ATOM     26  C   UNL d   1      59.561  -0.918  28.463  0.00  0.00     0.021 A 
ATOM     27  C   UNL d   1      59.228  -0.266  28.835  0.00  0.00     0.080 A 
ENDBRANCH  22  23
ENDBRANCH   5  22
TORSDOF 4
ENDMDL
MODEL 2
REMARK VINA RESULT:      -3.5      1.836      4.245
REMARK  4 active torsions:
REMARK  status: ('A' for Active; 'I' for Inactive)
REMARK    1  A    between atoms: O_8  and  C_1 
REMARK    2  A    between atoms: C_9  and  C_5 
REMARK    3  A    between atoms: C_11  and  O_8 
REMARK    4  A    between atoms: N_12  and  C_9 
ROOT
ATOM      1  C   UNL d   1      58.664   0.644  30.511  0.00  0.00     0.161 A 
ATOM      2  C   UNL d   1      57.739   0.642  31.895  0.00  0.00     0.108 A 
ATOM      3  C   UNL d   1      58.576   0.659  31.948  0.00  0.00     0.064 A 
ATOM      4  C   UNL d   1      59.035   0.660  31.257  0.00  0.00     0.222 A 
ATOM      5  C   UNL d   1      57.285   0.641  32.573  0.00  0.00     0.079 A 
ATOM      6  O   UNL d   1      57.373   0.625  31.148  0.00  0.00    -0.305 OA
ATOM      7  C   UNL d   1      57.835   0.626  30.457  0.00  0.00     0.126 A 
ATOM      8  C   UNL d   1      58.926   0.675  32.693  0.00  0.00     0.009 A 
ATOM      9  C   UNL d   1      57.639   0.657  33.314  0.00  0.00     0.199 A 
ATOM     10  O   UNL d   1      59.860   0.678  31.310  0.00  0.00    -0.284 OA
ATOM     11  C   UNL d   1      58.463   0.674  33.372  0.00  0.00     0.042 A 
ATOM     12  O   UNL d   1      57.176   0.656  33.997  0.00  0.00    -0.286 OA
ATOM     13  C   UNL d   1      57.465   0.610  29.715  0.00  0.00     0.029 C 
ENDROOT
BRANCH   1  14
ATOM     14  O   UNL d   1      59.127   0.645  29.828  0.00  0.00    -0.301 OA
BRANCH  14  15
ATOM     15  C   UNL d   1      59.352  -0.065  29.470  0.00  0.00     0.106 A 
ATOM     16  C   UNL d   1      59.934  -0.065  28.894  0.00  0.00     0.057 A 
ATOM     17 BR   UNL d   1      60.298   0.642  28.667  0.00  0.00    -0.047 Br
ATOM     18  C   UNL d   1      60.157  -0.777  28.537  0.00  0.00     0.009 A 
ATOM     19  C   UNL d   1      59.794  -1.488  28.762  0.00  0.00     0.001 A 
ATOM     20  C   UNL d   1      59.206  -1.479  29.346  0.00  0.00     0.002 A 
ATOM     21  C   UNL d   1      58.988  -0.769  29.697  0.00  0.00     0.025 A 
ENDBRANCH  14  15
ENDBRANCH   1  14
BRANCH   5  22
ATOM     22  C   UNL d   1      56.473   0.624  32.517  0.00  0.00     0.085 C 
BRANCH  22  23
ATOM     23  N   UNL d   1      55.978   0.050  32.819  0.00  0.00    -0.302 N 
ATOM     24  C   UNL d   1      55.985  -0.740  32.626  0.00  0.00     0.080 A 
ATOM     25  C   UNL d   1      55.408  -1.104  33.052  0.00  0.00     0.021 A 
ATOM     26  C   UNL d   1      55.044  -0.557  33.503  0.00  0.00     0.021 A 
ATOM     27  C   UNL d   1      55.398   0.170  33.361  0.00  0.00     0.080 A 
ENDBRANCH  22  23
ENDBRANCH   5  22
TORSDOF 4
ENDMDL
MODEL 3
REMARK VINA RESULT:      -2.8      0.926      1.693
REMARK  4 active torsions:
REMARK  status: ('A' for Active; 'I' for Inactive)
REMARK    1  A    between atoms: O_8  and  C_1 
REMARK    2  A    between atoms: C_9  and  C_5 
REMARK    3  A    between atoms: C_11  and  O_8 
REMARK    4  A    between atoms: N_12  and  C_9 
ROOT
ATOM      1  C   UNL d   1      57.391   0.507  31.848  0.00  0.00     0.161 A 
ATOM      2  C   UNL d   1      58.394   0.506  30.519  0.00  0.00     0.108 A 
ATOM      3  C   UNL d   1      57.565   0.595  30.421  0.00  0.00     0.064 A 
ATOM      4  C   UNL d   1      57.068   0.595  31.085  0.00  0.00     0.222 A 
ATOM      5  C   UNL d   1      58.886   0.506  29.868  0.00  0.00     0.079 A 
ATOM      6  O   UNL d   1      58.713   0.419  31.283  0.00  0.00    -0.305 OA
ATOM      7  C   UNL d   1      58.211   0.420  31.946  0.00  0.00     0.126 A 
ATOM      8  C   UNL d   1      57.263   0.680  29.660  0.00  0.00     0.009 A 
ATOM      9  C   UNL d   1      58.579   0.591  29.111  0.00  0.00     0.199 A 
ATOM     10  O   UNL d   1      56.251   0.682  30.987  0.00  0.00    -0.284 OA
ATOM     11  C   UNL d   1      57.764   0.679  29.009  0.00  0.00     0.042 A 
ATOM     12  O   UNL d   1      59.080   0.590  28.455  0.00  0.00    -0.286 OA
ATOM     13  C   UNL d   1      58.534   0.332  32.705  0.00  0.00     0.029 C 
ENDROOT
BRANCH   1  14
ATOM     14  O   UNL d   1      56.890   0.508  32.504  0.00  0.00    -0.301 OA
BRANCH  14  15
ATOM     15  C   UNL d   1      56.469  -0.171  32.714  0.00  0.00     0.106 A 
ATOM     16  C   UNL d   1      55.952  -0.151  33.348  0.00  0.00     0.057 A 
ATOM     17 BR   UNL d   1      55.847   0.547  33.780  0.00  0.00    -0.047 Br
ATOM     18  C   UNL d   1      55.532  -0.832  33.556  0.00  0.00     0.009 A 
ATOM     19  C   UNL d   1      55.634  -1.533  33.125  0.00  0.00     0.001 A 
ATOM     20  C   UNL d   1      56.160  -1.545  32.485  0.00  0.00     0.002 A 
ATOM     21  C   UNL d   1      56.575  -0.865  32.281  0.00  0.00     0.025 A 
ENDBRANCH  14  15
ENDBRANCH   1  14
BRANCH   5  22
ATOM     22  C   UNL d   1      59.690   0.419  29.968  0.00  0.00     0.085 C 
BRANCH  22  23
ATOM     23  N   UNL d   1      60.142  -0.216  29.731  0.00  0.00    -0.302 N 
ATOM     24  C   UNL d   1      60.885  -0.404  30.003  0.00  0.00     0.080 A 
ATOM     25  C   UNL d   1      61.126  -1.071  29.624  0.00  0.00     0.021 A 
ATOM     26  C   UNL d   1      60.549  -1.300  29.124  0.00  0.00     0.021 A 
ATOM     27  C   UNL d   1      59.928  -0.767  29.187  0.00  0.00     0.080 A 
ENDBRANCH  22  23
ENDBRANCH   5  22
TORSDOF 4
ENDMDL
