MODEL 1
REMARK VINA RESULT:      -4.3      0.000      0.000
REMARK  6 active torsions:
REMARK  status: ('A' for Active; 'I' for Inactive)
REMARK    1  A    between atoms: N_4  and  C_1 
REMARK    2  A    between atoms: C_10  and  C_3 
REMARK       I    between atoms: C_9  and  N_4 
REMARK       I    between atoms: N_7  and  C_8 
REMARK    3  A    between atoms: C_8  and  C_15 
REMARK    4  A    between atoms: C_16  and  C_9 
REMARK    5  A    between atoms: S_14  and  C_16 
REMARK    6  A    between atoms: C_15  and  S_14 
ROOT
ATOM      1  N   UNL d   1     -45.225  13.295  21.677  0.00  0.00    -0.182 NA
ATOM      2  C   UNL d   1     -44.532  12.884  21.772  0.00  0.00     0.288 C 
ATOM      3  O   UNL d   1     -44.416  12.408  22.435  0.00  0.00    -0.265 OA
ENDROOT
BRANCH   2   4
ATOM      4  C   UNL d   1     -43.938  12.942  21.200  0.00  0.00     0.098 C 
BRANCH   4   5
ATOM      5  S   UNL d   1     -43.142  13.054  21.529  0.00  0.00    -0.076 SA
BRANCH   5   6
ATOM      6  C   UNL d   1     -42.520  13.419  21.046  0.00  0.00     0.097 C 
BRANCH   6   7
ATOM      7  C   UNL d   1     -41.720  13.504  21.366  0.00  0.00     0.272 C 
ATOM      8  N   UNL d   1     -41.149  14.034  20.987  0.00  0.00    -0.267 N 
ATOM      9  C   UNL d   1     -41.381  14.482  20.281  0.00  0.00     0.110 A 
ATOM     10  C   UNL d   1     -40.349  14.112  21.315  0.00  0.00     0.110 A 
ATOM     11  C   UNL d   1     -40.814  15.012  19.900  0.00  0.00     0.142 A 
ATOM     12  O   UNL d   1     -40.015  15.095  20.220  0.00  0.00    -0.300 OA
ATOM     13  C   UNL d   1     -39.779  14.649  20.925  0.00  0.00     0.142 A 
ATOM     14  O   UNL d   1     -41.488  13.055  22.072  0.00  0.00    -0.266 OA
ENDBRANCH   6   7
ENDBRANCH   5   6
ENDBRANCH   4   5
ENDBRANCH   2   4
BRANCH   1  15
ATOM     15  C   UNL d   1     -45.821  13.239  22.246  0.00  0.00     0.197 A 
ATOM     16  N   UNL d   1     -46.474  12.734  22.208  0.00  0.00    -0.221 NA
ATOM     17  C   UNL d   1     -46.927  12.856  22.887  0.00  0.00     0.090 A 
ATOM     18  C   UNL d   1     -46.550  13.435  23.337  0.00  0.00     0.058 A 
ATOM     19  S   UNL d   1     -45.876  13.667  22.945  0.00  0.00    -0.046 SA
BRANCH  17  20
ATOM     20  C   UNL d   1     -47.620  12.472  23.073  0.00  0.00     0.018 A 
ATOM     21  C   UNL d   1     -47.603  11.790  23.509  0.00  0.00     0.002 A 
ATOM     22  C   UNL d   1     -48.305  11.400  23.697  0.00  0.00     0.000 A 
ATOM     23  C   UNL d   1     -49.022  11.705  23.442  0.00  0.00     0.000 A 
ATOM     24  C   UNL d   1     -49.043  12.399  22.998  0.00  0.00     0.000 A 
ATOM     25  C   UNL d   1     -48.338  12.780  22.815  0.00  0.00     0.002 A 
ENDBRANCH  17  20
ENDBRANCH   1  15
TORSDOF 6
ENDMDL
MODEL 2
REMARK VINA RESULT:      -3.9      1.411      1.945
REMARK  6 active torsions:
REMARK  status: ('A' for Active; 'I' for Inactive)
REMARK    1  A    between atoms: N_4  and  C_1 
REMARK    2  A    between atoms: C_10  and  C_3 
REMARK       I    between atoms: C_9  and  N_4 
REMARK       I    between atoms: N_7  and  C_8 
REMARK    3  A    between atoms: C_8  and  C_15 
REMARK    4  A    between atoms: C_16  and  C_9 
REMARK    5  A    between atoms: S_14  and  C_16 
REMARK    6  A    between atoms: C_15  and  S_14 
ROOT
ATOM      1  N   UNL d   1     -43.754  12.543  21.446  0.00  0.00    -0.182 NA
ATOM      2  C   UNL d   1     -43.217  13.150  21.436  0.00  0.00     0.288 C 
ATOM      3  O   UNL d   1     -43.343  13.828  21.888  0.00  0.00    -0.265 OA
ENDROOT
BRANCH   2   4
ATOM      4  C   UNL d   1     -42.538  13.090  20.968  0.00  0.00     0.098 C 
BRANCH   4   5
ATOM      5  S   UNL d   1     -42.035  13.798  20.984  0.00  0.00    -0.076 SA
BRANCH   5   6
ATOM      6  C   UNL d   1     -41.380  13.878  20.420  0.00  0.00     0.097 C 
BRANCH   6   7
ATOM      7  C   UNL d   1     -40.897  14.597  20.420  0.00  0.00     0.272 C 
ATOM      8  N   UNL d   1     -40.444  14.822  19.717  0.00  0.00    -0.267 N 
ATOM      9  C   UNL d   1     -40.474  14.322  19.007  0.00  0.00     0.110 A 
ATOM     10  C   UNL d   1     -39.963  15.544  19.726  0.00  0.00     0.110 A 
ATOM     11  C   UNL d   1     -40.023  14.543  18.304  0.00  0.00     0.142 A 
ATOM     12  O   UNL d   1     -39.541  15.261  18.305  0.00  0.00    -0.300 OA
ATOM     13  C   UNL d   1     -39.508  15.763  19.012  0.00  0.00     0.142 A 
ATOM     14  O   UNL d   1     -40.867  15.096  21.129  0.00  0.00    -0.266 OA
ENDBRANCH   6   7
ENDBRANCH   5   6
ENDBRANCH   4   5
ENDBRANCH   2   4
BRANCH   1  15
ATOM     15  C   UNL d   1     -44.434  12.599  21.912  0.00  0.00     0.197 A 
ATOM     16  N   UNL d   1     -45.059  13.123  21.785  0.00  0.00    -0.221 NA
ATOM     17  C   UNL d   1     -45.621  12.995  22.376  0.00  0.00     0.090 A 
ATOM     18  C   UNL d   1     -45.337  12.392  22.862  0.00  0.00     0.058 A 
ATOM     19  S   UNL d   1     -44.613  12.152  22.577  0.00  0.00    -0.046 SA
BRANCH  17  20
ATOM     20  C   UNL d   1     -46.325  13.394  22.459  0.00  0.00     0.018 A 
ATOM     21  C   UNL d   1     -46.344  14.115  22.827  0.00  0.00     0.002 A 
ATOM     22  C   UNL d   1     -47.057  14.519  22.912  0.00  0.00     0.000 A 
ATOM     23  C   UNL d   1     -47.750  14.190  22.622  0.00  0.00     0.000 A 
ATOM     24  C   UNL d   1     -47.734  13.456  22.247  0.00  0.00     0.000 A 
ATOM     25  C   UNL d   1     -47.018  13.061  22.168  0.00  0.00     0.002 A 
ENDBRANCH  17  20
ENDBRANCH   1  15
TORSDOF 6
ENDMDL
MODEL 3
REMARK VINA RESULT:      -3.8      1.773      6.923
REMARK  6 active torsions:
REMARK  status: ('A' for Active; 'I' for Inactive)
REMARK    1  A    between atoms: N_4  and  C_1 
REMARK    2  A    between atoms: C_10  and  C_3 
REMARK       I    between atoms: C_9  and  N_4 
REMARK       I    between atoms: N_7  and  C_8 
REMARK    3  A    between atoms: C_8  and  C_15 
REMARK    4  A    between atoms: C_16  and  C_9 
REMARK    5  A    between atoms: S_14  and  C_16 
REMARK    6  A    between atoms: C_15  and  S_14 
ROOT
ATOM      1  N   UNL d   1     -41.563  14.451  20.741  0.00  0.00    -0.182 NA
ATOM      2  C   UNL d   1     -41.990  13.781  20.904  0.00  0.00     0.288 C 
ATOM      3  O   UNL d   1     -41.752  13.050  20.604  0.00  0.00    -0.265 OA
ENDROOT
BRANCH   2   4
ATOM      4  C   UNL d   1     -42.669  13.830  21.374  0.00  0.00     0.098 C 
BRANCH   4   5
ATOM      5  S   UNL d   1     -43.144  13.103  21.383  0.00  0.00    -0.076 SA
BRANCH   5   6
ATOM      6  C   UNL d   1     -43.998  13.145  21.537  0.00  0.00     0.097 C 
BRANCH   6   7
ATOM      7  C   UNL d   1     -44.365  12.584  22.084  0.00  0.00     0.272 C 
ATOM      8  N   UNL d   1     -45.160  12.730  22.396  0.00  0.00    -0.267 N 
ATOM      9  C   UNL d   1     -45.591  13.445  22.158  0.00  0.00     0.110 A 
ATOM     10  C   UNL d   1     -45.520  12.161  22.944  0.00  0.00     0.110 A 
ATOM     11  C   UNL d   1     -46.384  13.594  22.466  0.00  0.00     0.142 A 
ATOM     12  O   UNL d   1     -46.750  13.032  23.013  0.00  0.00    -0.300 OA
ATOM     13  C   UNL d   1     -46.323  12.317  23.253  0.00  0.00     0.142 A 
ATOM     14  O   UNL d   1     -43.934  11.869  22.322  0.00  0.00    -0.266 OA
ENDBRANCH   6   7
ENDBRANCH   5   6
ENDBRANCH   4   5
ENDBRANCH   2   4
BRANCH   1  15
ATOM     15  C   UNL d   1     -40.885  14.405  20.272  0.00  0.00     0.197 A 
ATOM     16  N   UNL d   1     -40.874  14.381  19.446  0.00  0.00    -0.221 NA
ATOM     17  C   UNL d   1     -40.086  14.337  19.205  0.00  0.00     0.090 A 
ATOM     18  C   UNL d   1     -39.618  14.334  19.884  0.00  0.00     0.058 A 
ATOM     19  S   UNL d   1     -40.107  14.376  20.533  0.00  0.00    -0.046 SA
BRANCH  17  20
ATOM     20  C   UNL d   1     -39.824  14.303  18.435  0.00  0.00     0.018 A 
ATOM     21  C   UNL d   1     -39.341  13.699  18.196  0.00  0.00     0.002 A 
ATOM     22  C   UNL d   1     -39.076  13.664  17.417  0.00  0.00     0.000 A 
ATOM     23  C   UNL d   1     -39.303  14.243  16.881  0.00  0.00     0.000 A 
ATOM     24  C   UNL d   1     -39.795  14.859  17.122  0.00  0.00     0.000 A 
ATOM     25  C   UNL d   1     -40.053  14.885  17.902  0.00  0.00     0.002 A 
ENDBRANCH  17  20
ENDBRANCH   1  15
TORSDOF 6
ENDMDL
