MODEL 1
REMARK VINA RESULT:      -3.2      0.000      0.000
REMARK  3 active torsions:
REMARK  status: ('A' for Active; 'I' for Inactive)
REMARK    1  A    between atoms: N_9  and  C_2 
REMARK    2  A    between atoms: C_11  and  N_9 
REMARK    3  A    between atoms: O_14  and  C_13 
ROOT
ATOM      1  C   UNL d   1      29.678  16.330 -23.828  0.00  0.00     0.154 A 
ATOM      2  C   UNL d   1      30.236  16.773 -24.236  0.00  0.00     0.185 A 
ATOM      3  C   UNL d   1      28.884  16.555 -23.836  0.00  0.00     0.186 A 
ATOM      4  N   UNL d   1      29.746  15.646 -23.372  0.00  0.00    -0.218 NA
ATOM      5  N   UNL d   1      28.464  16.010 -23.384  0.00  0.00    -0.203 NA
ATOM      6  N   UNL d   1      30.002  17.445 -24.654  0.00  0.00    -0.203 NA
ATOM      7  N   UNL d   1      28.649  17.224 -24.251  0.00  0.00    -0.203 NA
ATOM      8  C   UNL d   1      28.989  15.453 -23.100  0.00  0.00     0.201 A 
ATOM      9  C   UNL d   1      29.208  17.671 -24.661  0.00  0.00     0.202 A 
ENDROOT
BRANCH   2  10
ATOM     10  N   UNL d   1      31.029  16.548 -24.229  0.00  0.00    -0.225 NA
BRANCH  10  11
ATOM     11  C   UNL d   1      31.621  17.118 -24.242  0.00  0.00     0.085 A 
ATOM     12  C   UNL d   1      31.925  17.410 -23.532  0.00  0.00     0.043 A 
ATOM     13  C   UNL d   1      32.519  17.983 -23.542  0.00  0.00     0.096 A 
ATOM     14  C   UNL d   1      32.809  18.264 -24.261  0.00  0.00     0.024 A 
ATOM     15  C   UNL d   1      32.499  17.966 -24.975  0.00  0.00     0.004 A 
ATOM     16  C   UNL d   1      31.911  17.399 -24.961  0.00  0.00     0.019 A 
BRANCH  13  17
ATOM     17  O   UNL d   1      32.825  18.277 -22.826  0.00  0.00    -0.328 OA
ATOM     18  C   UNL d   1      32.960  19.086 -22.735  0.00  0.00     0.181 C 
ENDBRANCH  13  17
ENDBRANCH  10  11
ENDBRANCH   2  10
TORSDOF 3
ENDMDL
MODEL 2
REMARK VINA RESULT:      -2.7      0.885      1.545
REMARK  3 active torsions:
REMARK  status: ('A' for Active; 'I' for Inactive)
REMARK    1  A    between atoms: N_9  and  C_2 
REMARK    2  A    between atoms: C_11  and  N_9 
REMARK    3  A    between atoms: O_14  and  C_13 
ROOT
ATOM      1  C   UNL d   1      29.821  16.304 -24.205  0.00  0.00     0.154 A 
ATOM      2  C   UNL d   1      30.556  16.109 -23.896  0.00  0.00     0.185 A 
ATOM      3  C   UNL d   1      29.133  16.098 -23.798  0.00  0.00     0.186 A 
ATOM      4  N   UNL d   1      29.601  16.695 -24.897  0.00  0.00    -0.218 NA
ATOM      5  N   UNL d   1      28.490  16.363 -24.239  0.00  0.00    -0.203 NA
ATOM      6  N   UNL d   1      30.607  15.708 -23.177  0.00  0.00    -0.203 NA
ATOM      7  N   UNL d   1      29.181  15.699 -23.082  0.00  0.00    -0.203 NA
ATOM      8  C   UNL d   1      28.775  16.728 -24.912  0.00  0.00     0.201 A 
ATOM      9  C   UNL d   1      29.920  15.503 -22.770  0.00  0.00     0.202 A 
ENDROOT
BRANCH   2  10
ATOM     10  N   UNL d   1      31.243  16.315 -24.303  0.00  0.00    -0.225 NA
BRANCH  10  11
ATOM     11  C   UNL d   1      31.905  16.575 -23.892  0.00  0.00     0.085 A 
ATOM     12  C   UNL d   1      31.958  17.365 -23.657  0.00  0.00     0.043 A 
ATOM     13  C   UNL d   1      32.622  17.629 -23.244  0.00  0.00     0.096 A 
ATOM     14  C   UNL d   1      33.233  17.103 -23.065  0.00  0.00     0.024 A 
ATOM     15  C   UNL d   1      33.174  16.307 -23.304  0.00  0.00     0.004 A 
ATOM     16  C   UNL d   1      32.515  16.050 -23.713  0.00  0.00     0.019 A 
BRANCH  13  17
ATOM     17  O   UNL d   1      32.675  18.425 -23.008  0.00  0.00    -0.328 OA
ATOM     18  C   UNL d   1      32.952  18.995 -23.536  0.00  0.00     0.181 C 
ENDBRANCH  13  17
ENDBRANCH  10  11
ENDBRANCH   2  10
TORSDOF 3
ENDMDL
MODEL 3
REMARK VINA RESULT:      -2.6      1.868      3.869
REMARK  3 active torsions:
REMARK  status: ('A' for Active; 'I' for Inactive)
REMARK    1  A    between atoms: N_9  and  C_2 
REMARK    2  A    between atoms: C_11  and  N_9 
REMARK    3  A    between atoms: O_14  and  C_13 
ROOT
ATOM      1  C   UNL d   1      32.573  18.363 -24.344  0.00  0.00     0.154 A 
ATOM      2  C   UNL d   1      32.280  17.666 -24.024  0.00  0.00     0.185 A 
ATOM      3  C   UNL d   1      33.027  18.873 -23.881  0.00  0.00     0.186 A 
ATOM      4  N   UNL d   1      32.504  18.694 -25.096  0.00  0.00    -0.218 NA
ATOM      5  N   UNL d   1      33.238  19.518 -24.348  0.00  0.00    -0.203 NA
ATOM      6  N   UNL d   1      32.441  17.474 -23.238  0.00  0.00    -0.203 NA
ATOM      7  N   UNL d   1      33.189  18.685 -23.098  0.00  0.00    -0.203 NA
ATOM      8  C   UNL d   1      32.919  19.410 -25.092  0.00  0.00     0.201 A 
ATOM      9  C   UNL d   1      32.895  17.984 -22.775  0.00  0.00     0.202 A 
ENDROOT
BRANCH   2  10
ATOM     10  N   UNL d   1      31.826  17.156 -24.488  0.00  0.00    -0.225 NA
BRANCH  10  11
ATOM     11  C   UNL d   1      31.244  16.691 -24.142  0.00  0.00     0.085 A 
ATOM     12  C   UNL d   1      30.462  16.955 -24.129  0.00  0.00     0.043 A 
ATOM     13  C   UNL d   1      29.875  16.490 -23.782  0.00  0.00     0.096 A 
ATOM     14  C   UNL d   1      30.070  15.761 -23.447  0.00  0.00     0.024 A 
ATOM     15  C   UNL d   1      30.861  15.500 -23.462  0.00  0.00     0.004 A 
ATOM     16  C   UNL d   1      31.440  15.963 -23.807  0.00  0.00     0.019 A 
BRANCH  13  17
ATOM     17  O   UNL d   1      29.087  16.756 -23.770  0.00  0.00    -0.328 OA
ATOM     18  C   UNL d   1      28.471  16.220 -23.655  0.00  0.00     0.181 C 
ENDBRANCH  13  17
ENDBRANCH  10  11
ENDBRANCH   2  10
TORSDOF 3
ENDMDL
MODEL 4
REMARK VINA RESULT:      -2.4      1.747      3.560
REMARK  3 active torsions:
REMARK  status: ('A' for Active; 'I' for Inactive)
REMARK    1  A    between atoms: N_9  and  C_2 
REMARK    2  A    between atoms: C_11  and  N_9 
REMARK    3  A    between atoms: O_14  and  C_13 
ROOT
ATOM      1  C   UNL d   1      32.128  16.861 -23.682  0.00  0.00     0.154 A 
ATOM      2  C   UNL d   1      31.438  16.674 -24.085  0.00  0.00     0.185 A 
ATOM      3  C   UNL d   1      32.480  17.600 -23.785  0.00  0.00     0.186 A 
ATOM      4  N   UNL d   1      32.587  16.431 -23.149  0.00  0.00    -0.218 NA
ATOM      5  N   UNL d   1      33.156  17.625 -23.315  0.00  0.00    -0.203 NA
ATOM      6  N   UNL d   1      31.095  17.227 -24.593  0.00  0.00    -0.203 NA
ATOM      7  N   UNL d   1      32.141  18.152 -24.290  0.00  0.00    -0.203 NA
ATOM      8  C   UNL d   1      33.223  16.910 -22.925  0.00  0.00     0.201 A 
ATOM      9  C   UNL d   1      31.447  17.966 -24.696  0.00  0.00     0.202 A 
ENDROOT
BRANCH   2  10
ATOM     10  N   UNL d   1      31.086  15.935 -23.982  0.00  0.00    -0.225 NA
BRANCH  10  11
ATOM     11  C   UNL d   1      30.283  15.836 -24.125  0.00  0.00     0.085 A 
ATOM     12  C   UNL d   1      29.735  16.021 -23.536  0.00  0.00     0.043 A 
ATOM     13  C   UNL d   1      28.928  15.923 -23.677  0.00  0.00     0.096 A 
ATOM     14  C   UNL d   1      28.668  15.640 -24.407  0.00  0.00     0.024 A 
ATOM     15  C   UNL d   1      29.225  15.454 -24.999  0.00  0.00     0.004 A 
ATOM     16  C   UNL d   1      30.024  15.553 -24.856  0.00  0.00     0.019 A 
BRANCH  13  17
ATOM     17  O   UNL d   1      28.377  16.109 -23.082  0.00  0.00    -0.328 OA
ATOM     18  C   UNL d   1      27.771  16.649 -23.234  0.00  0.00     0.181 C 
ENDBRANCH  13  17
ENDBRANCH  10  11
ENDBRANCH   2  10
TORSDOF 3
ENDMDL
MODEL 5
REMARK VINA RESULT:      -2.1      2.675      4.462
REMARK  3 active torsions:
REMARK  status: ('A' for Active; 'I' for Inactive)
REMARK    1  A    between atoms: N_9  and  C_2 
REMARK    2  A    between atoms: C_11  and  N_9 
REMARK    3  A    between atoms: O_14  and  C_13 
ROOT
ATOM      1  C   UNL d   1      33.241  20.108 -22.849  0.00  0.00     0.154 A 
ATOM      2  C   UNL d   1      33.241  19.287 -22.880  0.00  0.00     0.185 A 
ATOM      3  C   UNL d   1      33.241  20.495 -22.121  0.00  0.00     0.186 A 
ATOM      4  N   UNL d   1      33.240  20.680 -23.443  0.00  0.00    -0.218 NA
ATOM      5  N   UNL d   1      33.241  21.305 -22.266  0.00  0.00    -0.203 NA
ATOM      6  N   UNL d   1      33.241  18.849 -22.181  0.00  0.00    -0.203 NA
ATOM      7  N   UNL d   1      33.241  20.061 -21.423  0.00  0.00    -0.203 NA
ATOM      8  C   UNL d   1      33.240  21.420 -23.075  0.00  0.00     0.201 A 
ATOM      9  C   UNL d   1      33.241  19.236 -21.452  0.00  0.00     0.202 A 
ENDROOT
BRANCH   2  10
ATOM     10  N   UNL d   1      33.240  18.900 -23.609  0.00  0.00    -0.225 NA
BRANCH  10  11
ATOM     11  C   UNL d   1      32.824  18.198 -23.703  0.00  0.00     0.085 A 
ATOM     12  C   UNL d   1      32.053  18.215 -23.998  0.00  0.00     0.043 A 
ATOM     13  C   UNL d   1      31.633  17.511 -24.094  0.00  0.00     0.096 A 
ATOM     14  C   UNL d   1      31.983  16.791 -23.896  0.00  0.00     0.024 A 
ATOM     15  C   UNL d   1      32.762  16.779 -23.599  0.00  0.00     0.004 A 
ATOM     16  C   UNL d   1      33.175  17.478 -23.505  0.00  0.00     0.019 A 
BRANCH  13  17
ATOM     17  O   UNL d   1      30.856  17.528 -24.391  0.00  0.00    -0.328 OA
ATOM     18  C   UNL d   1      30.545  16.868 -24.775  0.00  0.00     0.181 C 
ENDBRANCH  13  17
ENDBRANCH  10  11
ENDBRANCH   2  10
TORSDOF 3
ENDMDL
MODEL 6
REMARK VINA RESULT:      -1.7      4.451      6.198
REMARK  3 active torsions:
REMARK  status: ('A' for Active; 'I' for Inactive)
REMARK    1  A    between atoms: N_9  and  C_2 
REMARK    2  A    between atoms: C_11  and  N_9 
REMARK    3  A    between atoms: O_14  and  C_13 
ROOT
ATOM      1  C   UNL d   1      33.148  20.617 -22.110  0.00  0.00     0.154 A 
ATOM      2  C   UNL d   1      33.210  21.194 -21.529  0.00  0.00     0.185 A 
ATOM      3  C   UNL d   1      33.117  19.820 -21.900  0.00  0.00     0.186 A 
ATOM      4  N   UNL d   1      33.107  20.667 -22.932  0.00  0.00    -0.218 NA
ATOM      5  N   UNL d   1      33.057  19.379 -22.593  0.00  0.00    -0.203 NA
ATOM      6  N   UNL d   1      33.241  20.975 -20.734  0.00  0.00    -0.203 NA
ATOM      7  N   UNL d   1      33.148  19.599 -21.110  0.00  0.00    -0.203 NA
ATOM      8  C   UNL d   1      33.051  19.896 -23.226  0.00  0.00     0.201 A 
ATOM      9  C   UNL d   1      33.209  20.178 -20.524  0.00  0.00     0.202 A 
ENDROOT
BRANCH   2  10
ATOM     10  N   UNL d   1      33.241  21.991 -21.739  0.00  0.00    -0.225 NA
BRANCH  10  11
ATOM     11  C   UNL d   1      32.863  22.555 -21.276  0.00  0.00     0.085 A 
ATOM     12  C   UNL d   1      33.195  22.783 -20.555  0.00  0.00     0.043 A 
ATOM     13  C   UNL d   1      32.817  23.349 -20.088  0.00  0.00     0.096 A 
ATOM     14  C   UNL d   1      32.108  23.687 -20.342  0.00  0.00     0.024 A 
ATOM     15  C   UNL d   1      31.778  23.454 -21.070  0.00  0.00     0.004 A 
ATOM     16  C   UNL d   1      32.155  22.893 -21.530  0.00  0.00     0.019 A 
BRANCH  13  17
ATOM     17  O   UNL d   1      33.151  23.578 -19.361  0.00  0.00    -0.328 OA
ATOM     18  C   UNL d   1      32.707  23.530 -18.668  0.00  0.00     0.181 C 
ENDBRANCH  13  17
ENDBRANCH  10  11
ENDBRANCH   2  10
TORSDOF 3
ENDMDL
MODEL 7
REMARK VINA RESULT:      -1.7      2.019      2.888
REMARK  3 active torsions:
REMARK  status: ('A' for Active; 'I' for Inactive)
REMARK    1  A    between atoms: N_9  and  C_2 
REMARK    2  A    between atoms: C_11  and  N_9 
REMARK    3  A    between atoms: O_14  and  C_13 
ROOT
ATOM      1  C   UNL d   1      32.452  17.129 -23.659  0.00  0.00     0.154 A 
ATOM      2  C   UNL d   1      32.606  17.935 -23.651  0.00  0.00     0.185 A 
ATOM      3  C   UNL d   1      31.898  16.818 -24.185  0.00  0.00     0.186 A 
ATOM      4  N   UNL d   1      32.760  16.506 -23.213  0.00  0.00    -0.218 NA
ATOM      5  N   UNL d   1      31.864  16.004 -24.063  0.00  0.00    -0.203 NA
ATOM      6  N   UNL d   1      32.206  18.435 -24.171  0.00  0.00    -0.203 NA
ATOM      7  N   UNL d   1      31.498  17.313 -24.703  0.00  0.00    -0.203 NA
ATOM      8  C   UNL d   1      32.391  15.812 -23.470  0.00  0.00     0.201 A 
ATOM      9  C   UNL d   1      31.652  18.125 -24.697  0.00  0.00     0.202 A 
ENDROOT
BRANCH   2  10
ATOM     10  N   UNL d   1      33.161  18.246 -23.125  0.00  0.00    -0.225 NA
BRANCH  10  11
ATOM     11  C   UNL d   1      33.161  19.048 -22.951  0.00  0.00     0.085 A 
ATOM     12  C   UNL d   1      33.080  19.299 -22.169  0.00  0.00     0.043 A 
ATOM     13  C   UNL d   1      33.080  20.106 -21.992  0.00  0.00     0.096 A 
ATOM     14  C   UNL d   1      33.160  20.661 -22.597  0.00  0.00     0.024 A 
ATOM     15  C   UNL d   1      33.241  20.403 -23.385  0.00  0.00     0.004 A 
ATOM     16  C   UNL d   1      33.241  19.604 -23.556  0.00  0.00     0.019 A 
BRANCH  13  17
ATOM     17  O   UNL d   1      32.999  20.357 -21.203  0.00  0.00    -0.328 OA
ATOM     18  C   UNL d   1      32.986  21.163 -21.025  0.00  0.00     0.181 C 
ENDBRANCH  13  17
ENDBRANCH  10  11
ENDBRANCH   2  10
TORSDOF 3
ENDMDL
MODEL 8
REMARK VINA RESULT:      -0.6      4.659      6.273
REMARK  3 active torsions:
REMARK  status: ('A' for Active; 'I' for Inactive)
REMARK    1  A    between atoms: N_9  and  C_2 
REMARK    2  A    between atoms: C_11  and  N_9 
REMARK    3  A    between atoms: O_14  and  C_13 
ROOT
ATOM      1  C   UNL d   1      32.800  22.395 -20.101  0.00  0.00     0.154 A 
ATOM      2  C   UNL d   1      32.607  22.023 -20.808  0.00  0.00     0.185 A 
ATOM      3  C   UNL d   1      32.743  23.215 -20.036  0.00  0.00     0.186 A 
ATOM      4  N   UNL d   1      33.061  22.098 -19.378  0.00  0.00    -0.218 NA
ATOM      5  N   UNL d   1      32.970  23.424 -19.273  0.00  0.00    -0.203 NA
ATOM      6  N   UNL d   1      32.356  22.472 -21.453  0.00  0.00    -0.203 NA
ATOM      7  N   UNL d   1      32.493  23.664 -20.677  0.00  0.00    -0.203 NA
ATOM      8  C   UNL d   1      33.165  22.742 -18.868  0.00  0.00     0.201 A 
ATOM      9  C   UNL d   1      32.299  23.292 -21.388  0.00  0.00     0.202 A 
ENDROOT
BRANCH   2  10
ATOM     10  N   UNL d   1      32.664  21.203 -20.873  0.00  0.00    -0.225 NA
BRANCH  10  11
ATOM     11  C   UNL d   1      32.856  20.858 -21.593  0.00  0.00     0.085 A 
ATOM     12  C   UNL d   1      32.854  20.036 -21.668  0.00  0.00     0.043 A 
ATOM     13  C   UNL d   1      33.047  19.687 -22.391  0.00  0.00     0.096 A 
ATOM     14  C   UNL d   1      33.241  20.160 -23.039  0.00  0.00     0.024 A 
ATOM     15  C   UNL d   1      33.241  20.989 -22.958  0.00  0.00     0.004 A 
ATOM     16  C   UNL d   1      33.050  21.331 -22.241  0.00  0.00     0.019 A 
BRANCH  13  17
ATOM     17  O   UNL d   1      33.045  18.858 -22.466  0.00  0.00    -0.328 OA
ATOM     18  C   UNL d   1      32.639  18.500 -23.088  0.00  0.00     0.181 C 
ENDBRANCH  13  17
ENDBRANCH  10  11
ENDBRANCH   2  10
TORSDOF 3
ENDMDL
MODEL 9
REMARK VINA RESULT:      -0.4      6.336      7.940
REMARK  3 active torsions:
REMARK  status: ('A' for Active; 'I' for Inactive)
REMARK    1  A    between atoms: N_9  and  C_2 
REMARK    2  A    between atoms: C_11  and  N_9 
REMARK    3  A    between atoms: O_14  and  C_13 
ROOT
ATOM      1  C   UNL d   1      32.750  21.890 -20.185  0.00  0.00     0.154 A 
ATOM      2  C   UNL d   1      32.819  22.531 -19.677  0.00  0.00     0.185 A 
ATOM      3  C   UNL d   1      32.354  21.970 -20.904  0.00  0.00     0.186 A 
ATOM      4  N   UNL d   1      33.016  21.111 -20.125  0.00  0.00    -0.218 NA
ATOM      5  N   UNL d   1      32.376  21.242 -21.287  0.00  0.00    -0.203 NA
ATOM      6  N   UNL d   1      32.490  23.259 -19.888  0.00  0.00    -0.203 NA
ATOM      7  N   UNL d   1      32.026  22.693 -21.116  0.00  0.00    -0.203 NA
ATOM      8  C   UNL d   1      32.781  20.715 -20.812  0.00  0.00     0.201 A 
ATOM      9  C   UNL d   1      32.094  23.340 -20.607  0.00  0.00     0.202 A 
ENDROOT
BRANCH   2  10
ATOM     10  N   UNL d   1      33.215  22.451 -18.958  0.00  0.00    -0.225 NA
BRANCH  10  11
ATOM     11  C   UNL d   1      32.914  22.802 -18.279  0.00  0.00     0.085 A 
ATOM     12  C   UNL d   1      33.226  22.603 -17.542  0.00  0.00     0.043 A 
ATOM     13  C   UNL d   1      32.926  22.955 -16.858  0.00  0.00     0.096 A 
ATOM     14  C   UNL d   1      32.313  23.505 -16.912  0.00  0.00     0.024 A 
ATOM     15  C   UNL d   1      32.002  23.702 -17.659  0.00  0.00     0.004 A 
ATOM     16  C   UNL d   1      32.302  23.352 -18.333  0.00  0.00     0.019 A 
BRANCH  13  17
ATOM     17  O   UNL d   1      33.241  22.753 -16.114  0.00  0.00    -0.328 OA
ATOM     18  C   UNL d   1      33.192  23.286 -15.486  0.00  0.00     0.181 C 
ENDBRANCH  13  17
ENDBRANCH  10  11
ENDBRANCH   2  10
TORSDOF 3
ENDMDL
