MODEL 1
REMARK VINA RESULT:      -8.8      0.000      0.000
REMARK  3 active torsions:
REMARK  status: ('A' for Active; 'I' for Inactive)
REMARK    1  A    between atoms: C_2  and  C_1 
REMARK    2  A    between atoms: N_3  and  C_1 
REMARK    3  A    between atoms: C_13  and  N_3 
ROOT
ATOM      1  C   UNL d   1      53.219  31.585  53.540  0.00  0.00     0.030 A 
ATOM      2  C   UNL d   1      53.305  30.271  54.111  0.00  0.00     0.119 A 
ATOM      3  C   UNL d   1      53.423  31.084  54.174  0.00  0.00     0.029 A 
ATOM      4  C   UNL d   1      52.982  29.961  53.416  0.00  0.00     0.119 A 
ATOM      5  O   UNL d   1      53.454  29.625  54.653  0.00  0.00    -0.300 OA
ATOM      6  O   UNL d   1      52.934  29.112  53.532  0.00  0.00    -0.300 OA
ATOM      7  C   UNL d   1      53.217  28.952  54.263  0.00  0.00     0.304 A 
ATOM      8  C   UNL d   1      52.899  31.269  52.851  0.00  0.00     0.004 A 
ATOM      9  C   UNL d   1      52.780  30.457  52.789  0.00  0.00     0.026 A 
ENDROOT
BRANCH   1  10
ATOM     10  C   UNL d   1      53.338  32.397  53.603  0.00  0.00     0.136 C 
ATOM     11  S   UNL d   1      54.070  32.724  53.406  0.00  0.00    -0.057 SA
BRANCH  10  12
ATOM     12  N   UNL d   1      52.716  32.887  53.866  0.00  0.00    -0.235 NA
BRANCH  12  13
ATOM     13  C   UNL d   1      52.836  33.701  53.942  0.00  0.00     0.082 A 
ATOM     14  C   UNL d   1      53.173  34.002  54.626  0.00  0.00     0.019 A 
ATOM     15  C   UNL d   1      53.293  34.817  54.702  0.00  0.00     0.002 A 
ATOM     16  C   UNL d   1      53.075  35.324  54.089  0.00  0.00     0.000 A 
ATOM     17  C   UNL d   1      52.735  35.016  53.400  0.00  0.00     0.002 A 
ATOM     18  C   UNL d   1      52.616  34.205  53.327  0.00  0.00     0.019 A 
ENDBRANCH  12  13
ENDBRANCH  10  12
ENDBRANCH   1  10
TORSDOF 3
ENDMDL
MODEL 2
REMARK VINA RESULT:      -8.6      2.035      4.262
REMARK  3 active torsions:
REMARK  status: ('A' for Active; 'I' for Inactive)
REMARK    1  A    between atoms: C_2  and  C_1 
REMARK    2  A    between atoms: N_3  and  C_1 
REMARK    3  A    between atoms: C_13  and  N_3 
ROOT
ATOM      1  C   UNL d   1      53.621  33.062  54.129  0.00  0.00     0.030 A 
ATOM      2  C   UNL d   1      53.119  34.406  54.173  0.00  0.00     0.119 A 
ATOM      3  C   UNL d   1      53.126  33.659  53.825  0.00  0.00     0.029 A 
ATOM      4  C   UNL d   1      53.608  34.554  54.824  0.00  0.00     0.119 A 
ATOM      5  O   UNL d   1      52.682  35.120  53.994  0.00  0.00    -0.300 OA
ATOM      6  O   UNL d   1      53.469  35.371  55.046  0.00  0.00    -0.300 OA
ATOM      7  C   UNL d   1      52.924  35.669  54.542  0.00  0.00     0.304 A 
ATOM      8  C   UNL d   1      54.105  33.217  54.776  0.00  0.00     0.004 A 
ATOM      9  C   UNL d   1      54.099  33.963  55.124  0.00  0.00     0.026 A 
ENDROOT
BRANCH   1  10
ATOM     10  C   UNL d   1      53.627  32.316  53.781  0.00  0.00     0.136 C 
ATOM     11  S   UNL d   1      54.272  32.078  53.323  0.00  0.00    -0.057 SA
BRANCH  10  12
ATOM     12  N   UNL d   1      52.979  31.802  53.894  0.00  0.00    -0.235 NA
BRANCH  12  13
ATOM     13  C   UNL d   1      53.030  31.014  53.647  0.00  0.00     0.082 A 
ATOM     14  C   UNL d   1      52.780  30.805  52.896  0.00  0.00     0.019 A 
ATOM     15  C   UNL d   1      52.831  30.017  52.649  0.00  0.00     0.002 A 
ATOM     16  C   UNL d   1      53.135  29.445  53.160  0.00  0.00     0.000 A 
ATOM     17  C   UNL d   1      53.387  29.660  53.918  0.00  0.00     0.002 A 
ATOM     18  C   UNL d   1      53.335  30.445  54.161  0.00  0.00     0.019 A 
ENDBRANCH  12  13
ENDBRANCH  10  12
ENDBRANCH   1  10
TORSDOF 3
ENDMDL
MODEL 3
REMARK VINA RESULT:      -8.2      2.408      3.262
REMARK  3 active torsions:
REMARK  status: ('A' for Active; 'I' for Inactive)
REMARK    1  A    between atoms: C_2  and  C_1 
REMARK    2  A    between atoms: N_3  and  C_1 
REMARK    3  A    between atoms: C_13  and  N_3 
ROOT
ATOM      1  C   UNL d   1      53.147  33.365  53.689  0.00  0.00     0.030 A 
ATOM      2  C   UNL d   1      54.101  33.783  54.677  0.00  0.00     0.119 A 
ATOM      3  C   UNL d   1      53.354  33.848  54.335  0.00  0.00     0.029 A 
ATOM      4  C   UNL d   1      54.639  33.234  54.373  0.00  0.00     0.119 A 
ATOM      5  O   UNL d   1      54.471  34.192  55.332  0.00  0.00    -0.300 OA
ATOM      6  O   UNL d   1      55.350  33.307  54.847  0.00  0.00    -0.300 OA
ATOM      7  C   UNL d   1      55.217  33.874  55.395  0.00  0.00     0.304 A 
ATOM      8  C   UNL d   1      53.689  32.820  53.391  0.00  0.00     0.004 A 
ATOM      9  C   UNL d   1      54.434  32.755  53.733  0.00  0.00     0.026 A 
ENDROOT
BRANCH   1  10
ATOM     10  C   UNL d   1      52.402  33.430  53.348  0.00  0.00     0.136 C 
ATOM     11  S   UNL d   1      51.927  32.760  53.258  0.00  0.00    -0.057 SA
BRANCH  10  12
ATOM     12  N   UNL d   1      52.128  34.176  53.092  0.00  0.00    -0.235 NA
BRANCH  12  13
ATOM     13  C   UNL d   1      51.395  34.238  52.714  0.00  0.00     0.082 A 
ATOM     14  C   UNL d   1      50.714  34.347  53.156  0.00  0.00     0.019 A 
ATOM     15  C   UNL d   1      49.982  34.409  52.778  0.00  0.00     0.002 A 
ATOM     16  C   UNL d   1      49.939  34.362  51.955  0.00  0.00     0.000 A 
ATOM     17  C   UNL d   1      50.629  34.252  51.511  0.00  0.00     0.002 A 
ATOM     18  C   UNL d   1      51.356  34.191  51.891  0.00  0.00     0.019 A 
ENDBRANCH  12  13
ENDBRANCH  10  12
ENDBRANCH   1  10
TORSDOF 3
ENDMDL
MODEL 4
REMARK VINA RESULT:      -8.2      2.975      3.991
REMARK  3 active torsions:
REMARK  status: ('A' for Active; 'I' for Inactive)
REMARK    1  A    between atoms: C_2  and  C_1 
REMARK    2  A    between atoms: N_3  and  C_1 
REMARK    3  A    between atoms: C_13  and  N_3 
ROOT
ATOM      1  C   UNL d   1      51.743  34.265  52.987  0.00  0.00     0.030 A 
ATOM      2  C   UNL d   1      50.343  34.567  52.889  0.00  0.00     0.119 A 
ATOM      3  C   UNL d   1      51.033  34.521  53.338  0.00  0.00     0.029 A 
ATOM      4  C   UNL d   1      50.366  34.357  52.090  0.00  0.00     0.119 A 
ATOM      5  O   UNL d   1      49.545  34.804  53.086  0.00  0.00    -0.300 OA
ATOM      6  O   UNL d   1      49.569  34.466  51.791  0.00  0.00    -0.300 OA
ATOM      7  C   UNL d   1      49.118  34.727  52.398  0.00  0.00     0.304 A 
ATOM      8  C   UNL d   1      51.758  34.057  52.190  0.00  0.00     0.004 A 
ATOM      9  C   UNL d   1      51.069  34.103  51.742  0.00  0.00     0.026 A 
ENDROOT
BRANCH   1  10
ATOM     10  C   UNL d   1      52.431  34.219  53.435  0.00  0.00     0.136 C 
ATOM     11  S   UNL d   1      52.896  34.892  53.549  0.00  0.00    -0.057 SA
BRANCH  10  12
ATOM     12  N   UNL d   1      52.657  33.490  53.773  0.00  0.00    -0.235 NA
BRANCH  12  13
ATOM     13  C   UNL d   1      53.396  33.416  54.138  0.00  0.00     0.082 A 
ATOM     14  C   UNL d   1      53.500  33.680  54.906  0.00  0.00     0.019 A 
ATOM     15  C   UNL d   1      54.239  33.606  55.271  0.00  0.00     0.002 A 
ATOM     16  C   UNL d   1      54.868  33.267  54.860  0.00  0.00     0.000 A 
ATOM     17  C   UNL d   1      54.759  33.001  54.084  0.00  0.00     0.002 A 
ATOM     18  C   UNL d   1      54.023  33.076  53.723  0.00  0.00     0.019 A 
ENDBRANCH  12  13
ENDBRANCH  10  12
ENDBRANCH   1  10
TORSDOF 3
ENDMDL
MODEL 5
REMARK VINA RESULT:      -7.7      2.246      4.135
REMARK  3 active torsions:
REMARK  status: ('A' for Active; 'I' for Inactive)
REMARK    1  A    between atoms: C_2  and  C_1 
REMARK    2  A    between atoms: N_3  and  C_1 
REMARK    3  A    between atoms: C_13  and  N_3 
ROOT
ATOM      1  C   UNL d   1      52.359  33.131  53.157  0.00  0.00     0.030 A 
ATOM      2  C   UNL d   1      51.032  33.672  53.087  0.00  0.00     0.119 A 
ATOM      3  C   UNL d   1      51.537  33.042  53.253  0.00  0.00     0.029 A 
ATOM      4  C   UNL d   1      51.350  34.389  52.825  0.00  0.00     0.119 A 
ATOM      5  O   UNL d   1      50.180  33.752  53.131  0.00  0.00    -0.300 OA
ATOM      6  O   UNL d   1      50.685  34.916  52.705  0.00  0.00    -0.300 OA
ATOM      7  C   UNL d   1      50.020  34.513  52.893  0.00  0.00     0.304 A 
ATOM      8  C   UNL d   1      52.669  33.848  52.895  0.00  0.00     0.004 A 
ATOM      9  C   UNL d   1      52.165  34.476  52.729  0.00  0.00     0.026 A 
ENDROOT
BRANCH   1  10
ATOM     10  C   UNL d   1      52.864  32.502  53.323  0.00  0.00     0.136 C 
ATOM     11  S   UNL d   1      53.325  32.512  54.008  0.00  0.00    -0.057 SA
BRANCH  10  12
ATOM     12  N   UNL d   1      52.907  31.856  52.796  0.00  0.00    -0.235 NA
BRANCH  12  13
ATOM     13  C   UNL d   1      53.056  31.097  53.087  0.00  0.00     0.082 A 
ATOM     14  C   UNL d   1      53.792  30.916  53.399  0.00  0.00     0.019 A 
ATOM     15  C   UNL d   1      53.942  30.157  53.690  0.00  0.00     0.002 A 
ATOM     16  C   UNL d   1      53.350  29.583  53.665  0.00  0.00     0.000 A 
ATOM     17  C   UNL d   1      52.607  29.769  53.350  0.00  0.00     0.002 A 
ATOM     18  C   UNL d   1      52.462  30.526  53.061  0.00  0.00     0.019 A 
ENDBRANCH  12  13
ENDBRANCH  10  12
ENDBRANCH   1  10
TORSDOF 3
ENDMDL
