MODEL 1
REMARK VINA RESULT:      -5.8      0.000      0.000
REMARK  2 active torsions:
REMARK  status: ('A' for Active; 'I' for Inactive)
REMARK    1  A    between atoms: C_6  and  C_1 
REMARK    2  A    between atoms: C_7  and  C_4 
ROOT
ATOM      1  C   UNL d   1     -41.963-122.207 -54.478  0.00  0.00     0.169 A 
ATOM      2  C   UNL d   1     -42.312-121.912 -53.791  0.00  0.00     0.048 A 
ATOM      3  N   UNL d   1     -41.138-123.063 -53.701  0.00  0.00    -0.148 NA
ATOM      4  C   UNL d   1     -41.484-122.771 -53.012  0.00  0.00     0.105 A 
ATOM      5  N   UNL d   1     -41.375-122.783 -54.442  0.00  0.00    -0.142 NA
ENDROOT
BRANCH   4   6
ATOM      6  C   UNL d   1     -41.394-122.913 -52.203  0.00  0.00     0.019 A 
ATOM      7  C   UNL d   1     -41.218-122.288 -51.698  0.00  0.00     0.002 A 
ATOM      8  C   UNL d   1     -41.127-122.423 -50.895  0.00  0.00     0.000 A 
ATOM      9  C   UNL d   1     -41.132-121.523 -52.002  0.00  0.00     0.000 C 
ATOM     10  C   UNL d   1     -41.213-123.188 -50.589  0.00  0.00     0.000 A 
ATOM     11  C   UNL d   1     -41.391-123.816 -51.099  0.00  0.00     0.000 A 
ATOM     12  C   UNL d   1     -41.123-123.324 -49.781  0.00  0.00     0.000 C 
ATOM     13  C   UNL d   1     -41.481-123.681 -51.902  0.00  0.00     0.002 A 
ENDBRANCH   4   6
BRANCH   1  14
ATOM     14  C   UNL d   1     -42.206-121.921 -55.214  0.00  0.00     0.231 C 
ATOM     15  O   UNL d   1     -43.003-121.953 -55.425  0.00  0.00    -0.643 OA
ATOM     16  O   UNL d   1     -41.655-121.603 -55.737  0.00  0.00    -0.643 OA
ENDBRANCH   1  14
TORSDOF 2
ENDMDL
MODEL 2
REMARK VINA RESULT:      -5.7      1.881      2.854
REMARK  2 active torsions:
REMARK  status: ('A' for Active; 'I' for Inactive)
REMARK    1  A    between atoms: C_6  and  C_1 
REMARK    2  A    between atoms: C_7  and  C_4 
ROOT
ATOM      1  C   UNL d   1     -41.395-122.642 -51.901  0.00  0.00     0.169 A 
ATOM      2  C   UNL d   1     -41.230-122.136 -51.271  0.00  0.00     0.048 A 
ATOM      3  N   UNL d   1     -41.864-123.630 -50.995  0.00  0.00    -0.148 NA
ATOM      4  C   UNL d   1     -41.701-123.127 -50.362  0.00  0.00     0.105 A 
ATOM      5  N   UNL d   1     -41.712-123.392 -51.772  0.00  0.00    -0.142 NA
ENDROOT
BRANCH   4   6
ATOM      6  C   UNL d   1     -41.777-123.172 -49.541  0.00  0.00     0.019 A 
ATOM      7  C   UNL d   1     -42.486-122.955 -49.185  0.00  0.00     0.002 A 
ATOM      8  C   UNL d   1     -42.566-122.997 -48.371  0.00  0.00     0.000 A 
ATOM      9  C   UNL d   1     -43.119-122.694 -49.651  0.00  0.00     0.000 C 
ATOM     10  C   UNL d   1     -41.934-123.258 -47.904  0.00  0.00     0.000 A 
ATOM     11  C   UNL d   1     -41.221-123.476 -48.263  0.00  0.00     0.000 A 
ATOM     12  C   UNL d   1     -42.015-123.301 -47.084  0.00  0.00     0.000 C 
ATOM     13  C   UNL d   1     -41.141-123.433 -49.077  0.00  0.00     0.002 A 
ENDBRANCH   4   6
BRANCH   1  14
ATOM     14  C   UNL d   1     -41.240-122.395 -52.675  0.00  0.00     0.231 C 
ATOM     15  O   UNL d   1     -41.185-122.952 -53.281  0.00  0.00    -0.643 OA
ATOM     16  O   UNL d   1     -41.139-121.595 -52.840  0.00  0.00    -0.643 OA
ENDBRANCH   1  14
TORSDOF 2
ENDMDL
MODEL 3
REMARK VINA RESULT:      -5.5      2.194      3.935
REMARK  2 active torsions:
REMARK  status: ('A' for Active; 'I' for Inactive)
REMARK    1  A    between atoms: C_6  and  C_1 
REMARK    2  A    between atoms: C_7  and  C_4 
ROOT
ATOM      1  C   UNL d   1     -41.476-122.810 -51.364  0.00  0.00     0.169 A 
ATOM      2  C   UNL d   1     -41.434-122.089 -51.763  0.00  0.00     0.048 A 
ATOM      3  N   UNL d   1     -41.804-123.472 -52.577  0.00  0.00    -0.148 NA
ATOM      4  C   UNL d   1     -41.764-122.753 -52.980  0.00  0.00     0.105 A 
ATOM      5  N   UNL d   1     -41.660-123.507 -51.763  0.00  0.00    -0.142 NA
ENDROOT
BRANCH   4   6
ATOM      6  C   UNL d   1     -41.869-122.511 -53.763  0.00  0.00     0.019 A 
ATOM      7  C   UNL d   1     -41.548-122.960 -54.374  0.00  0.00     0.002 A 
ATOM      8  C   UNL d   1     -41.649-122.724 -55.151  0.00  0.00     0.000 A 
ATOM      9  C   UNL d   1     -41.123-123.648 -54.201  0.00  0.00     0.000 C 
ATOM     10  C   UNL d   1     -42.075-122.035 -55.326  0.00  0.00     0.000 A 
ATOM     11  C   UNL d   1     -42.397-121.585 -54.710  0.00  0.00     0.000 A 
ATOM     12  C   UNL d   1     -42.177-121.798 -56.109  0.00  0.00     0.000 C 
ATOM     13  C   UNL d   1     -42.295-121.821 -53.932  0.00  0.00     0.002 A 
ENDBRANCH   4   6
BRANCH   1  14
ATOM     14  C   UNL d   1     -41.330-122.835 -50.551  0.00  0.00     0.231 C 
ATOM     15  O   UNL d   1     -41.386-122.145 -50.102  0.00  0.00    -0.643 OA
ATOM     16  O   UNL d   1     -41.130-123.547 -50.188  0.00  0.00    -0.643 OA
ENDBRANCH   1  14
TORSDOF 2
ENDMDL
