MODEL 1
REMARK VINA RESULT:      36.1      0.000      0.000
REMARK  3 active torsions:
REMARK  status: ('A' for Active; 'I' for Inactive)
REMARK    1  A    between atoms: C_8  and  C_3 
REMARK    2  A    between atoms: O_18  and  C_12 
REMARK    3  A    between atoms: O_19  and  C_13 
ROOT
ATOM      1  S   UNL d   1      14.417  14.049  -1.858  0.00  0.00     0.211 S 
ATOM      2  C   UNL d   1      14.800  14.542  -1.247  0.00  0.00     0.103 A 
ATOM      3  C   UNL d   1      14.281  13.207  -1.841  0.00  0.00     0.093 A 
ATOM      4  N   UNL d   1      15.094  13.581  -0.308  0.00  0.00    -0.321 N 
ATOM      5  C   UNL d   1      14.809  12.862  -0.639  0.00  0.00     0.258 A 
ATOM      6  C   UNL d   1      15.101  14.272  -0.536  0.00  0.00     0.070 A 
ATOM      7  C   UNL d   1      14.484  12.693  -1.244  0.00  0.00     0.072 A 
ATOM      8  O   UNL d   1      14.086  14.185  -2.583  0.00  0.00    -0.217 OA
ATOM      9  O   UNL d   1      14.540  14.905  -1.906  0.00  0.00    -0.217 OA
ATOM     10  O   UNL d   1      14.951  12.134  -0.093  0.00  0.00    -0.267 OA
ATOM     11  C   UNL d   1      14.843  15.339  -1.439  0.00  0.00     0.013 A 
ATOM     12  C   UNL d   1      15.445  14.794  -0.014  0.00  0.00     0.018 A 
ATOM     13  C   UNL d   1      15.192  15.875  -0.912  0.00  0.00     0.001 A 
ATOM     14  C   UNL d   1      15.491  15.587  -0.199  0.00  0.00     0.002 A 
ATOM     15  H   UNL d   1      15.439  13.474   0.436  0.00  0.00     0.169 HD
ENDROOT
BRANCH   3  16
ATOM     16  C   UNL d   1      13.902  12.877  -2.502  0.00  0.00     0.013 A 
ATOM     17  C   UNL d   1      13.838  13.310  -3.204  0.00  0.00     0.027 A 
ATOM     18  C   UNL d   1      13.459  12.974  -3.857  0.00  0.00     0.116 A 
ATOM     19  C   UNL d   1      13.150  12.224  -3.814  0.00  0.00     0.116 A 
ATOM     20  C   UNL d   1      13.210  11.783  -3.111  0.00  0.00     0.026 A 
ATOM     21  C   UNL d   1      13.587  12.108  -2.450  0.00  0.00     0.003 A 
BRANCH  18  22
ATOM     22  O   UNL d   1      13.396  13.407  -4.560  0.00  0.00    -0.326 OA
ATOM     23  C   UNL d   1      12.904  14.067  -4.604  0.00  0.00     0.181 C 
ENDBRANCH  18  22
BRANCH  19  24
ATOM     24  O   UNL d   1      12.769  11.891  -4.474  0.00  0.00    -0.326 OA
ATOM     25  C   UNL d   1      13.156  11.845  -5.192  0.00  0.00     0.181 C 
ENDBRANCH  19  24
ENDBRANCH   3  16
TORSDOF 3
ENDMDL
