MODEL 1
REMARK VINA RESULT:      -2.7      0.000      0.000
REMARK  5 active torsions:
REMARK  status: ('A' for Active; 'I' for Inactive)
REMARK    1  A    between atoms: N_3  and  C_1 
REMARK    2  A    between atoms: C_12  and  N_2 
REMARK       I    between atoms: C_5  and  N_3 
REMARK    3  A    between atoms: C_8  and  C_5 
REMARK    4  A    between atoms: C_15  and  C_12 
REMARK    5  A    between atoms: O_22  and  C_15 
ROOT
ATOM      1  C   UNL d   1      58.392  -0.668  30.192  0.00  0.00     0.183 A 
ATOM      2  N   UNL d   1      58.778  -1.228  29.729  0.00  0.00    -0.280 N 
ATOM      3  S   UNL d   1      58.784   0.054  30.098  0.00  0.00    -0.048 SA
ATOM      4  C   UNL d   1      59.412  -0.859  29.344  0.00  0.00     0.072 A 
ATOM      5  C   UNL d   1      59.416  -0.063  29.572  0.00  0.00     0.048 A 
ATOM      6  C   UNL d   1      59.983  -1.142  28.817  0.00  0.00     0.018 A 
ATOM      7  C   UNL d   1      59.991   0.450  29.275  0.00  0.00     0.008 A 
ATOM      8  C   UNL d   1      60.558  -0.628  28.520  0.00  0.00     0.002 A 
ATOM      9  C   UNL d   1      60.562   0.168  28.748  0.00  0.00     0.001 A 
ATOM     10  C   UNL d   1      61.130   0.680  28.455  0.00  0.00     0.000 C 
ENDROOT
BRANCH   1  11
ATOM     11  N   UNL d   1      57.729  -0.809  30.667  0.00  0.00    -0.183 NA
ATOM     12  C   UNL d   1      57.601  -0.343  31.337  0.00  0.00     0.287 C 
ATOM     13  O   UNL d   1      58.134   0.258  31.528  0.00  0.00    -0.265 OA
BRANCH  12  14
ATOM     14  C   UNL d   1      56.949  -0.477  31.810  0.00  0.00     0.088 A 
ATOM     15  S   UNL d   1      56.593   0.071  32.324  0.00  0.00    -0.071 SA
ATOM     16  C   UNL d   1      55.960  -0.295  32.686  0.00  0.00     0.087 A 
ATOM     17 CL   UNL d   1      55.445   0.029  33.236  0.00  0.00    -0.075 Cl
ATOM     18  C   UNL d   1      55.923  -1.059  32.402  0.00  0.00     0.019 A 
ATOM     19  C   UNL d   1      56.529  -1.168  31.866  0.00  0.00     0.013 A 
ENDBRANCH  12  14
ENDBRANCH   1  11
BRANCH   2  20
ATOM     20  C   UNL d   1      58.868  -1.994  29.437  0.00  0.00     0.151 C 
BRANCH  20  21
ATOM     21  C   UNL d   1      58.208  -2.425  29.219  0.00  0.00     0.314 C 
ATOM     22  O   UNL d   1      57.587  -2.046  28.841  0.00  0.00    -0.257 OA
BRANCH  21  23
ATOM     23  O   UNL d   1      58.166  -3.221  29.377  0.00  0.00    -0.295 OA
ATOM     24  C   UNL d   1      58.361  -3.763  28.802  0.00  0.00     0.185 C 
ENDBRANCH  21  23
ENDBRANCH  20  21
ENDBRANCH   2  20
TORSDOF 5
ENDMDL
MODEL 2
REMARK VINA RESULT:      -2.5      1.510      2.724
REMARK  5 active torsions:
REMARK  status: ('A' for Active; 'I' for Inactive)
REMARK    1  A    between atoms: N_3  and  C_1 
REMARK    2  A    between atoms: C_12  and  N_2 
REMARK       I    between atoms: C_5  and  N_3 
REMARK    3  A    between atoms: C_8  and  C_5 
REMARK    4  A    between atoms: C_15  and  C_12 
REMARK    5  A    between atoms: O_22  and  C_15 
ROOT
ATOM      1  C   UNL d   1      58.935  -1.542  29.844  0.00  0.00     0.183 A 
ATOM      2  N   UNL d   1      59.673  -1.475  29.487  0.00  0.00    -0.280 N 
ATOM      3  S   UNL d   1      58.681  -2.324  29.761  0.00  0.00    -0.048 SA
ATOM      4  C   UNL d   1      59.884  -2.215  29.178  0.00  0.00     0.072 A 
ATOM      5  C   UNL d   1      59.268  -2.742  29.348  0.00  0.00     0.048 A 
ATOM      6  C   UNL d   1      60.551  -2.477  28.768  0.00  0.00     0.018 A 
ATOM      7  C   UNL d   1      59.320  -3.530  29.108  0.00  0.00     0.008 A 
ATOM      8  C   UNL d   1      60.603  -3.265  28.527  0.00  0.00     0.002 A 
ATOM      9  C   UNL d   1      59.987  -3.792  28.697  0.00  0.00     0.001 A 
ATOM     10  C   UNL d   1      60.035  -4.575  28.460  0.00  0.00     0.000 C 
ENDROOT
BRANCH   1  11
ATOM     11  N   UNL d   1      58.524  -0.928  30.219  0.00  0.00    -0.183 NA
ATOM     12  C   UNL d   1      57.820  -1.094  30.619  0.00  0.00     0.287 C 
ATOM     13  O   UNL d   1      57.532  -1.868  30.641  0.00  0.00    -0.265 OA
BRANCH  12  14
ATOM     14  C   UNL d   1      57.410  -0.495  30.991  0.00  0.00     0.088 A 
ATOM     15  S   UNL d   1      56.993  -0.555  31.708  0.00  0.00    -0.071 SA
ATOM     16  C   UNL d   1      56.669   0.174  31.874  0.00  0.00     0.087 A 
ATOM     17 CL   UNL d   1      56.211   0.380  32.524  0.00  0.00    -0.075 Cl
ATOM     18  C   UNL d   1      56.880   0.682  31.271  0.00  0.00     0.019 A 
ATOM     19  C   UNL d   1      57.334   0.269  30.732  0.00  0.00     0.013 A 
ENDBRANCH  12  14
ENDBRANCH   1  11
BRANCH   2  20
ATOM     20  C   UNL d   1      60.339  -1.041  29.266  0.00  0.00     0.151 C 
BRANCH  20  21
ATOM     21  C   UNL d   1      60.299  -0.225  29.236  0.00  0.00     0.314 C 
ATOM     22  O   UNL d   1      60.141   0.145  28.522  0.00  0.00    -0.257 OA
BRANCH  21  23
ATOM     23  O   UNL d   1      60.415   0.217  29.909  0.00  0.00    -0.295 OA
ATOM     24  C   UNL d   1      61.088   0.666  29.993  0.00  0.00     0.185 C 
ENDBRANCH  21  23
ENDBRANCH  20  21
ENDBRANCH   2  20
TORSDOF 5
ENDMDL
MODEL 3
REMARK VINA RESULT:      -1.5      2.091      4.422
REMARK  5 active torsions:
REMARK  status: ('A' for Active; 'I' for Inactive)
REMARK    1  A    between atoms: N_3  and  C_1 
REMARK    2  A    between atoms: C_12  and  N_2 
REMARK       I    between atoms: C_5  and  N_3 
REMARK    3  A    between atoms: C_8  and  C_5 
REMARK    4  A    between atoms: C_15  and  C_12 
REMARK    5  A    between atoms: O_22  and  C_15 
ROOT
ATOM      1  C   UNL d   1      57.954  -0.988  30.641  0.00  0.00     0.183 A 
ATOM      2  N   UNL d   1      58.017  -0.202  30.878  0.00  0.00    -0.280 N 
ATOM      3  S   UNL d   1      57.337  -1.334  31.069  0.00  0.00    -0.048 SA
ATOM      4  C   UNL d   1      57.440  -0.054  31.454  0.00  0.00     0.072 A 
ATOM      5  C   UNL d   1      57.018  -0.756  31.572  0.00  0.00     0.048 A 
ATOM      6  C   UNL d   1      57.244   0.624  31.883  0.00  0.00     0.018 A 
ATOM      7  C   UNL d   1      56.400  -0.781  32.121  0.00  0.00     0.008 A 
ATOM      8  C   UNL d   1      56.626   0.600  32.431  0.00  0.00     0.002 A 
ATOM      9  C   UNL d   1      56.204  -0.103  32.550  0.00  0.00     0.001 A 
ATOM     10  C   UNL d   1      55.591  -0.131  33.093  0.00  0.00     0.000 C 
ENDROOT
BRANCH   1  11
ATOM     11  N   UNL d   1      58.429  -1.359  30.074  0.00  0.00    -0.183 NA
ATOM     12  C   UNL d   1      58.436  -2.184  30.026  0.00  0.00     0.287 C 
ATOM     13  O   UNL d   1      57.970  -2.630  30.542  0.00  0.00    -0.265 OA
BRANCH  12  14
ATOM     14  C   UNL d   1      58.902  -2.557  29.469  0.00  0.00     0.088 A 
ATOM     15  S   UNL d   1      59.727  -2.492  29.394  0.00  0.00    -0.071 SA
ATOM     16  C   UNL d   1      59.962  -2.957  28.767  0.00  0.00     0.087 A 
ATOM     17 CL   UNL d   1      60.725  -3.065  28.486  0.00  0.00    -0.075 Cl
ATOM     18  C   UNL d   1      59.294  -3.307  28.455  0.00  0.00     0.019 A 
ATOM     19  C   UNL d   1      58.646  -3.060  28.887  0.00  0.00     0.013 A 
ENDBRANCH  12  14
ENDBRANCH   1  11
BRANCH   2  20
ATOM     20  C   UNL d   1      58.366   0.544  30.840  0.00  0.00     0.151 C 
BRANCH  20  21
ATOM     21  C   UNL d   1      59.090   0.634  30.471  0.00  0.00     0.314 C 
ATOM     22  O   UNL d   1      59.123   0.677  29.653  0.00  0.00    -0.257 OA
BRANCH  21  23
ATOM     23  O   UNL d   1      59.773   0.682  30.910  0.00  0.00    -0.295 OA
ATOM     24  C   UNL d   1      60.498   0.669  30.542  0.00  0.00     0.185 C 
ENDBRANCH  21  23
ENDBRANCH  20  21
ENDBRANCH   2  20
TORSDOF 5
ENDMDL
MODEL 4
REMARK VINA RESULT:      -0.6      8.982      9.361
REMARK  5 active torsions:
REMARK  status: ('A' for Active; 'I' for Inactive)
REMARK    1  A    between atoms: N_3  and  C_1 
REMARK    2  A    between atoms: C_12  and  N_2 
REMARK       I    between atoms: C_5  and  N_3 
REMARK    3  A    between atoms: C_8  and  C_5 
REMARK    4  A    between atoms: C_15  and  C_12 
REMARK    5  A    between atoms: O_22  and  C_15 
ROOT
ATOM      1  C   UNL d   1      59.766  -9.799  31.892  0.00  0.00     0.183 A 
ATOM      2  N   UNL d   1      59.173  -9.804  31.321  0.00  0.00    -0.280 N 
ATOM      3  S   UNL d   1      60.494  -9.782  31.503  0.00  0.00    -0.048 SA
ATOM      4  C   UNL d   1      59.529  -9.790  30.573  0.00  0.00     0.072 A 
ATOM      5  C   UNL d   1      60.349  -9.776  30.686  0.00  0.00     0.048 A 
ATOM      6  C   UNL d   1      59.216  -9.788  29.808  0.00  0.00     0.018 A 
ATOM      7  C   UNL d   1      60.857  -9.760  30.034  0.00  0.00     0.008 A 
ATOM      8  C   UNL d   1      59.723  -9.772  29.156  0.00  0.00     0.002 A 
ATOM      9  C   UNL d   1      60.544  -9.758  29.269  0.00  0.00     0.001 A 
ATOM     10  C   UNL d   1      61.050  -9.743  28.625  0.00  0.00     0.000 C 
ENDROOT
BRANCH   1  11
ATOM     11  N   UNL d   1      59.645  -9.810  32.712  0.00  0.00    -0.183 NA
ATOM     12  C   UNL d   1      60.257  -9.576  33.216  0.00  0.00     0.287 C 
ATOM     13  O   UNL d   1      60.981  -9.334  32.900  0.00  0.00    -0.265 OA
BRANCH  12  14
ATOM     14  C   UNL d   1      60.145  -9.584  34.024  0.00  0.00     0.088 A 
ATOM     15  S   UNL d   1      60.735  -9.496  34.604  0.00  0.00    -0.071 SA
ATOM     16  C   UNL d   1      60.379  -9.538  35.336  0.00  0.00     0.087 A 
ATOM     17 CL   UNL d   1      60.742  -9.481  36.070  0.00  0.00    -0.075 Cl
ATOM     18  C   UNL d   1      59.580  -9.651  35.216  0.00  0.00     0.019 A 
ATOM     19  C   UNL d   1      59.440  -9.678  34.412  0.00  0.00     0.013 A 
ENDBRANCH  12  14
ENDBRANCH   1  11
BRANCH   2  20
ATOM     20  C   UNL d   1      58.381  -9.817  31.094  0.00  0.00     0.151 C 
BRANCH  20  21
ATOM     21  C   UNL d   1      57.827  -9.407  31.535  0.00  0.00     0.314 C 
ATOM     22  O   UNL d   1      57.991  -8.641  31.779  0.00  0.00    -0.257 OA
BRANCH  21  23
ATOM     23  O   UNL d   1      57.118  -9.754  31.732  0.00  0.00    -0.295 OA
ATOM     24  C   UNL d   1      56.513  -9.786  31.189  0.00  0.00     0.185 C 
ENDBRANCH  21  23
ENDBRANCH  20  21
ENDBRANCH   2  20
TORSDOF 5
ENDMDL
MODEL 5
REMARK VINA RESULT:      -0.2      2.003      4.795
REMARK  5 active torsions:
REMARK  status: ('A' for Active; 'I' for Inactive)
REMARK    1  A    between atoms: N_3  and  C_1 
REMARK    2  A    between atoms: C_12  and  N_2 
REMARK       I    between atoms: C_5  and  N_3 
REMARK    3  A    between atoms: C_8  and  C_5 
REMARK    4  A    between atoms: C_15  and  C_12 
REMARK    5  A    between atoms: O_22  and  C_15 
ROOT
ATOM      1  C   UNL d   1      57.344  -0.617  31.410  0.00  0.00     0.183 A 
ATOM      2  N   UNL d   1      57.391   0.001  31.951  0.00  0.00    -0.280 N 
ATOM      3  S   UNL d   1      56.688  -1.079  31.608  0.00  0.00    -0.048 SA
ATOM      4  C   UNL d   1      56.765  -0.071  32.489  0.00  0.00     0.072 A 
ATOM      5  C   UNL d   1      56.328  -0.742  32.276  0.00  0.00     0.048 A 
ATOM      6  C   UNL d   1      56.535   0.382  33.140  0.00  0.00     0.018 A 
ATOM      7  C   UNL d   1      55.662  -0.959  32.714  0.00  0.00     0.008 A 
ATOM      8  C   UNL d   1      55.870   0.165  33.579  0.00  0.00     0.002 A 
ATOM      9  C   UNL d   1      55.433  -0.506  33.366  0.00  0.00     0.001 A 
ATOM     10  C   UNL d   1      54.773  -0.725  33.798  0.00  0.00     0.000 C 
ENDROOT
BRANCH   1  11
ATOM     11  N   UNL d   1      57.867  -0.747  30.781  0.00  0.00    -0.183 NA
ATOM     12  C   UNL d   1      57.827  -1.457  30.359  0.00  0.00     0.287 C 
ATOM     13  O   UNL d   1      57.268  -2.029  30.568  0.00  0.00    -0.265 OA
BRANCH  12  14
ATOM     14  C   UNL d   1      58.338  -1.592  29.738  0.00  0.00     0.088 A 
ATOM     15  S   UNL d   1      58.698  -2.317  29.544  0.00  0.00    -0.071 SA
ATOM     16  C   UNL d   1      59.164  -2.200  28.886  0.00  0.00     0.087 A 
ATOM     17 CL   UNL d   1      59.623  -2.758  28.497  0.00  0.00    -0.075 Cl
ATOM     18  C   UNL d   1      59.097  -1.416  28.672  0.00  0.00     0.019 A 
ATOM     19  C   UNL d   1      58.591  -1.046  29.195  0.00  0.00     0.013 A 
ENDBRANCH  12  14
ENDBRANCH   1  11
BRANCH   2  20
ATOM     20  C   UNL d   1      57.748   0.682  32.250  0.00  0.00     0.151 C 
BRANCH  20  21
ATOM     21  C   UNL d   1      58.539   0.666  32.459  0.00  0.00     0.314 C 
ATOM     22  O   UNL d   1      58.745   0.634  33.252  0.00  0.00    -0.257 OA
BRANCH  21  23
ATOM     23  O   UNL d   1      59.116   0.681  31.887  0.00  0.00    -0.295 OA
ATOM     24  C   UNL d   1      59.900   0.618  32.095  0.00  0.00     0.185 C 
ENDBRANCH  21  23
ENDBRANCH  20  21
ENDBRANCH   2  20
TORSDOF 5
ENDMDL
MODEL 6
REMARK VINA RESULT:       0.1      8.933      9.598
REMARK  5 active torsions:
REMARK  status: ('A' for Active; 'I' for Inactive)
REMARK    1  A    between atoms: N_3  and  C_1 
REMARK    2  A    between atoms: C_12  and  N_2 
REMARK       I    between atoms: C_5  and  N_3 
REMARK    3  A    between atoms: C_8  and  C_5 
REMARK    4  A    between atoms: C_15  and  C_12 
REMARK    5  A    between atoms: O_22  and  C_15 
ROOT
ATOM      1  C   UNL d   1      58.720  -9.644  32.906  0.00  0.00     0.183 A 
ATOM      2  N   UNL d   1      59.517  -9.678  33.107  0.00  0.00    -0.280 N 
ATOM      3  S   UNL d   1      58.298  -9.411  33.577  0.00  0.00    -0.048 SA
ATOM      4  C   UNL d   1      59.596  -9.466  33.904  0.00  0.00     0.072 A 
ATOM      5  C   UNL d   1      58.839  -9.300  34.196  0.00  0.00     0.048 A 
ATOM      6  C   UNL d   1      60.254  -9.403  34.400  0.00  0.00     0.018 A 
ATOM      7  C   UNL d   1      58.740  -9.071  34.984  0.00  0.00     0.008 A 
ATOM      8  C   UNL d   1      60.155  -9.173  35.188  0.00  0.00     0.002 A 
ATOM      9  C   UNL d   1      59.398  -9.008  35.480  0.00  0.00     0.001 A 
ATOM     10  C   UNL d   1      59.296  -8.780  36.260  0.00  0.00     0.000 C 
ENDROOT
BRANCH   1  11
ATOM     11  N   UNL d   1      58.403  -9.815  32.160  0.00  0.00    -0.183 NA
ATOM     12  C   UNL d   1      57.777  -9.361  31.870  0.00  0.00     0.287 C 
ATOM     13  O   UNL d   1      57.472  -8.743  32.325  0.00  0.00    -0.265 OA
BRANCH  12  14
ATOM     14  C   UNL d   1      57.460  -9.524  31.136  0.00  0.00     0.088 A 
ATOM     15  S   UNL d   1      57.874  -9.550  30.415  0.00  0.00    -0.071 SA
ATOM     16  C   UNL d   1      57.343  -9.732  29.824  0.00  0.00     0.087 A 
ATOM     17 CL   UNL d   1      57.500  -9.817  29.023  0.00  0.00    -0.075 Cl
ATOM     18  C   UNL d   1      56.609  -9.818  30.170  0.00  0.00     0.019 A 
ATOM     19  C   UNL d   1      56.684  -9.690  30.973  0.00  0.00     0.013 A 
ENDBRANCH  12  14
ENDBRANCH   1  11
BRANCH   2  20
ATOM     20  C   UNL d   1      60.309  -9.818  32.924  0.00  0.00     0.151 C 
BRANCH  20  21
ATOM     21  C   UNL d   1      60.648  -9.443  32.281  0.00  0.00     0.314 C 
ATOM     22  O   UNL d   1      60.958  -8.689  32.371  0.00  0.00    -0.257 OA
BRANCH  21  23
ATOM     23  O   UNL d   1      60.679  -9.813  31.558  0.00  0.00    -0.295 OA
ATOM     24  C   UNL d   1      61.117  -9.492  30.952  0.00  0.00     0.185 C 
ENDBRANCH  21  23
ENDBRANCH  20  21
ENDBRANCH   2  20
TORSDOF 5
ENDMDL
