MODEL 1
REMARK VINA RESULT:      79.2      0.000      0.000
REMARK  3 active torsions:
REMARK  status: ('A' for Active; 'I' for Inactive)
REMARK    1  A    between atoms: C_6  and  C_1 
REMARK    2  A    between atoms: C_5  and  N_2 
REMARK    3  A    between atoms: N_4  and  C_6 
ROOT
ATOM      1  N   UNL d   1      60.867  48.073  50.368  0.00  0.00    -0.299 N 
ATOM      2  N   UNL d   1      59.690  49.139  50.621  0.00  0.00    -0.300 N 
ATOM      3  C   UNL d   1      60.096  47.858  50.242  0.00  0.00     0.100 A 
ATOM      4  C   UNL d   1      61.061  48.832  50.624  0.00  0.00     0.100 A 
ATOM      5  C   UNL d   1      59.507  48.391  50.369  0.00  0.00     0.100 A 
ATOM      6  C   UNL d   1      60.472  49.365  50.751  0.00  0.00     0.100 A 
ENDROOT
BRANCH   2   7
ATOM      7  C   UNL d   1      59.085  49.708  50.758  0.00  0.00     0.084 C 
BRANCH   7   8
ATOM      8  C   UNL d   1      58.364  49.699  50.318  0.00  0.00     0.057 A 
ATOM      9  C   UNL d   1      57.678  49.696  50.732  0.00  0.00     0.004 A 
ATOM     10  C   UNL d   1      56.936  49.687  50.292  0.00  0.00     0.000 A 
ATOM     11  C   UNL d   1      57.663  49.702  51.557  0.00  0.00     0.000 A 
ATOM     12  C   UNL d   1      56.224  49.684  50.706  0.00  0.00     0.000 A 
ATOM     13  C   UNL d   1      56.951  49.682  49.488  0.00  0.00     0.003 A 
ATOM     14  C   UNL d   1      56.255  49.690  51.531  0.00  0.00     0.000 A 
ATOM     15  C   UNL d   1      56.905  49.698  51.945  0.00  0.00     0.000 A 
ATOM     16  C   UNL d   1      57.708  49.685  49.083  0.00  0.00     0.042 A 
ATOM     17  C   UNL d   1      58.358  49.694  49.497  0.00  0.00     0.197 A 
ATOM     18  O   UNL d   1      59.091  49.697  49.070  0.00  0.00    -0.286 OA
ENDBRANCH   7   8
ENDBRANCH   2   7
BRANCH   1  19
ATOM     19  C   UNL d   1      61.483  47.515  50.235  0.00  0.00     0.092 A 
ATOM     20  C   UNL d   1      61.456  46.785  50.626  0.00  0.00     0.156 A 
ATOM     21  F   UNL d   1      60.842  46.591  51.141  0.00  0.00    -0.203 F 
ATOM     22  C   UNL d   1      62.078  46.221  50.492  0.00  0.00     0.031 A 
ATOM     23  C   UNL d   1      62.694  46.419  49.974  0.00  0.00     0.002 A 
ATOM     24  C   UNL d   1      62.712  47.135  49.597  0.00  0.00     0.002 A 
ATOM     25  C   UNL d   1      62.090  47.698  49.731  0.00  0.00     0.020 A 
ENDBRANCH   1  19
TORSDOF 3
ENDMDL
MODEL 2
REMARK VINA RESULT:      80.1      1.430      2.374
REMARK  3 active torsions:
REMARK  status: ('A' for Active; 'I' for Inactive)
REMARK    1  A    between atoms: C_6  and  C_1 
REMARK    2  A    between atoms: C_5  and  N_2 
REMARK    3  A    between atoms: N_4  and  C_6 
ROOT
ATOM      1  N   UNL d   1      61.552  47.171  49.814  0.00  0.00    -0.299 N 
ATOM      2  N   UNL d   1      61.114  48.627  50.338  0.00  0.00    -0.300 N 
ATOM      3  C   UNL d   1      61.678  47.374  50.589  0.00  0.00     0.100 A 
ATOM      4  C   UNL d   1      61.202  47.700  49.287  0.00  0.00     0.100 A 
ATOM      5  C   UNL d   1      61.459  48.102  50.851  0.00  0.00     0.100 A 
ATOM      6  C   UNL d   1      60.983  48.427  49.549  0.00  0.00     0.100 A 
ENDROOT
BRANCH   2   7
ATOM      7  C   UNL d   1      60.880  49.393  50.598  0.00  0.00     0.084 C 
BRANCH   7   8
ATOM      8  C   UNL d   1      60.322  49.494  51.225  0.00  0.00     0.057 A 
ATOM      9  C   UNL d   1      59.546  49.527  51.027  0.00  0.00     0.004 A 
ATOM     10  C   UNL d   1      58.969  49.631  51.659  0.00  0.00     0.000 A 
ATOM     11  C   UNL d   1      59.289  49.466  50.245  0.00  0.00     0.000 A 
ATOM     12  C   UNL d   1      58.168  49.666  51.469  0.00  0.00     0.000 A 
ATOM     13  C   UNL d   1      59.220  49.691  52.421  0.00  0.00     0.003 A 
ATOM     14  C   UNL d   1      57.955  49.600  50.674  0.00  0.00     0.000 A 
ATOM     15  C   UNL d   1      58.453  49.508  50.093  0.00  0.00     0.000 A 
ATOM     16  C   UNL d   1      60.061  49.650  52.589  0.00  0.00     0.042 A 
ATOM     17  C   UNL d   1      60.558  49.557  52.009  0.00  0.00     0.197 A 
ATOM     18  O   UNL d   1      61.383  49.521  52.205  0.00  0.00    -0.286 OA
ENDBRANCH   7   8
ENDBRANCH   2   7
BRANCH   1  19
ATOM     19  C   UNL d   1      61.781  46.409  49.540  0.00  0.00     0.092 A 
ATOM     20  C   UNL d   1      62.571  46.281  49.322  0.00  0.00     0.156 A 
ATOM     21  F   UNL d   1      63.137  46.879  49.366  0.00  0.00    -0.203 F 
ATOM     22  C   UNL d   1      62.802  45.511  49.045  0.00  0.00     0.031 A 
ATOM     23  C   UNL d   1      62.231  44.911  49.001  0.00  0.00     0.002 A 
ATOM     24  C   UNL d   1      61.463  45.047  49.217  0.00  0.00     0.002 A 
ATOM     25  C   UNL d   1      61.231  45.816  49.494  0.00  0.00     0.020 A 
ENDBRANCH   1  19
TORSDOF 3
ENDMDL
