MODEL 1
REMARK VINA RESULT:      40.5      0.000      0.000
REMARK  4 active torsions:
REMARK  status: ('A' for Active; 'I' for Inactive)
REMARK    1  A    between atoms: C_2  and  N_1 
REMARK    2  A    between atoms: C_14  and  C_7 
REMARK    3  A    between atoms: O_20  and  C_14 
REMARK    4  A    between atoms: C_23  and  O_20 
ROOT
ATOM      1  C   UNL d   1      13.632  12.308  -3.424  0.00  0.00     0.105 A 
ATOM      2  C   UNL d   1      13.427  13.069  -3.687  0.00  0.00     0.086 A 
ATOM      3  S   UNL d   1      13.541  11.779  -4.043  0.00  0.00    -0.069 SA
ATOM      4  C   UNL d   1      13.214  12.968  -4.483  0.00  0.00     0.013 A 
ATOM      5  C   UNL d   1      13.284  12.186  -4.694  0.00  0.00     0.031 A 
ATOM      6  C   UNL d   1      12.959  13.499  -5.054  0.00  0.00     0.001 A 
ATOM      7  C   UNL d   1      13.113  11.931  -5.434  0.00  0.00     0.006 A 
ATOM      8  C   UNL d   1      12.779  13.250  -5.822  0.00  0.00     0.000 A 
ATOM      9  C   UNL d   1      12.856  12.463  -6.013  0.00  0.00     0.001 A 
ENDROOT
BRANCH   1  10
ATOM     10  N   UNL d   1      13.879  12.210  -2.628  0.00  0.00    -0.236 N 
ATOM     11  C   UNL d   1      14.656  12.359  -2.411  0.00  0.00     0.266 A 
ATOM     12  C   UNL d   1      14.701  12.212  -1.616  0.00  0.00     0.069 A 
ATOM     13  O   UNL d   1      15.260  12.612  -2.937  0.00  0.00    -0.267 OA
ATOM     14  C   UNL d   1      15.330  12.262  -1.090  0.00  0.00     0.165 A 
ATOM     15  C   UNL d   1      13.948  11.971  -1.339  0.00  0.00     0.069 A 
ATOM     16  C   UNL d   1      15.230  12.079  -0.291  0.00  0.00     0.006 A 
ATOM     17  O   UNL d   1      14.463  12.038  -1.040  0.00  0.00    -0.341 OA
ATOM     18  C   UNL d   1      14.477  11.838  -0.014  0.00  0.00     0.006 A 
ATOM     19  C   UNL d   1      13.849  11.789  -0.546  0.00  0.00     0.165 A 
ATOM     20  C   UNL d   1      13.447  11.972  -1.966  0.00  0.00     0.266 A 
ATOM     21  O   UNL d   1      12.775  11.804  -1.954  0.00  0.00    -0.267 OA
ENDBRANCH   1  10
BRANCH   2  22
ATOM     22  C   UNL d   1      13.433  13.777  -3.256  0.00  0.00     0.302 C 
ATOM     23  O   UNL d   1      13.172  13.869  -2.792  0.00  0.00    -0.259 OA
BRANCH  22  24
ATOM     24  O   UNL d   1      13.884  14.427  -3.552  0.00  0.00    -0.271 OA
BRANCH  24  25
ATOM     25  C   UNL d   1      13.878  15.124  -3.145  0.00  0.00     0.126 C 
ATOM     26  C   UNL d   1      14.412  15.722  -3.387  0.00  0.00     0.029 C 
ENDBRANCH  24  25
ENDBRANCH  22  24
ENDBRANCH   2  22
TORSDOF 4
ENDMDL
MODEL 2
REMARK VINA RESULT:      42.3      0.308      1.059
REMARK  4 active torsions:
REMARK  status: ('A' for Active; 'I' for Inactive)
REMARK    1  A    between atoms: C_2  and  N_1 
REMARK    2  A    between atoms: C_14  and  C_7 
REMARK    3  A    between atoms: O_20  and  C_14 
REMARK    4  A    between atoms: C_23  and  O_20 
ROOT
ATOM      1  C   UNL d   1      13.917  12.297  -3.496  0.00  0.00     0.105 A 
ATOM      2  C   UNL d   1      13.577  13.008  -3.760  0.00  0.00     0.086 A 
ATOM      3  S   UNL d   1      13.983  11.782  -4.129  0.00  0.00    -0.069 SA
ATOM      4  C   UNL d   1      13.445  12.891  -4.572  0.00  0.00     0.013 A 
ATOM      5  C   UNL d   1      13.692  12.148  -4.791  0.00  0.00     0.031 A 
ATOM      6  C   UNL d   1      13.124  13.376  -5.151  0.00  0.00     0.001 A 
ATOM      7  C   UNL d   1      13.629  11.887  -5.546  0.00  0.00     0.006 A 
ATOM      8  C   UNL d   1      13.054  13.120  -5.934  0.00  0.00     0.000 A 
ATOM      9  C   UNL d   1      13.307  12.373  -6.132  0.00  0.00     0.001 A 
ENDROOT
BRANCH   1  10
ATOM     10  N   UNL d   1      14.123  12.227  -2.686  0.00  0.00    -0.236 N 
ATOM     11  C   UNL d   1      13.567  11.984  -2.133  0.00  0.00     0.266 A 
ATOM     12  C   UNL d   1      13.948  11.978  -1.419  0.00  0.00     0.069 A 
ATOM     13  O   UNL d   1      12.770  11.787  -2.311  0.00  0.00    -0.267 OA
ATOM     14  C   UNL d   1      13.682  11.784  -0.666  0.00  0.00     0.165 A 
ATOM     15  C   UNL d   1      14.742  12.219  -1.529  0.00  0.00     0.069 A 
ATOM     16  C   UNL d   1      14.189  11.824  -0.015  0.00  0.00     0.006 A 
ATOM     17  O   UNL d   1      14.456  12.059  -1.027  0.00  0.00    -0.341 OA
ATOM     18  C   UNL d   1      14.983  12.064  -0.124  0.00  0.00     0.006 A 
ATOM     19  C   UNL d   1      15.245  12.258  -0.882  0.00  0.00     0.165 A 
ATOM     20  C   UNL d   1      14.843  12.371  -2.310  0.00  0.00     0.266 A 
ATOM     21  O   UNL d   1      15.429  12.583  -2.613  0.00  0.00    -0.267 OA
ENDBRANCH   1  10
BRANCH   2  22
ATOM     22  C   UNL d   1      13.404  13.687  -3.317  0.00  0.00     0.302 C 
ATOM     23  O   UNL d   1      12.993  13.746  -2.972  0.00  0.00    -0.259 OA
BRANCH  22  24
ATOM     24  O   UNL d   1      13.906  14.362  -3.400  0.00  0.00    -0.271 OA
BRANCH  24  25
ATOM     25  C   UNL d   1      13.594  15.096  -3.279  0.00  0.00     0.126 C 
ATOM     26  C   UNL d   1      14.085  15.674  -2.923  0.00  0.00     0.029 C 
ENDBRANCH  24  25
ENDBRANCH  22  24
ENDBRANCH   2  22
TORSDOF 4
ENDMDL
