MODEL 1
REMARK VINA RESULT:      57.1      0.000      0.000
REMARK  9 active torsions:
REMARK  status: ('A' for Active; 'I' for Inactive)
REMARK    1  A    between atoms: C_5  and  C_1 
REMARK    2  A    between atoms: N_4  and  C_2 
REMARK       I    between atoms: C_3  and  N_4 
REMARK    3  A    between atoms: C_10  and  C_3 
REMARK    4  A    between atoms: N_6  and  C_5 
REMARK    5  A    between atoms: C_12  and  C_5 
REMARK    6  A    between atoms: C_14  and  N_6 
REMARK    7  A    between atoms: C_8  and  C_14 
REMARK    8  A    between atoms: O_17  and  C_8 
REMARK    9  A    between atoms: C_23  and  O_17 
ROOT
ATOM      1  C   UNL d   1      14.545  14.220  -1.738  0.00  0.00     0.036 A 
ATOM      2  C   UNL d   1      14.309  14.851  -2.192  0.00  0.00     0.086 A 
ATOM      3  C   UNL d   1      15.121  14.329  -1.165  0.00  0.00     0.010 A 
ATOM      4  C   UNL d   1      14.638  15.600  -2.086  0.00  0.00     0.020 A 
ATOM      5  C   UNL d   1      15.461  15.071  -1.046  0.00  0.00     0.035 A 
ATOM      6  C   UNL d   1      15.204  15.719  -1.527  0.00  0.00     0.008 A 
ATOM      7 BR   UNL d   1      16.051  15.180  -0.459  0.00  0.00    -0.049 Br
ENDROOT
BRANCH   1   8
ATOM      8  C   UNL d   1      14.216  13.471  -1.843  0.00  0.00     0.083 C 
BRANCH   8   9
ATOM      9  N   UNL d   1      13.822  13.274  -2.527  0.00  0.00    -0.238 NA
BRANCH   9  10
ATOM     10  C   UNL d   1      14.114  12.637  -2.975  0.00  0.00     0.167 C 
BRANCH  10  11
ATOM     11  C   UNL d   1      13.560  12.168  -3.401  0.00  0.00     0.320 C 
ATOM     12  O   UNL d   1      12.772  12.100  -3.099  0.00  0.00    -0.257 OA
BRANCH  11  13
ATOM     13  O   UNL d   1      13.771  11.779  -4.097  0.00  0.00    -0.270 OA
BRANCH  13  14
ATOM     14  C   UNL d   1      13.408  11.963  -4.785  0.00  0.00     0.126 C 
ATOM     15  C   UNL d   1      13.820  11.889  -5.471  0.00  0.00     0.029 C 
ENDBRANCH  13  14
ENDBRANCH  11  13
ENDBRANCH  10  11
ENDBRANCH   9  10
ENDBRANCH   8   9
BRANCH   8  16
ATOM     16  C   UNL d   1      14.285  12.911  -1.247  0.00  0.00     0.018 A 
ATOM     17  C   UNL d   1      13.623  12.656  -0.826  0.00  0.00     0.002 A 
ATOM     18  C   UNL d   1      13.671  12.101  -0.231  0.00  0.00     0.000 A 
ATOM     19  C   UNL d   1      14.443  11.779  -0.046  0.00  0.00     0.000 A 
ATOM     20  C   UNL d   1      15.110  12.029  -0.462  0.00  0.00     0.000 A 
ATOM     21  C   UNL d   1      15.033  12.593  -1.060  0.00  0.00     0.002 A 
ENDBRANCH   8  16
ENDBRANCH   1   8
BRANCH   2  22
ATOM     22  N   UNL d   1      13.714  14.732  -2.781  0.00  0.00    -0.208 NA
ATOM     23  C   UNL d   1      13.717  15.196  -3.467  0.00  0.00     0.279 C 
ATOM     24  O   UNL d   1      13.150  15.082  -4.029  0.00  0.00    -0.265 OA
BRANCH  23  25
ATOM     25  C   UNL d   1      14.287  15.770  -3.589  0.00  0.00     0.058 A 
ATOM     26  C   UNL d   1      14.201  16.523  -3.274  0.00  0.00     0.005 A 
ATOM     27  C   UNL d   1      14.786  17.090  -3.407  0.00  0.00     0.000 A 
ATOM     28  C   UNL d   1      15.446  16.899  -3.849  0.00  0.00     0.000 A 
ATOM     29  C   UNL d   1      15.528  16.156  -4.158  0.00  0.00     0.000 A 
ATOM     30  C   UNL d   1      14.943  15.589  -4.025  0.00  0.00     0.005 A 
ENDBRANCH  23  25
ENDBRANCH   2  22
TORSDOF 9
ENDMDL
MODEL 2
REMARK VINA RESULT:      57.6      1.869      4.518
REMARK  9 active torsions:
REMARK  status: ('A' for Active; 'I' for Inactive)
REMARK    1  A    between atoms: C_5  and  C_1 
REMARK    2  A    between atoms: N_4  and  C_2 
REMARK       I    between atoms: C_3  and  N_4 
REMARK    3  A    between atoms: C_10  and  C_3 
REMARK    4  A    between atoms: N_6  and  C_5 
REMARK    5  A    between atoms: C_12  and  C_5 
REMARK    6  A    between atoms: C_14  and  N_6 
REMARK    7  A    between atoms: C_8  and  C_14 
REMARK    8  A    between atoms: O_17  and  C_8 
REMARK    9  A    between atoms: C_23  and  O_17 
ROOT
ATOM      1  C   UNL d   1      13.945  13.661  -3.152  0.00  0.00     0.036 A 
ATOM      2  C   UNL d   1      14.430  13.313  -2.602  0.00  0.00     0.086 A 
ATOM      3  C   UNL d   1      13.396  13.204  -3.553  0.00  0.00     0.010 A 
ATOM      4  C   UNL d   1      14.379  12.506  -2.439  0.00  0.00     0.020 A 
ATOM      5  C   UNL d   1      13.332  12.396  -3.403  0.00  0.00     0.035 A 
ATOM      6  C   UNL d   1      13.844  12.047  -2.826  0.00  0.00     0.008 A 
ATOM      7 BR   UNL d   1      12.769  11.929  -3.815  0.00  0.00    -0.049 Br
ENDROOT
BRANCH   1   8
ATOM      8  C   UNL d   1      13.995  14.468  -3.315  0.00  0.00     0.083 C 
BRANCH   8   9
ATOM      9  N   UNL d   1      14.223  15.003  -2.745  0.00  0.00    -0.238 NA
BRANCH   9  10
ATOM     10  C   UNL d   1      14.656  15.670  -2.987  0.00  0.00     0.167 C 
BRANCH  10  11
ATOM     11  C   UNL d   1      14.728  16.310  -2.445  0.00  0.00     0.320 C 
ATOM     12  O   UNL d   1      14.171  16.367  -1.811  0.00  0.00    -0.257 OA
BRANCH  11  13
ATOM     13  O   UNL d   1      15.326  16.873  -2.522  0.00  0.00    -0.270 OA
BRANCH  13  14
ATOM     14  C   UNL d   1      15.654  17.202  -1.872  0.00  0.00     0.126 C 
ATOM     15  C   UNL d   1      15.212  17.256  -1.202  0.00  0.00     0.029 C 
ENDBRANCH  13  14
ENDBRANCH  11  13
ENDBRANCH  10  11
ENDBRANCH   9  10
ENDBRANCH   8   9
BRANCH   8  16
ATOM     16  C   UNL d   1      13.812  14.742  -4.067  0.00  0.00     0.018 A 
ATOM     17  C   UNL d   1      13.076  15.077  -4.228  0.00  0.00     0.002 A 
ATOM     18  C   UNL d   1      12.875  15.354  -4.969  0.00  0.00     0.000 A 
ATOM     19  C   UNL d   1      13.459  15.289  -5.592  0.00  0.00     0.000 A 
ATOM     20  C   UNL d   1      14.198  14.955  -5.438  0.00  0.00     0.000 A 
ATOM     21  C   UNL d   1      14.375  14.682  -4.679  0.00  0.00     0.002 A 
ENDBRANCH   8  16
ENDBRANCH   1   8
BRANCH   2  22
ATOM     22  N   UNL d   1      14.994  13.790  -2.191  0.00  0.00    -0.208 NA
ATOM     23  C   UNL d   1      15.100  13.691  -1.375  0.00  0.00     0.279 C 
ATOM     24  O   UNL d   1      15.639  14.146  -0.985  0.00  0.00    -0.265 OA
BRANCH  23  25
ATOM     25  C   UNL d   1      14.668  13.138  -0.955  0.00  0.00     0.058 A 
ATOM     26  C   UNL d   1      14.080  13.371  -0.432  0.00  0.00     0.005 A 
ATOM     27  C   UNL d   1      13.654  12.799  -0.017  0.00  0.00     0.000 A 
ATOM     28  C   UNL d   1      13.818  12.007  -0.128  0.00  0.00     0.000 A 
ATOM     29  C   UNL d   1      14.398  11.780  -0.645  0.00  0.00     0.000 A 
ATOM     30  C   UNL d   1      14.825  12.352  -1.060  0.00  0.00     0.005 A 
ENDBRANCH  23  25
ENDBRANCH   2  22
TORSDOF 9
ENDMDL
MODEL 3
REMARK VINA RESULT:      58.6      1.860      3.211
REMARK  9 active torsions:
REMARK  status: ('A' for Active; 'I' for Inactive)
REMARK    1  A    between atoms: C_5  and  C_1 
REMARK    2  A    between atoms: N_4  and  C_2 
REMARK       I    between atoms: C_3  and  N_4 
REMARK    3  A    between atoms: C_10  and  C_3 
REMARK    4  A    between atoms: N_6  and  C_5 
REMARK    5  A    between atoms: C_12  and  C_5 
REMARK    6  A    between atoms: C_14  and  N_6 
REMARK    7  A    between atoms: C_8  and  C_14 
REMARK    8  A    between atoms: O_17  and  C_8 
REMARK    9  A    between atoms: C_23  and  O_17 
ROOT
ATOM      1  C   UNL d   1      13.961  13.445  -2.581  0.00  0.00     0.036 A 
ATOM      2  C   UNL d   1      13.942  13.987  -3.186  0.00  0.00     0.086 A 
ATOM      3  C   UNL d   1      13.603  12.716  -2.681  0.00  0.00     0.010 A 
ATOM      4  C   UNL d   1      13.567  13.815  -3.900  0.00  0.00     0.020 A 
ATOM      5  C   UNL d   1      13.223  12.527  -3.389  0.00  0.00     0.035 A 
ATOM      6  C   UNL d   1      13.211  13.102  -4.010  0.00  0.00     0.008 A 
ATOM      7 BR   UNL d   1      12.856  11.779  -3.489  0.00  0.00    -0.049 Br
ENDROOT
BRANCH   1   8
ATOM      8  C   UNL d   1      14.336  13.617  -1.867  0.00  0.00     0.083 C 
BRANCH   8   9
ATOM      9  N   UNL d   1      14.385  14.379  -1.585  0.00  0.00    -0.238 NA
BRANCH   9  10
ATOM     10  C   UNL d   1      14.744  14.500  -0.846  0.00  0.00     0.167 C 
BRANCH  10  11
ATOM     11  C   UNL d   1      14.730  15.277  -0.523  0.00  0.00     0.320 C 
ATOM     12  O   UNL d   1      13.986  15.677  -0.466  0.00  0.00    -0.257 OA
BRANCH  11  13
ATOM     13  O   UNL d   1      15.420  15.648  -0.265  0.00  0.00    -0.270 OA
BRANCH  13  14
ATOM     14  C   UNL d   1      15.710  16.277  -0.664  0.00  0.00     0.126 C 
ATOM     15  C   UNL d   1      15.515  17.016  -0.415  0.00  0.00     0.029 C 
ENDBRANCH  13  14
ENDBRANCH  11  13
ENDBRANCH  10  11
ENDBRANCH   9  10
ENDBRANCH   8   9
BRANCH   8  16
ATOM     16  C   UNL d   1      14.669  13.008  -1.427  0.00  0.00     0.018 A 
ATOM     17  C   UNL d   1      14.213  12.573  -0.894  0.00  0.00     0.002 A 
ATOM     18  C   UNL d   1      14.525  11.965  -0.449  0.00  0.00     0.000 A 
ATOM     19  C   UNL d   1      15.356  11.782  -0.548  0.00  0.00     0.000 A 
ATOM     20  C   UNL d   1      15.818  12.213  -1.079  0.00  0.00     0.000 A 
ATOM     21  C   UNL d   1      15.477  12.824  -1.518  0.00  0.00     0.002 A 
ENDBRANCH   8  16
ENDBRANCH   1   8
BRANCH   2  22
ATOM     22  N   UNL d   1      14.314  14.738  -3.077  0.00  0.00    -0.208 NA
ATOM     23  C   UNL d   1      14.294  15.300  -3.685  0.00  0.00     0.279 C 
ATOM     24  O   UNL d   1      14.649  16.016  -3.580  0.00  0.00    -0.265 OA
BRANCH  23  25
ATOM     25  C   UNL d   1      13.919  15.142  -4.395  0.00  0.00     0.058 A 
ATOM     26  C   UNL d   1      13.131  15.341  -4.509  0.00  0.00     0.005 A 
ATOM     27  C   UNL d   1      12.769  15.175  -5.232  0.00  0.00     0.000 A 
ATOM     28  C   UNL d   1      13.195  14.814  -5.828  0.00  0.00     0.000 A 
ATOM     29  C   UNL d   1      13.972  14.619  -5.713  0.00  0.00     0.000 A 
ATOM     30  C   UNL d   1      14.334  14.786  -4.990  0.00  0.00     0.005 A 
ENDBRANCH  23  25
ENDBRANCH   2  22
TORSDOF 9
ENDMDL
