MODEL 1
REMARK VINA RESULT:      74.8      0.000      0.000
REMARK  6 active torsions:
REMARK  status: ('A' for Active; 'I' for Inactive)
REMARK    1  A    between atoms: C_5  and  N_1 
REMARK    2  A    between atoms: N_2  and  C_5 
REMARK    3  A    between atoms: C_12  and  C_9 
REMARK    4  A    between atoms: C_14  and  C_10 
REMARK    5  A    between atoms: O_29  and  C_20 
REMARK    6  A    between atoms: O_28  and  C_21 
ROOT
ATOM      1  N   UNL d   1      14.362  15.708  -3.674  0.00  0.00    -0.211 N 
ATOM      2  N   UNL d   1      14.525  16.480  -3.873  0.00  0.00    -0.164 NA
ATOM      3  C   UNL d   1      14.253  16.598  -4.645  0.00  0.00     0.103 A 
ATOM      4  C   UNL d   1      13.996  15.351  -4.309  0.00  0.00     0.086 A 
ATOM      5  C   UNL d   1      13.937  15.919  -4.902  0.00  0.00     0.040 A 
ENDROOT
BRANCH   1   6
ATOM      6  C   UNL d   1      14.501  15.272  -2.984  0.00  0.00     0.186 C 
BRANCH   6   7
ATOM      7  N   UNL d   1      14.758  15.662  -2.308  0.00  0.00    -0.254 N 
ATOM      8  C   UNL d   1      14.919  16.466  -2.193  0.00  0.00     0.305 A 
ATOM      9  C   UNL d   1      15.162  16.621  -1.434  0.00  0.00     0.253 A 
ATOM     10  O   UNL d   1      14.680  16.364  -2.965  0.00  0.00    -0.263 OA
ATOM     11  O   UNL d   1      15.369  17.351  -1.116  0.00  0.00    -0.281 OA
ATOM     12  C   UNL d   1      15.159  15.888  -1.039  0.00  0.00     0.060 A 
ATOM     13  C   UNL d   1      14.913  15.302  -1.572  0.00  0.00     0.072 A 
ATOM     14  C   UNL d   1      15.354  15.683  -0.251  0.00  0.00     0.005 A 
ATOM     15  C   UNL d   1      14.858  14.504  -1.324  0.00  0.00     0.018 A 
ATOM     16  C   UNL d   1      15.052  14.313  -0.549  0.00  0.00     0.002 A 
ATOM     17  C   UNL d   1      15.298  14.898  -0.016  0.00  0.00     0.000 A 
ENDBRANCH   6   7
ENDBRANCH   1   6
BRANCH   4  18
ATOM     18  C   UNL d   1      13.725  14.584  -4.384  0.00  0.00     0.018 A 
ATOM     19  C   UNL d   1      14.102  14.037  -4.875  0.00  0.00     0.004 A 
ATOM     20  C   UNL d   1      13.820  13.253  -4.947  0.00  0.00     0.024 A 
ATOM     21  C   UNL d   1      13.158  13.019  -4.525  0.00  0.00     0.094 A 
ATOM     22  C   UNL d   1      12.774  13.564  -4.029  0.00  0.00     0.024 A 
ATOM     23  C   UNL d   1      13.051  14.338  -3.957  0.00  0.00     0.004 A 
BRANCH  21  24
ATOM     24  O   UNL d   1      12.874  12.245  -4.592  0.00  0.00    -0.328 OA
ATOM     25  C   UNL d   1      12.769  11.782  -3.910  0.00  0.00     0.181 C 
ENDBRANCH  21  24
ENDBRANCH   4  18
BRANCH   3  26
ATOM     26  C   UNL d   1      14.310  17.311  -5.061  0.00  0.00     0.019 A 
ATOM     27  C   UNL d   1      14.787  17.919  -4.754  0.00  0.00     0.004 A 
ATOM     28  C   UNL d   1      14.855  18.627  -5.151  0.00  0.00     0.024 A 
ATOM     29  C   UNL d   1      14.446  18.714  -5.843  0.00  0.00     0.094 A 
ATOM     30  C   UNL d   1      13.981  18.127  -6.147  0.00  0.00     0.024 A 
ATOM     31  C   UNL d   1      13.914  17.418  -5.749  0.00  0.00     0.004 A 
BRANCH  29  32
ATOM     32  O   UNL d   1      14.514  19.421  -6.238  0.00  0.00    -0.328 OA
ATOM     33  C   UNL d   1      14.706  20.116  -5.823  0.00  0.00     0.181 C 
ENDBRANCH  29  32
ENDBRANCH   3  26
TORSDOF 6
ENDMDL
