MODEL 1
REMARK VINA RESULT:      48.7      0.000      0.000
REMARK  5 active torsions:
REMARK  status: ('A' for Active; 'I' for Inactive)
REMARK       I    between atoms: C_3  and  N_1 
REMARK    1  A    between atoms: C_5  and  N_1 
REMARK    2  A    between atoms: C_2  and  C_3 
REMARK    3  A    between atoms: N_10  and  C_5 
REMARK    4  A    between atoms: C_13  and  N_10 
REMARK    5  A    between atoms: C_14  and  C_13 
ROOT
ATOM      1  C   UNL d   1     -55.651 -99.870 -43.900  0.00  0.00     0.224 C 
ATOM      2  S   UNL d   1     -55.254 -99.247 -43.529  0.00  0.00    -0.037 SA
ENDROOT
BRANCH   1   3
ATOM      3  N   UNL d   1     -56.438 -99.780 -44.122  0.00  0.00    -0.177 NA
ATOM      4  C   UNL d   1     -56.918 -99.237 -43.718  0.00  0.00     0.304 C 
ATOM      5  O   UNL d   1     -56.613 -98.795 -43.105  0.00  0.00    -0.263 OA
BRANCH   4   6
ATOM      6  C   UNL d   1     -57.706 -99.146 -43.940  0.00  0.00     0.158 A 
ATOM      7  O   UNL d   1     -57.987 -99.054 -44.708  0.00  0.00    -0.296 OA
ATOM      8  C   UNL d   1     -58.796 -98.983 -44.682  0.00  0.00     0.134 A 
ATOM      9 BR   UNL d   1     -59.297 -98.882 -45.322  0.00  0.00    -0.022 Br
ATOM     10  C   UNL d   1     -59.027 -99.030 -43.896  0.00  0.00     0.034 A 
ATOM     11  C   UNL d   1     -58.346 -99.132 -43.431  0.00  0.00     0.032 A 
ENDBRANCH   4   6
ENDBRANCH   1   3
BRANCH   1  12
ATOM     12  N   UNL d   1     -55.255-100.575 -44.043  0.00  0.00    -0.216 NA
BRANCH  12  13
ATOM     13  C   UNL d   1     -54.916-100.704 -44.772  0.00  0.00     0.101 C 
BRANCH  13  14
ATOM     14  C   UNL d   1     -55.025-101.426 -45.146  0.00  0.00     0.019 A 
ATOM     15  C   UNL d   1     -55.393-102.050 -44.752  0.00  0.00     0.002 A 
ATOM     16  C   UNL d   1     -55.499-102.773 -45.134  0.00  0.00     0.000 A 
ATOM     17  C   UNL d   1     -55.237-102.873 -45.912  0.00  0.00     0.000 A 
ATOM     18  C   UNL d   1     -54.869-102.249 -46.307  0.00  0.00     0.000 A 
ATOM     19  C   UNL d   1     -54.763-101.526 -45.925  0.00  0.00     0.002 A 
ENDBRANCH  13  14
ENDBRANCH  12  13
ENDBRANCH   1  12
TORSDOF 5
ENDMDL
