MODEL 1
REMARK VINA RESULT:      -6.5      0.000      0.000
REMARK  3 active torsions:
REMARK  status: ('A' for Active; 'I' for Inactive)
REMARK    1  A    between atoms: N_2  and  N_1 
REMARK    2  A    between atoms: C_3  and  N_1 
REMARK    3  A    between atoms: C_4  and  N_2 
ROOT
ATOM      1  N   UNL d   1     -48.333  14.240  23.150  0.00  0.00    -0.148 NA
ENDROOT
BRANCH   1   2
ATOM      2  N   UNL d   1     -48.763  14.718  22.642  0.00  0.00    -0.148 NA
BRANCH   2   3
ATOM      3  C   UNL d   1     -49.540  14.960  22.875  0.00  0.00     0.103 A 
ATOM      4  C   UNL d   1     -49.635  15.556  23.433  0.00  0.00     0.021 A 
ATOM      5  C   UNL d   1     -50.391  15.794  23.662  0.00  0.00     0.002 A 
ATOM      6  C   UNL d   1     -51.060  15.429  23.326  0.00  0.00     0.000 A 
ATOM      7  C   UNL d   1     -50.958  14.834  22.768  0.00  0.00     0.002 A 
ATOM      8  C   UNL d   1     -50.209  14.595  22.539  0.00  0.00     0.021 A 
ENDBRANCH   2   3
ENDBRANCH   1   2
BRANCH   1   9
ATOM      9  C   UNL d   1     -47.591  13.972  22.901  0.00  0.00     0.103 A 
ATOM     10  C   UNL d   1     -46.943  14.478  22.909  0.00  0.00     0.022 A 
ATOM     11  C   UNL d   1     -46.202  14.195  22.655  0.00  0.00     0.022 A 
ATOM     12  C   UNL d   1     -46.116  13.443  22.407  0.00  0.00     0.103 A 
ATOM     13  C   UNL d   1     -46.767  12.923  22.396  0.00  0.00     0.022 A 
ATOM     14  N   UNL d   1     -45.364  13.177  22.157  0.00  0.00    -0.148 N 
ATOM     15  C   UNL d   1     -47.502  13.189  22.643  0.00  0.00     0.022 A 
ENDBRANCH   1   9
TORSDOF 3
ENDMDL
MODEL 2
REMARK VINA RESULT:      -6.4      1.010      4.004
REMARK  3 active torsions:
REMARK  status: ('A' for Active; 'I' for Inactive)
REMARK    1  A    between atoms: N_2  and  N_1 
REMARK    2  A    between atoms: C_3  and  N_1 
REMARK    3  A    between atoms: C_4  and  N_2 
ROOT
ATOM      1  N   UNL d   1     -48.332  13.970  22.742  0.00  0.00    -0.148 NA
ENDROOT
BRANCH   1   2
ATOM      2  N   UNL d   1     -47.712  13.974  23.278  0.00  0.00    -0.148 NA
BRANCH   2   3
ATOM      3  C   UNL d   1     -47.016  13.529  23.095  0.00  0.00     0.103 A 
ATOM      4  C   UNL d   1     -46.441  13.848  22.602  0.00  0.00     0.021 A 
ATOM      5  C   UNL d   1     -45.761  13.416  22.422  0.00  0.00     0.002 A 
ATOM      6  C   UNL d   1     -45.658  12.654  22.742  0.00  0.00     0.000 A 
ATOM      7  C   UNL d   1     -46.237  12.341  23.234  0.00  0.00     0.002 A 
ATOM      8  C   UNL d   1     -46.912  12.766  23.415  0.00  0.00     0.021 A 
ENDBRANCH   2   3
ENDBRANCH   1   2
BRANCH   1   9
ATOM      9  C   UNL d   1     -49.016  14.394  22.931  0.00  0.00     0.103 A 
ATOM     10  C   UNL d   1     -49.042  15.208  22.827  0.00  0.00     0.022 A 
ATOM     11  C   UNL d   1     -49.737  15.623  23.022  0.00  0.00     0.022 A 
ATOM     12  C   UNL d   1     -50.374  15.238  23.307  0.00  0.00     0.103 A 
ATOM     13  C   UNL d   1     -50.357  14.413  23.416  0.00  0.00     0.022 A 
ATOM     14  N   UNL d   1     -51.064  15.671  23.497  0.00  0.00    -0.148 N 
ATOM     15  C   UNL d   1     -49.679  13.993  23.227  0.00  0.00     0.022 A 
ENDBRANCH   1   9
TORSDOF 3
ENDMDL
MODEL 3
REMARK VINA RESULT:      -6.3      1.461      2.065
REMARK  3 active torsions:
REMARK  status: ('A' for Active; 'I' for Inactive)
REMARK    1  A    between atoms: N_2  and  N_1 
REMARK    2  A    between atoms: C_3  and  N_1 
REMARK    3  A    between atoms: C_4  and  N_2 
ROOT
ATOM      1  N   UNL d   1     -48.689  12.891  23.192  0.00  0.00    -0.148 NA
ENDROOT
BRANCH   1   2
ATOM      2  N   UNL d   1     -48.845  13.167  22.436  0.00  0.00    -0.148 NA
BRANCH   2   3
ATOM      3  C   UNL d   1     -49.585  13.552  22.290  0.00  0.00     0.103 A 
ATOM      4  C   UNL d   1     -50.158  13.182  21.833  0.00  0.00     0.021 A 
ATOM      5  C   UNL d   1     -50.880  13.555  21.689  0.00  0.00     0.002 A 
ATOM      6  C   UNL d   1     -51.026  14.311  22.008  0.00  0.00     0.000 A 
ATOM      7  C   UNL d   1     -50.448  14.675  22.465  0.00  0.00     0.002 A 
ATOM      8  C   UNL d   1     -49.731  14.308  22.610  0.00  0.00     0.021 A 
ENDBRANCH   2   3
ENDBRANCH   1   2
BRANCH   1   9
ATOM      9  C   UNL d   1     -47.990  12.468  23.318  0.00  0.00     0.103 A 
ATOM     10  C   UNL d   1     -48.019  11.688  23.575  0.00  0.00     0.022 A 
ATOM     11  C   UNL d   1     -47.308  11.272  23.698  0.00  0.00     0.022 A 
ATOM     12  C   UNL d   1     -46.604  11.623  23.569  0.00  0.00     0.103 A 
ATOM     13  C   UNL d   1     -46.565  12.413  23.309  0.00  0.00     0.022 A 
ATOM     14  N   UNL d   1     -45.900  11.190  23.698  0.00  0.00    -0.148 N 
ATOM     15  C   UNL d   1     -47.258  12.833  23.184  0.00  0.00     0.022 A 
ENDBRANCH   1   9
TORSDOF 3
ENDMDL
MODEL 4
REMARK VINA RESULT:      -6.0      1.966      4.114
REMARK  3 active torsions:
REMARK  status: ('A' for Active; 'I' for Inactive)
REMARK    1  A    between atoms: N_2  and  N_1 
REMARK    2  A    between atoms: C_3  and  N_1 
REMARK    3  A    between atoms: C_4  and  N_2 
ROOT
ATOM      1  N   UNL d   1     -48.055  12.592  22.667  0.00  0.00    -0.148 NA
ENDROOT
BRANCH   1   2
ATOM      2  N   UNL d   1     -47.559  12.966  23.201  0.00  0.00    -0.148 NA
BRANCH   2   3
ATOM      3  C   UNL d   1     -46.801  13.232  22.932  0.00  0.00     0.103 A 
ATOM      4  C   UNL d   1     -46.660  14.035  22.828  0.00  0.00     0.021 A 
ATOM      5  C   UNL d   1     -45.923  14.297  22.566  0.00  0.00     0.002 A 
ATOM      6  C   UNL d   1     -45.320  13.745  22.406  0.00  0.00     0.000 A 
ATOM      7  C   UNL d   1     -45.468  12.943  22.512  0.00  0.00     0.002 A 
ATOM      8  C   UNL d   1     -46.198  12.680  22.772  0.00  0.00     0.021 A 
ENDBRANCH   2   3
ENDBRANCH   1   2
BRANCH   1   9
ATOM      9  C   UNL d   1     -48.809  12.368  22.924  0.00  0.00     0.103 A 
ATOM     10  C   UNL d   1     -48.903  11.719  23.419  0.00  0.00     0.022 A 
ATOM     11  C   UNL d   1     -49.667  11.504  23.670  0.00  0.00     0.022 A 
ATOM     12  C   UNL d   1     -50.304  11.921  23.435  0.00  0.00     0.103 A 
ATOM     13  C   UNL d   1     -50.219  12.580  22.934  0.00  0.00     0.022 A 
ATOM     14  N   UNL d   1     -51.064  11.691  23.698  0.00  0.00    -0.148 N 
ATOM     15  C   UNL d   1     -49.472  12.802  22.680  0.00  0.00     0.022 A 
ENDBRANCH   1   9
TORSDOF 3
ENDMDL
MODEL 5
REMARK VINA RESULT:      -3.6      7.984      9.630
REMARK  3 active torsions:
REMARK  status: ('A' for Active; 'I' for Inactive)
REMARK    1  A    between atoms: N_2  and  N_1 
REMARK    2  A    between atoms: C_3  and  N_1 
REMARK    3  A    between atoms: C_4  and  N_2 
ROOT
ATOM      1  N   UNL d   1     -40.140  14.331  18.523  0.00  0.00    -0.148 NA
ENDROOT
BRANCH   1   2
ATOM      2  N   UNL d   1     -39.809  14.704  19.173  0.00  0.00    -0.148 NA
BRANCH   2   3
ATOM      3  C   UNL d   1     -40.317  14.926  19.814  0.00  0.00     0.103 A 
ATOM      4  C   UNL d   1     -40.577  15.702  19.882  0.00  0.00     0.021 A 
ATOM      5  C   UNL d   1     -41.071  15.922  20.505  0.00  0.00     0.002 A 
ATOM      6  C   UNL d   1     -41.306  15.354  21.067  0.00  0.00     0.000 A 
ATOM      7  C   UNL d   1     -41.042  14.579  20.993  0.00  0.00     0.002 A 
ATOM      8  C   UNL d   1     -40.552  14.358  20.376  0.00  0.00     0.021 A 
ENDBRANCH   2   3
ENDBRANCH   1   2
BRANCH   1   9
ATOM      9  C   UNL d   1     -39.652  14.165  17.877  0.00  0.00     0.103 A 
ATOM     10  C   UNL d   1     -39.650  14.658  17.220  0.00  0.00     0.022 A 
ATOM     11  C   UNL d   1     -39.153  14.479  16.576  0.00  0.00     0.022 A 
ATOM     12  C   UNL d   1     -38.682  13.837  16.592  0.00  0.00     0.103 A 
ATOM     13  C   UNL d   1     -38.677  13.331  17.252  0.00  0.00     0.022 A 
ATOM     14  N   UNL d   1     -38.190  13.673  15.935  0.00  0.00    -0.148 N 
ATOM     15  C   UNL d   1     -39.162  13.496  17.893  0.00  0.00     0.022 A 
ENDBRANCH   1   9
TORSDOF 3
ENDMDL
