MODEL 1
REMARK VINA RESULT:      -4.2      0.000      0.000
REMARK  4 active torsions:
REMARK  status: ('A' for Active; 'I' for Inactive)
REMARK    1  A    between atoms: C_18  and  C_5 
REMARK    2  A    between atoms: C_7  and  C_8 
REMARK       I    between atoms: C_8  and  N_17 
REMARK    3  A    between atoms: N_17  and  C_19 
REMARK    4  A    between atoms: C_19  and  C_18 
ROOT
ATOM      1  C   UNL d   1      56.724  -0.356  32.187  0.00  0.00     0.148 A 
ATOM      2  N   UNL d   1      57.114   0.346  32.379  0.00  0.00    -0.288 N 
ATOM      3  N   UNL d   1      56.870  -0.519  31.399  0.00  0.00    -0.227 NA
ATOM      4  C   UNL d   1      57.501   0.611  31.695  0.00  0.00     0.101 A 
ATOM      5  C   UNL d   1      57.346   0.072  31.093  0.00  0.00     0.102 A 
ATOM      6  C   UNL d   1      56.289  -0.746  32.769  0.00  0.00     0.035 A 
ATOM      7  C   UNL d   1      57.071   0.656  33.141  0.00  0.00     0.082 A 
ATOM      8  C   UNL d   1      56.637   0.263  33.714  0.00  0.00     0.019 A 
ATOM      9  C   UNL d   1      56.240  -0.445  33.530  0.00  0.00     0.004 A 
ATOM     10  C   UNL d   1      55.890  -1.458  32.585  0.00  0.00     0.003 C 
ENDROOT
BRANCH   5  11
ATOM     11  C   UNL d   1      57.622   0.114  30.311  0.00  0.00     0.042 C 
BRANCH  11  12
ATOM     12  C   UNL d   1      58.377  -0.170  30.122  0.00  0.00     0.104 C 
BRANCH  12  13
ATOM     13  N   UNL d   1      58.480  -0.659  29.472  0.00  0.00    -0.205 NA
ATOM     14  C   UNL d   1      59.218  -0.704  29.099  0.00  0.00     0.302 C 
ATOM     15  O   UNL d   1      59.315  -1.191  28.455  0.00  0.00    -0.263 OA
BRANCH  14  16
ATOM     16  C   UNL d   1      59.848  -0.251  29.386  0.00  0.00     0.158 A 
ATOM     17  O   UNL d   1      60.425  -0.601  29.850  0.00  0.00    -0.300 OA
ATOM     18  C   UNL d   1      60.978  -0.022  30.055  0.00  0.00     0.123 A 
ATOM     19  C   UNL d   1      60.743   0.682  29.719  0.00  0.00     0.029 A 
ATOM     20  C   UNL d   1      60.036   0.543  29.300  0.00  0.00     0.032 A 
ENDBRANCH  14  16
ENDBRANCH  12  13
ENDBRANCH  11  12
ENDBRANCH   5  11
TORSDOF 4
ENDMDL
MODEL 2
REMARK VINA RESULT:      -4.0      1.868      4.410
REMARK  4 active torsions:
REMARK  status: ('A' for Active; 'I' for Inactive)
REMARK    1  A    between atoms: C_18  and  C_5 
REMARK    2  A    between atoms: C_7  and  C_8 
REMARK       I    between atoms: C_8  and  N_17 
REMARK    3  A    between atoms: N_17  and  C_19 
REMARK    4  A    between atoms: C_19  and  C_18 
ROOT
ATOM      1  C   UNL d   1      58.837  -0.495  29.705  0.00  0.00     0.148 A 
ATOM      2  N   UNL d   1      58.958   0.251  30.039  0.00  0.00    -0.288 N 
ATOM      3  N   UNL d   1      58.113  -0.774  29.960  0.00  0.00    -0.227 NA
ATOM      4  C   UNL d   1      58.293   0.425  30.504  0.00  0.00     0.101 A 
ATOM      5  C   UNL d   1      57.775  -0.213  30.451  0.00  0.00     0.102 A 
ATOM      6  C   UNL d   1      59.416  -0.812  29.210  0.00  0.00     0.035 A 
ATOM      7  C   UNL d   1      59.645   0.675  29.882  0.00  0.00     0.082 A 
ATOM      8  C   UNL d   1      60.216   0.355  29.390  0.00  0.00     0.019 A 
ATOM      9  C   UNL d   1      60.105  -0.395  29.049  0.00  0.00     0.004 A 
ATOM     10  C   UNL d   1      59.306  -1.566  28.866  0.00  0.00     0.003 C 
ENDROOT
BRANCH   5  11
ATOM     11  C   UNL d   1      57.037  -0.280  30.828  0.00  0.00     0.042 C 
BRANCH  11  12
ATOM     12  C   UNL d   1      57.000  -0.443  31.639  0.00  0.00     0.104 C 
BRANCH  12  13
ATOM     13  N   UNL d   1      56.669  -1.145  31.902  0.00  0.00    -0.205 NA
ATOM     14  C   UNL d   1      56.255  -1.166  32.619  0.00  0.00     0.302 C 
ATOM     15  O   UNL d   1      55.928  -1.865  32.875  0.00  0.00    -0.263 OA
BRANCH  14  16
ATOM     16  C   UNL d   1      56.180  -0.475  33.066  0.00  0.00     0.158 A 
ATOM     17  O   UNL d   1      56.734  -0.297  33.643  0.00  0.00    -0.300 OA
ATOM     18  C   UNL d   1      56.519   0.419  33.995  0.00  0.00     0.123 A 
ATOM     19  C   UNL d   1      55.836   0.682  33.639  0.00  0.00     0.029 A 
ATOM     20  C   UNL d   1      55.620   0.126  33.056  0.00  0.00     0.032 A 
ENDBRANCH  14  16
ENDBRANCH  12  13
ENDBRANCH  11  12
ENDBRANCH   5  11
TORSDOF 4
ENDMDL
MODEL 3
REMARK VINA RESULT:      -2.5      0.838      1.347
REMARK  4 active torsions:
REMARK  status: ('A' for Active; 'I' for Inactive)
REMARK    1  A    between atoms: C_18  and  C_5 
REMARK    2  A    between atoms: C_7  and  C_8 
REMARK       I    between atoms: C_8  and  N_17 
REMARK    3  A    between atoms: N_17  and  C_19 
REMARK    4  A    between atoms: C_19  and  C_18 
ROOT
ATOM      1  C   UNL d   1      56.873  -0.197  32.110  0.00  0.00     0.148 A 
ATOM      2  N   UNL d   1      57.368   0.426  32.330  0.00  0.00    -0.288 N 
ATOM      3  N   UNL d   1      56.964  -0.322  31.307  0.00  0.00    -0.227 NA
ATOM      4  C   UNL d   1      57.764   0.682  31.648  0.00  0.00     0.101 A 
ATOM      5  C   UNL d   1      57.510   0.216  31.018  0.00  0.00     0.102 A 
ATOM      6  C   UNL d   1      56.407  -0.563  32.684  0.00  0.00     0.035 A 
ATOM      7  C   UNL d   1      57.399   0.682  33.111  0.00  0.00     0.082 A 
ATOM      8  C   UNL d   1      56.934   0.315  33.677  0.00  0.00     0.019 A 
ATOM      9  C   UNL d   1      56.432  -0.314  33.466  0.00  0.00     0.004 A 
ATOM     10  C   UNL d   1      55.903  -1.195  32.473  0.00  0.00     0.003 C 
ENDROOT
BRANCH   5  11
ATOM     11  C   UNL d   1      57.760   0.275  30.229  0.00  0.00     0.042 C 
BRANCH  11  12
ATOM     12  C   UNL d   1      58.378  -0.203  29.953  0.00  0.00     0.104 C 
BRANCH  12  13
ATOM     13  N   UNL d   1      58.944   0.109  29.449  0.00  0.00    -0.205 NA
ATOM     14  C   UNL d   1      59.400  -0.394  28.975  0.00  0.00     0.302 C 
ATOM     15  O   UNL d   1      59.961  -0.079  28.477  0.00  0.00    -0.263 OA
BRANCH  14  16
ATOM     16  C   UNL d   1      59.279  -1.211  29.014  0.00  0.00     0.158 A 
ATOM     17  O   UNL d   1      59.768  -1.676  29.478  0.00  0.00    -0.300 OA
ATOM     18  C   UNL d   1      59.518  -2.461  29.409  0.00  0.00     0.123 A 
ATOM     19  C   UNL d   1      58.879  -2.481  28.906  0.00  0.00     0.029 A 
ATOM     20  C   UNL d   1      58.725  -1.700  28.655  0.00  0.00     0.032 A 
ENDBRANCH  14  16
ENDBRANCH  12  13
ENDBRANCH  11  12
ENDBRANCH   5  11
TORSDOF 4
ENDMDL
MODEL 4
REMARK VINA RESULT:      -2.4      9.176     10.301
REMARK  4 active torsions:
REMARK  status: ('A' for Active; 'I' for Inactive)
REMARK    1  A    between atoms: C_18  and  C_5 
REMARK    2  A    between atoms: C_7  and  C_8 
REMARK       I    between atoms: C_8  and  N_17 
REMARK    3  A    between atoms: N_17  and  C_19 
REMARK    4  A    between atoms: C_19  and  C_18 
ROOT
ATOM      1  C   UNL d   1      59.155  -9.808  31.985  0.00  0.00     0.148 A 
ATOM      2  N   UNL d   1      59.938  -9.813  31.720  0.00  0.00    -0.288 N 
ATOM      3  N   UNL d   1      59.163  -9.805  32.802  0.00  0.00    -0.227 NA
ATOM      4  C   UNL d   1      60.426  -9.814  32.390  0.00  0.00     0.101 A 
ATOM      5  C   UNL d   1      59.942  -9.809  33.056  0.00  0.00     0.102 A 
ATOM      6  C   UNL d   1      58.544  -9.805  31.431  0.00  0.00     0.035 A 
ATOM      7  C   UNL d   1      60.109  -9.817  30.915  0.00  0.00     0.082 A 
ATOM      8  C   UNL d   1      59.498  -9.815  30.370  0.00  0.00     0.019 A 
ATOM      9  C   UNL d   1      58.706  -9.809  30.626  0.00  0.00     0.004 A 
ATOM     10  C   UNL d   1      57.748  -9.799  31.687  0.00  0.00     0.003 C 
ENDROOT
BRANCH   5  11
ATOM     11  C   UNL d   1      60.193  -9.808  33.848  0.00  0.00     0.042 C 
BRANCH  11  12
ATOM     12  C   UNL d   1      59.820  -9.316  34.400  0.00  0.00     0.104 C 
BRANCH  12  13
ATOM     13  N   UNL d   1      59.395  -9.642  35.020  0.00  0.00    -0.205 NA
ATOM     14  C   UNL d   1      59.281  -9.211  35.717  0.00  0.00     0.302 C 
ATOM     15  O   UNL d   1      58.859  -9.540  36.330  0.00  0.00    -0.263 OA
BRANCH  14  16
ATOM     16  C   UNL d   1      59.597  -8.450  35.782  0.00  0.00     0.158 A 
ATOM     17  O   UNL d   1      59.128  -7.796  35.628  0.00  0.00    -0.300 OA
ATOM     18  C   UNL d   1      59.587  -7.118  35.735  0.00  0.00     0.123 A 
ATOM     19  C   UNL d   1      60.336  -7.350  35.954  0.00  0.00     0.029 A 
ATOM     20  C   UNL d   1      60.347  -8.183  35.985  0.00  0.00     0.032 A 
ENDBRANCH  14  16
ENDBRANCH  12  13
ENDBRANCH  11  12
ENDBRANCH   5  11
TORSDOF 4
ENDMDL
MODEL 5
REMARK VINA RESULT:      -2.1      2.303      4.539
REMARK  4 active torsions:
REMARK  status: ('A' for Active; 'I' for Inactive)
REMARK    1  A    between atoms: C_18  and  C_5 
REMARK    2  A    between atoms: C_7  and  C_8 
REMARK       I    between atoms: C_8  and  N_17 
REMARK    3  A    between atoms: N_17  and  C_19 
REMARK    4  A    between atoms: C_19  and  C_18 
ROOT
ATOM      1  C   UNL d   1      59.766  -2.963  28.738  0.00  0.00     0.148 A 
ATOM      2  N   UNL d   1      60.559  -2.792  28.893  0.00  0.00    -0.288 N 
ATOM      3  N   UNL d   1      59.349  -2.260  28.743  0.00  0.00    -0.227 NA
ATOM      4  C   UNL d   1      60.621  -1.971  28.994  0.00  0.00     0.101 A 
ATOM      5  C   UNL d   1      59.870  -1.648  28.900  0.00  0.00     0.102 A 
ATOM      6  C   UNL d   1      59.540  -3.746  28.614  0.00  0.00     0.035 A 
ATOM      7  C   UNL d   1      61.119  -3.394  28.924  0.00  0.00     0.082 A 
ATOM      8  C   UNL d   1      60.889  -4.170  28.800  0.00  0.00     0.019 A 
ATOM      9  C   UNL d   1      60.093  -4.352  28.643  0.00  0.00     0.004 A 
ATOM     10  C   UNL d   1      58.740  -3.931  28.456  0.00  0.00     0.003 C 
ENDROOT
BRANCH   5  11
ATOM     11  C   UNL d   1      59.670  -0.843  28.953  0.00  0.00     0.042 C 
BRANCH  11  12
ATOM     12  C   UNL d   1      58.988  -0.612  29.364  0.00  0.00     0.104 C 
BRANCH  12  13
ATOM     13  N   UNL d   1      58.398  -0.195  28.977  0.00  0.00    -0.205 NA
ATOM     14  C   UNL d   1      57.867   0.270  29.410  0.00  0.00     0.302 C 
ATOM     15  O   UNL d   1      57.284   0.682  29.021  0.00  0.00    -0.263 OA
BRANCH  14  16
ATOM     16  C   UNL d   1      57.937   0.309  30.232  0.00  0.00     0.158 A 
ATOM     17  O   UNL d   1      57.384  -0.062  30.709  0.00  0.00    -0.300 OA
ATOM     18  C   UNL d   1      57.593   0.070  31.498  0.00  0.00     0.123 A 
ATOM     19  C   UNL d   1      58.271   0.520  31.508  0.00  0.00     0.029 A 
ATOM     20  C   UNL d   1      58.491   0.672  30.718  0.00  0.00     0.032 A 
ENDBRANCH  14  16
ENDBRANCH  12  13
ENDBRANCH  11  12
ENDBRANCH   5  11
TORSDOF 4
ENDMDL
