MODEL 1
REMARK VINA RESULT:      37.1      0.000      0.000
REMARK  3 active torsions:
REMARK  status: ('A' for Active; 'I' for Inactive)
REMARK    1  A    between atoms: C_13  and  N_2 
REMARK    2  A    between atoms: N_5  and  C_14 
REMARK    3  A    between atoms: C_14  and  C_13 
ROOT
ATOM      1  C   UNL d   1      46.249 -18.124  42.542  0.00  0.00     0.166 A 
ATOM      2  N   UNL d   1      46.147 -17.883  43.337  0.00  0.00    -0.288 N 
ATOM      3  C   UNL d   1      46.441 -18.930  42.536  0.00  0.00     0.117 A 
ATOM      4  N   UNL d   1      46.186 -17.692  41.832  0.00  0.00    -0.225 NA
ATOM      5  N   UNL d   1      46.571 -19.309  41.821  0.00  0.00    -0.241 NA
ATOM      6  C   UNL d   1      46.458 -19.191  43.332  0.00  0.00     0.037 A 
ATOM      7  C   UNL d   1      46.278 -18.546  43.809  0.00  0.00     0.067 A 
ATOM      8  C   UNL d   1      46.316 -18.069  41.109  0.00  0.00     0.101 A 
ATOM      9  C   UNL d   1      46.508 -18.877  41.105  0.00  0.00     0.099 A 
ATOM     10  C   UNL d   1      46.621 -19.952  43.660  0.00  0.00     0.003 A 
ATOM     11  C   UNL d   1      46.257 -18.653  44.650  0.00  0.00     0.018 A 
ATOM     12  C   UNL d   1      46.254 -17.642  40.391  0.00  0.00     0.021 A 
ATOM     13  C   UNL d   1      46.632 -19.229  40.390  0.00  0.00     0.021 A 
ATOM     14  C   UNL d   1      46.600 -20.055  44.470  0.00  0.00     0.000 A 
ATOM     15  C   UNL d   1      46.420 -19.411  44.955  0.00  0.00     0.002 A 
ATOM     16  C   UNL d   1      46.576 -18.825  39.668  0.00  0.00     0.002 A 
ATOM     17  C   UNL d   1      46.384 -18.017  39.673  0.00  0.00     0.002 A 
ENDROOT
BRANCH   2  18
ATOM     18  C   UNL d   1      45.982 -17.329  43.931  0.00  0.00     0.101 C 
BRANCH  18  19
ATOM     19  C   UNL d   1      45.960 -16.524  43.752  0.00  0.00     0.104 C 
BRANCH  19  20
ATOM     20  N   UNL d   1      45.553 -16.009  44.251  0.00  0.00    -0.250 N 
ATOM     21  C   UNL d   1      45.054 -16.070  44.696  0.00  0.00     0.378 A 
ATOM     22  O   UNL d   1      44.933 -15.462  44.954  0.00  0.00    -0.258 OA
ATOM     23  O   UNL d   1      44.734 -16.634  44.854  0.00  0.00    -0.237 OA
ATOM     24  C   UNL d   1      45.358 -15.028  44.667  0.00  0.00     0.121 A 
ATOM     25  C   UNL d   1      45.741 -15.367  44.233  0.00  0.00     0.092 A 
ATOM     26  C   UNL d   1      45.448 -14.365  44.744  0.00  0.00     0.026 A 
ATOM     27  C   UNL d   1      46.211 -15.051  43.876  0.00  0.00     0.020 A 
ATOM     28  C   UNL d   1      46.299 -14.387  43.955  0.00  0.00     0.002 A 
ATOM     29  C   UNL d   1      45.918 -14.050  44.387  0.00  0.00     0.002 A 
ENDBRANCH  19  20
ENDBRANCH  18  19
ENDBRANCH   2  18
TORSDOF 3
ENDMDL
