MODEL 1
REMARK VINA RESULT:      60.6      0.000      0.000
REMARK  6 active torsions:
REMARK  status: ('A' for Active; 'I' for Inactive)
REMARK    1  A    between atoms: C_3  and  N_4 
REMARK       I    between atoms: N_4  and  C_6 
REMARK    2  A    between atoms: C_9  and  C_5 
REMARK    3  A    between atoms: C_6  and  C_16 
REMARK    4  A    between atoms: S_12  and  C_7 
REMARK    5  A    between atoms: O_20  and  C_8 
REMARK    6  A    between atoms: C_16  and  S_12 
ROOT
ATOM      1  S   UNL d   1     -55.357-102.036 -41.298  0.00  0.00    -0.061 SA
ENDROOT
BRANCH   1   2
ATOM      2  C   UNL d   1     -55.382-102.172 -40.482  0.00  0.00     0.133 A 
ATOM      3  N   UNL d   1     -56.064-102.474 -40.129  0.00  0.00    -0.141 NA
ATOM      4  N   UNL d   1     -56.088-102.609 -39.313  0.00  0.00    -0.146 NA
ATOM      5  C   UNL d   1     -55.421-102.439 -38.844  0.00  0.00     0.121 A 
ATOM      6  C   UNL d   1     -54.739-102.136 -39.197  0.00  0.00     0.025 A 
ATOM      7  C   UNL d   1     -54.712-102.001 -40.008  0.00  0.00     0.029 A 
BRANCH   5   8
ATOM      8  C   UNL d   1     -55.452-102.577 -38.025  0.00  0.00     0.101 A 
ATOM      9  N   UNL d   1     -54.762-102.551 -37.575  0.00  0.00    -0.242 NA
ATOM     10  C   UNL d   1     -54.803-102.687 -36.777  0.00  0.00     0.099 A 
ATOM     11  C   UNL d   1     -55.533-102.852 -36.410  0.00  0.00     0.021 A 
ATOM     12  C   UNL d   1     -56.218-102.877 -36.861  0.00  0.00     0.003 A 
ATOM     13  C   UNL d   1     -56.187-102.740 -37.674  0.00  0.00     0.021 A 
ENDBRANCH   5   8
ENDBRANCH   1   2
BRANCH   1  14
ATOM     14  C   UNL d   1     -54.711-101.664 -41.637  0.00  0.00     0.099 C 
BRANCH  14  15
ATOM     15  C   UNL d   1     -54.812-101.218 -42.318  0.00  0.00     0.286 C 
ATOM     16  N   UNL d   1     -54.934-101.582 -43.041  0.00  0.00    -0.206 NA
ATOM     17  O   UNL d   1     -54.793-100.393 -42.283  0.00  0.00    -0.265 OA
BRANCH  16  18
ATOM     18  C   UNL d   1     -55.037-101.129 -43.732  0.00  0.00     0.107 A 
ATOM     19  C   UNL d   1     -55.225-101.498 -44.444  0.00  0.00     0.112 A 
ATOM     20  C   UNL d   1     -55.326-101.054 -45.121  0.00  0.00     0.026 A 
ATOM     21  C   UNL d   1     -55.240-100.228 -45.100  0.00  0.00     0.002 A 
ATOM     22  C   UNL d   1     -55.050 -99.851 -44.385  0.00  0.00     0.002 A 
ATOM     23  C   UNL d   1     -54.950-100.306 -43.704  0.00  0.00     0.021 A 
ATOM     24  C   UNL d   1     -54.965 -99.039 -44.362  0.00  0.00     0.000 C 
BRANCH  19  25
ATOM     25  O   UNL d   1     -55.322-102.262 -44.544  0.00  0.00    -0.327 OA
ATOM     26  C   UNL d   1     -54.780-102.735 -44.927  0.00  0.00     0.181 C 
ENDBRANCH  19  25
ENDBRANCH  16  18
ENDBRANCH  14  15
ENDBRANCH   1  14
TORSDOF 6
ENDMDL
MODEL 2
REMARK VINA RESULT:      63.5      2.299      3.293
REMARK  6 active torsions:
REMARK  status: ('A' for Active; 'I' for Inactive)
REMARK    1  A    between atoms: C_3  and  N_4 
REMARK       I    between atoms: N_4  and  C_6 
REMARK    2  A    between atoms: C_9  and  C_5 
REMARK    3  A    between atoms: C_6  and  C_16 
REMARK    4  A    between atoms: S_12  and  C_7 
REMARK    5  A    between atoms: O_20  and  C_8 
REMARK    6  A    between atoms: C_16  and  S_12 
ROOT
ATOM      1  S   UNL d   1     -55.105-100.226 -43.462  0.00  0.00    -0.061 SA
ENDROOT
BRANCH   1   2
ATOM      2  C   UNL d   1     -55.040-100.594 -42.723  0.00  0.00     0.133 A 
ATOM      3  N   UNL d   1     -54.895-101.404 -42.670  0.00  0.00    -0.141 NA
ATOM      4  N   UNL d   1     -54.830-101.770 -41.931  0.00  0.00    -0.146 NA
ATOM      5  C   UNL d   1     -54.912-101.319 -41.236  0.00  0.00     0.121 A 
ATOM      6  C   UNL d   1     -55.058-100.507 -41.289  0.00  0.00     0.025 A 
ATOM      7  C   UNL d   1     -55.122-100.141 -42.023  0.00  0.00     0.029 A 
BRANCH   5   8
ATOM      8  C   UNL d   1     -54.846-101.693 -40.497  0.00  0.00     0.101 A 
ATOM      9  N   UNL d   1     -54.830-102.516 -40.450  0.00  0.00    -0.242 NA
ATOM     10  C   UNL d   1     -54.766-102.871 -39.725  0.00  0.00     0.099 A 
ATOM     11  C   UNL d   1     -54.716-102.415 -39.029  0.00  0.00     0.021 A 
ATOM     12  C   UNL d   1     -54.732-101.595 -39.080  0.00  0.00     0.003 A 
ATOM     13  C   UNL d   1     -54.797-101.224 -39.813  0.00  0.00     0.021 A 
ENDBRANCH   5   8
ENDBRANCH   1   2
BRANCH   1  14
ATOM     14  C   UNL d   1     -55.366 -99.453 -43.520  0.00  0.00     0.099 C 
BRANCH  14  15
ATOM     15  C   UNL d   1     -55.956 -99.263 -44.058  0.00  0.00     0.286 C 
ATOM     16  N   UNL d   1     -56.745 -99.330 -43.853  0.00  0.00    -0.206 NA
ATOM     17  O   UNL d   1     -55.760 -99.001 -44.817  0.00  0.00    -0.265 OA
BRANCH  16  18
ATOM     18  C   UNL d   1     -57.344 -99.138 -44.399  0.00  0.00     0.107 A 
ATOM     19  C   UNL d   1     -58.102 -98.959 -44.135  0.00  0.00     0.112 A 
ATOM     20  C   UNL d   1     -58.689 -98.771 -44.670  0.00  0.00     0.026 A 
ATOM     21  C   UNL d   1     -58.527 -98.757 -45.484  0.00  0.00     0.002 A 
ATOM     22  C   UNL d   1     -57.763 -98.937 -45.756  0.00  0.00     0.002 A 
ATOM     23  C   UNL d   1     -57.175 -99.126 -45.209  0.00  0.00     0.021 A 
ATOM     24  C   UNL d   1     -57.602 -98.924 -46.557  0.00  0.00     0.000 C 
BRANCH  19  25
ATOM     25  O   UNL d   1     -58.331 -98.950 -43.392  0.00  0.00    -0.327 OA
ATOM     26  C   UNL d   1     -59.100 -99.085 -43.160  0.00  0.00     0.181 C 
ENDBRANCH  19  25
ENDBRANCH  16  18
ENDBRANCH  14  15
ENDBRANCH   1  14
TORSDOF 6
ENDMDL
