MODEL 1
REMARK VINA RESULT:      -1.9      0.000      0.000
REMARK  5 active torsions:
REMARK  status: ('A' for Active; 'I' for Inactive)
REMARK    1  A    between atoms: C_3  and  N_1 
REMARK    2  A    between atoms: C_6  and  C_3 
REMARK    3  A    between atoms: C_9  and  C_3 
REMARK    4  A    between atoms: N_5  and  C_6 
REMARK    5  A    between atoms: O_18  and  C_14 
ROOT
ATOM      1  C   UNL d   1     -42.202-122.423 -50.433  0.00  0.00     0.106 C 
ENDROOT
BRANCH   1   2
ATOM      2  N   UNL d   1     -41.836-122.640 -51.152  0.00  0.00    -0.228 N 
ATOM      3  N   UNL d   1     -41.763-123.365 -51.533  0.00  0.00    -0.165 NA
ATOM      4  C   UNL d   1     -41.338-123.225 -52.233  0.00  0.00     0.103 A 
ATOM      5  C   UNL d   1     -41.123-123.780 -52.804  0.00  0.00     0.022 C 
ATOM      6  C   UNL d   1     -41.161-122.414 -52.261  0.00  0.00     0.040 A 
ATOM      7  C   UNL d   1     -41.463-122.063 -51.607  0.00  0.00     0.085 A 
ATOM      8  C   UNL d   1     -41.401-121.243 -51.431  0.00  0.00     0.021 C 
ENDBRANCH   1   2
BRANCH   1   9
ATOM      9  C   UNL d   1     -42.790-121.829 -50.443  0.00  0.00     0.167 C 
BRANCH   9  10
ATOM     10  N   UNL d   1     -43.577-122.023 -50.564  0.00  0.00    -0.111 N 
ATOM     11  O   UNL d   1     -43.988-121.700 -51.201  0.00  0.00    -0.532 OA
ATOM     12  O   UNL d   1     -43.951-122.538 -50.049  0.00  0.00    -0.532 OA
ENDBRANCH   9  10
ENDBRANCH   1   9
BRANCH   1  13
ATOM     13  C   UNL d   1     -41.978-122.798 -49.722  0.00  0.00     0.019 A 
ATOM     14  C   UNL d   1     -42.364-123.483 -49.449  0.00  0.00     0.004 A 
ATOM     15  C   UNL d   1     -42.111-123.816 -48.749  0.00  0.00     0.024 A 
ATOM     16  C   UNL d   1     -41.482-123.467 -48.329  0.00  0.00     0.094 A 
ATOM     17  C   UNL d   1     -41.123-122.810 -48.603  0.00  0.00     0.024 A 
ATOM     18  C   UNL d   1     -41.363-122.460 -49.307  0.00  0.00     0.004 A 
BRANCH  16  19
ATOM     19  O   UNL d   1     -41.230-123.814 -47.612  0.00  0.00    -0.328 OA
ATOM     20  C   UNL d   1     -41.394-123.443 -46.883  0.00  0.00     0.181 C 
ENDBRANCH  16  19
ENDBRANCH   1  13
TORSDOF 5
ENDMDL
