MODEL 1
REMARK VINA RESULT:      -5.9      0.000      0.000
REMARK  8 active torsions:
REMARK  status: ('A' for Active; 'I' for Inactive)
REMARK    1  A    between atoms: N_3  and  C_1 
REMARK       I    between atoms: C_8  and  N_3 
REMARK    2  A    between atoms: O_12  and  C_4 
REMARK    3  A    between atoms: S_20  and  C_5 
REMARK    4  A    between atoms: C_13  and  C_8 
REMARK    5  A    between atoms: C_9  and  O_12 
REMARK    6  A    between atoms: C_14  and  C_9 
REMARK    7  A    between atoms: C_16  and  C_28 
REMARK    8  A    between atoms: C_28  and  S_20 
ROOT
ATOM      1  C   UNL d   1     -40.552  14.431  19.352  0.00  0.00     0.167 A 
ATOM      2  C   UNL d   1     -40.371  14.663  20.119  0.00  0.00     0.222 A 
ATOM      3  C   UNL d   1     -40.822  14.344  20.739  0.00  0.00     0.069 A 
ATOM      4  C   UNL d   1     -41.161  13.899  19.199  0.00  0.00     0.151 A 
ATOM      5  C   UNL d   1     -41.432  13.811  20.587  0.00  0.00     0.110 A 
ATOM      6  O   UNL d   1     -41.598  13.591  19.813  0.00  0.00    -0.302 OA
ATOM      7  O   UNL d   1     -39.767  15.190  20.270  0.00  0.00    -0.284 OA
ENDROOT
BRANCH   5   8
ATOM      8  C   UNL d   1     -41.873  13.501  21.207  0.00  0.00     0.062 C 
BRANCH   8   9
ATOM      9  S   UNL d   1     -42.684  13.387  21.113  0.00  0.00    -0.057 SA
BRANCH   9  10
ATOM     10  C   UNL d   1     -43.533  13.264  21.510  0.00  0.00     0.166 A 
ATOM     11  S   UNL d   1     -44.253  13.621  21.690  0.00  0.00    -0.006 SA
ATOM     12  C   UNL d   1     -44.728  13.067  22.076  0.00  0.00     0.269 A 
ATOM     13  N   UNL d   1     -44.296  12.363  22.134  0.00  0.00    -0.107 NA
ATOM     14  N   UNL d   1     -43.559  12.485  21.784  0.00  0.00    -0.132 NA
BRANCH  12  15
ATOM     15  N   UNL d   1     -45.465  12.946  22.425  0.00  0.00    -0.337 NA
ATOM     16  C   UNL d   1     -46.202  12.824  22.774  0.00  0.00     0.330 C 
ATOM     17  O   UNL d   1     -45.826  12.502  23.434  0.00  0.00    -0.251 OA
BRANCH  16  18
ATOM     18  C   UNL d   1     -46.986  12.966  22.555  0.00  0.00     0.070 A 
ATOM     19  C   UNL d   1     -47.588  13.500  22.370  0.00  0.00     0.006 A 
ATOM     20  C   UNL d   1     -47.740  12.674  22.360  0.00  0.00     0.006 A 
ENDBRANCH  16  18
ENDBRANCH  12  15
ENDBRANCH   9  10
ENDBRANCH   8   9
ENDBRANCH   5   8
BRANCH   1  21
ATOM     21  O   UNL d   1     -40.108  14.743  18.723  0.00  0.00    -0.268 OA
BRANCH  21  22
ATOM     22  C   UNL d   1     -40.199  14.432  17.961  0.00  0.00     0.300 C 
ATOM     23  O   UNL d   1     -40.919  14.082  17.742  0.00  0.00    -0.259 OA
BRANCH  22  24
ATOM     24  C   UNL d   1     -39.563  14.474  17.416  0.00  0.00     0.064 A 
ATOM     25  C   UNL d   1     -39.436  15.171  16.993  0.00  0.00     0.005 A 
ATOM     26  C   UNL d   1     -38.802  15.222  16.446  0.00  0.00     0.000 A 
ATOM     27  C   UNL d   1     -38.682  15.922  16.026  0.00  0.00     0.000 C 
ATOM     28  C   UNL d   1     -38.311  14.563  16.341  0.00  0.00     0.000 A 
ATOM     29  C   UNL d   1     -38.439  13.856  16.770  0.00  0.00     0.000 A 
ATOM     30  C   UNL d   1     -39.062  13.825  17.299  0.00  0.00     0.005 A 
ATOM     31  C   UNL d   1     -37.940  13.219  16.649  0.00  0.00     0.000 C 
ENDBRANCH  22  24
ENDBRANCH  21  22
ENDBRANCH   1  21
TORSDOF 8
ENDMDL
MODEL 2
REMARK VINA RESULT:      -5.8      1.925      8.358
REMARK  8 active torsions:
REMARK  status: ('A' for Active; 'I' for Inactive)
REMARK    1  A    between atoms: N_3  and  C_1 
REMARK       I    between atoms: C_8  and  N_3 
REMARK    2  A    between atoms: O_12  and  C_4 
REMARK    3  A    between atoms: S_20  and  C_5 
REMARK    4  A    between atoms: C_13  and  C_8 
REMARK    5  A    between atoms: C_9  and  O_12 
REMARK    6  A    between atoms: C_14  and  C_9 
REMARK    7  A    between atoms: C_16  and  C_28 
REMARK    8  A    between atoms: C_28  and  S_20 
ROOT
ATOM      1  C   UNL d   1     -47.141  13.393  22.937  0.00  0.00     0.167 A 
ATOM      2  C   UNL d   1     -46.945  12.630  23.170  0.00  0.00     0.222 A 
ATOM      3  C   UNL d   1     -46.186  12.349  22.988  0.00  0.00     0.069 A 
ATOM      4  C   UNL d   1     -46.601  13.868  22.536  0.00  0.00     0.151 A 
ATOM      5  C   UNL d   1     -45.645  12.824  22.586  0.00  0.00     0.110 A 
ATOM      6  O   UNL d   1     -45.859  13.585  22.362  0.00  0.00    -0.302 OA
ATOM      7  O   UNL d   1     -47.480  12.159  23.567  0.00  0.00    -0.284 OA
ENDROOT
BRANCH   5   8
ATOM      8  C   UNL d   1     -44.895  12.537  22.411  0.00  0.00     0.062 C 
BRANCH   8   9
ATOM      9  S   UNL d   1     -44.450  12.898  21.818  0.00  0.00    -0.057 SA
BRANCH   9  10
ATOM     10  C   UNL d   1     -43.605  13.182  21.502  0.00  0.00     0.166 A 
ATOM     11  S   UNL d   1     -43.087  13.819  21.438  0.00  0.00    -0.006 SA
ATOM     12  C   UNL d   1     -42.407  13.561  21.048  0.00  0.00     0.269 A 
ATOM     13  N   UNL d   1     -42.508  12.759  20.870  0.00  0.00    -0.107 NA
ATOM     14  N   UNL d   1     -43.247  12.524  21.151  0.00  0.00    -0.132 NA
BRANCH  12  15
ATOM     15  N   UNL d   1     -41.668  13.795  20.767  0.00  0.00    -0.337 NA
ATOM     16  C   UNL d   1     -40.928  14.030  20.487  0.00  0.00     0.330 C 
ATOM     17  O   UNL d   1     -40.619  13.931  21.246  0.00  0.00    -0.251 OA
BRANCH  16  18
ATOM     18  C   UNL d   1     -40.626  14.264  19.754  0.00  0.00     0.070 A 
ATOM     19  C   UNL d   1     -40.474  14.861  19.206  0.00  0.00     0.006 A 
ATOM     20  C   UNL d   1     -40.254  14.069  19.037  0.00  0.00     0.006 A 
ENDBRANCH  16  18
ENDBRANCH  12  15
ENDBRANCH   9  10
ENDBRANCH   8   9
ENDBRANCH   5   8
BRANCH   1  21
ATOM     21  O   UNL d   1     -47.898  13.686  23.113  0.00  0.00    -0.268 OA
BRANCH  21  22
ATOM     22  C   UNL d   1     -48.157  14.392  22.767  0.00  0.00     0.300 C 
ATOM     23  O   UNL d   1     -47.602  14.933  22.470  0.00  0.00    -0.259 OA
BRANCH  22  24
ATOM     24  C   UNL d   1     -48.979  14.554  22.719  0.00  0.00     0.064 A 
ATOM     25  C   UNL d   1     -49.437  14.166  22.153  0.00  0.00     0.005 A 
ATOM     26  C   UNL d   1     -50.259  14.322  22.098  0.00  0.00     0.000 A 
ATOM     27  C   UNL d   1     -50.710  13.930  21.530  0.00  0.00     0.000 C 
ATOM     28  C   UNL d   1     -50.598  14.870  22.619  0.00  0.00     0.000 A 
ATOM     29  C   UNL d   1     -50.133  15.264  23.193  0.00  0.00     0.000 A 
ATOM     30  C   UNL d   1     -49.333  15.099  23.231  0.00  0.00     0.005 A 
ATOM     31  C   UNL d   1     -50.491  15.801  23.696  0.00  0.00     0.000 C 
ENDBRANCH  22  24
ENDBRANCH  21  22
ENDBRANCH   1  21
TORSDOF 8
ENDMDL
MODEL 3
REMARK VINA RESULT:      -5.4      1.957      7.576
REMARK  8 active torsions:
REMARK  status: ('A' for Active; 'I' for Inactive)
REMARK    1  A    between atoms: N_3  and  C_1 
REMARK       I    between atoms: C_8  and  N_3 
REMARK    2  A    between atoms: O_12  and  C_4 
REMARK    3  A    between atoms: S_20  and  C_5 
REMARK    4  A    between atoms: C_13  and  C_8 
REMARK    5  A    between atoms: C_9  and  O_12 
REMARK    6  A    between atoms: C_14  and  C_9 
REMARK    7  A    between atoms: C_16  and  C_28 
REMARK    8  A    between atoms: C_28  and  S_20 
ROOT
ATOM      1  C   UNL d   1     -43.973  12.923  21.772  0.00  0.00     0.167 A 
ATOM      2  C   UNL d   1     -43.329  12.420  21.858  0.00  0.00     0.222 A 
ATOM      3  C   UNL d   1     -42.587  12.689  21.603  0.00  0.00     0.069 A 
ATOM      4  C   UNL d   1     -43.887  13.673  21.442  0.00  0.00     0.151 A 
ATOM      5  C   UNL d   1     -42.500  13.439  21.273  0.00  0.00     0.110 A 
ATOM      6  O   UNL d   1     -43.156  13.928  21.195  0.00  0.00    -0.302 OA
ATOM      7  O   UNL d   1     -43.415  11.677  22.185  0.00  0.00    -0.284 OA
ENDROOT
BRANCH   5   8
ATOM      8  C   UNL d   1     -41.761  13.696  21.023  0.00  0.00     0.062 C 
BRANCH   8   9
ATOM      9  S   UNL d   1     -41.599  13.746  20.216  0.00  0.00    -0.057 SA
BRANCH   9  10
ATOM     10  C   UNL d   1     -41.029  14.048  19.524  0.00  0.00     0.166 A 
ATOM     11  S   UNL d   1     -40.325  14.437  19.351  0.00  0.00    -0.006 SA
ATOM     12  C   UNL d   1     -40.240  14.465  18.530  0.00  0.00     0.269 A 
ATOM     13  N   UNL d   1     -40.898  14.089  18.196  0.00  0.00    -0.107 NA
ATOM     14  N   UNL d   1     -41.385  13.832  18.810  0.00  0.00    -0.132 NA
BRANCH  12  15
ATOM     15  N   UNL d   1     -39.753  14.722  17.917  0.00  0.00    -0.337 NA
ATOM     16  C   UNL d   1     -39.265  14.980  17.303  0.00  0.00     0.330 C 
ATOM     17  O   UNL d   1     -39.501  15.756  17.454  0.00  0.00    -0.251 OA
BRANCH  16  18
ATOM     18  C   UNL d   1     -38.756  14.614  16.764  0.00  0.00     0.070 A 
ATOM     19  C   UNL d   1     -38.602  14.349  15.999  0.00  0.00     0.006 A 
ATOM     20  C   UNL d   1     -38.029  14.245  16.603  0.00  0.00     0.006 A 
ENDBRANCH  16  18
ENDBRANCH  12  15
ENDBRANCH   9  10
ENDBRANCH   8   9
ENDBRANCH   5   8
BRANCH   1  21
ATOM     21  O   UNL d   1     -44.721  12.666  22.024  0.00  0.00    -0.268 OA
BRANCH  21  22
ATOM     22  C   UNL d   1     -45.276  13.217  22.296  0.00  0.00     0.300 C 
ATOM     23  O   UNL d   1     -45.064  14.016  22.363  0.00  0.00    -0.259 OA
BRANCH  22  24
ATOM     24  C   UNL d   1     -46.048  12.962  22.503  0.00  0.00     0.064 A 
ATOM     25  C   UNL d   1     -46.702  13.369  22.207  0.00  0.00     0.005 A 
ATOM     26  C   UNL d   1     -47.478  13.121  22.409  0.00  0.00     0.000 A 
ATOM     27  C   UNL d   1     -48.127  13.532  22.109  0.00  0.00     0.000 C 
ATOM     28  C   UNL d   1     -47.572  12.465  22.907  0.00  0.00     0.000 A 
ATOM     29  C   UNL d   1     -46.908  12.053  23.208  0.00  0.00     0.000 A 
ATOM     30  C   UNL d   1     -46.160  12.309  23.000  0.00  0.00     0.005 A 
ATOM     31  C   UNL d   1     -47.027  11.409  23.698  0.00  0.00     0.000 C 
ENDBRANCH  22  24
ENDBRANCH  21  22
ENDBRANCH   1  21
TORSDOF 8
ENDMDL
MODEL 4
REMARK VINA RESULT:      -5.0      2.250      3.832
REMARK  8 active torsions:
REMARK  status: ('A' for Active; 'I' for Inactive)
REMARK    1  A    between atoms: N_3  and  C_1 
REMARK       I    between atoms: C_8  and  N_3 
REMARK    2  A    between atoms: O_12  and  C_4 
REMARK    3  A    between atoms: S_20  and  C_5 
REMARK    4  A    between atoms: C_13  and  C_8 
REMARK    5  A    between atoms: C_9  and  O_12 
REMARK    6  A    between atoms: C_14  and  C_9 
REMARK    7  A    between atoms: C_16  and  C_28 
REMARK    8  A    between atoms: C_28  and  S_20 
ROOT
ATOM      1  C   UNL d   1     -43.045  12.954  21.476  0.00  0.00     0.167 A 
ATOM      2  C   UNL d   1     -43.177  12.310  21.968  0.00  0.00     0.222 A 
ATOM      3  C   UNL d   1     -43.956  12.157  22.210  0.00  0.00     0.069 A 
ATOM      4  C   UNL d   1     -43.666  13.436  21.229  0.00  0.00     0.151 A 
ATOM      5  C   UNL d   1     -44.577  12.638  21.963  0.00  0.00     0.110 A 
ATOM      6  O   UNL d   1     -44.426  13.278  21.471  0.00  0.00    -0.302 OA
ATOM      7  O   UNL d   1     -42.562  11.833  22.213  0.00  0.00    -0.284 OA
ENDROOT
BRANCH   5   8
ATOM      8  C   UNL d   1     -45.345  12.479  22.209  0.00  0.00     0.062 C 
BRANCH   8   9
ATOM      9  S   UNL d   1     -45.858  13.103  22.373  0.00  0.00    -0.057 SA
BRANCH   9  10
ATOM     10  C   UNL d   1     -46.730  13.396  22.589  0.00  0.00     0.166 A 
ATOM     11  S   UNL d   1     -47.528  13.191  22.600  0.00  0.00    -0.006 SA
ATOM     12  C   UNL d   1     -47.955  13.830  22.903  0.00  0.00     0.269 A 
ATOM     13  N   UNL d   1     -47.415  14.432  23.079  0.00  0.00    -0.107 NA
ATOM     14  N   UNL d   1     -46.659  14.164  22.886  0.00  0.00    -0.132 NA
BRANCH  12  15
ATOM     15  N   UNL d   1     -48.710  14.098  23.096  0.00  0.00    -0.337 NA
ATOM     16  C   UNL d   1     -49.466  14.366  23.290  0.00  0.00     0.330 C 
ATOM     17  O   UNL d   1     -49.680  13.594  23.486  0.00  0.00    -0.251 OA
BRANCH  16  18
ATOM     18  C   UNL d   1     -49.847  15.100  23.288  0.00  0.00     0.070 A 
ATOM     19  C   UNL d   1     -50.393  15.617  22.948  0.00  0.00     0.006 A 
ATOM     20  C   UNL d   1     -49.957  15.851  23.627  0.00  0.00     0.006 A 
ENDBRANCH  16  18
ENDBRANCH  12  15
ENDBRANCH   9  10
ENDBRANCH   8   9
ENDBRANCH   5   8
BRANCH   1  21
ATOM     21  O   UNL d   1     -42.271  13.118  21.226  0.00  0.00    -0.268 OA
BRANCH  21  22
ATOM     22  C   UNL d   1     -42.032  13.903  21.110  0.00  0.00     0.300 C 
ATOM     23  O   UNL d   1     -42.543  14.523  21.317  0.00  0.00    -0.259 OA
BRANCH  22  24
ATOM     24  C   UNL d   1     -41.276  14.064  20.785  0.00  0.00     0.064 A 
ATOM     25  C   UNL d   1     -41.192  14.132  19.967  0.00  0.00     0.005 A 
ATOM     26  C   UNL d   1     -40.440  14.293  19.633  0.00  0.00     0.000 A 
ATOM     27  C   UNL d   1     -40.364  14.359  18.814  0.00  0.00     0.000 C 
ATOM     28  C   UNL d   1     -39.789  14.382  20.138  0.00  0.00     0.000 A 
ATOM     29  C   UNL d   1     -39.873  14.313  20.967  0.00  0.00     0.000 A 
ATOM     30  C   UNL d   1     -40.615  14.155  21.275  0.00  0.00     0.005 A 
ATOM     31  C   UNL d   1     -39.215  14.404  21.445  0.00  0.00     0.000 C 
ENDBRANCH  22  24
ENDBRANCH  21  22
ENDBRANCH   1  21
TORSDOF 8
ENDMDL
MODEL 5
REMARK VINA RESULT:      -4.0      1.297      1.696
REMARK  8 active torsions:
REMARK  status: ('A' for Active; 'I' for Inactive)
REMARK    1  A    between atoms: N_3  and  C_1 
REMARK       I    between atoms: C_8  and  N_3 
REMARK    2  A    between atoms: O_12  and  C_4 
REMARK    3  A    between atoms: S_20  and  C_5 
REMARK    4  A    between atoms: C_13  and  C_8 
REMARK    5  A    between atoms: C_9  and  O_12 
REMARK    6  A    between atoms: C_14  and  C_9 
REMARK    7  A    between atoms: C_16  and  C_28 
REMARK    8  A    between atoms: C_28  and  S_20 
ROOT
ATOM      1  C   UNL d   1     -40.971  14.157  20.476  0.00  0.00     0.167 A 
ATOM      2  C   UNL d   1     -40.877  13.843  21.229  0.00  0.00     0.222 A 
ATOM      3  C   UNL d   1     -41.503  13.403  21.550  0.00  0.00     0.069 A 
ATOM      4  C   UNL d   1     -41.667  14.041  20.050  0.00  0.00     0.151 A 
ATOM      5  C   UNL d   1     -42.199  13.287  21.124  0.00  0.00     0.110 A 
ATOM      6  O   UNL d   1     -42.275  13.609  20.372  0.00  0.00    -0.302 OA
ATOM      7  O   UNL d   1     -40.188  13.958  21.651  0.00  0.00    -0.284 OA
ENDROOT
BRANCH   5   8
ATOM      8  C   UNL d   1     -42.814  12.850  21.450  0.00  0.00     0.062 C 
BRANCH   8   9
ATOM      9  S   UNL d   1     -43.575  13.166  21.465  0.00  0.00    -0.057 SA
BRANCH   9  10
ATOM     10  C   UNL d   1     -44.470  13.103  21.763  0.00  0.00     0.166 A 
ATOM     11  S   UNL d   1     -45.143  12.630  21.782  0.00  0.00    -0.006 SA
ATOM     12  C   UNL d   1     -45.734  13.036  22.194  0.00  0.00     0.269 A 
ATOM     13  N   UNL d   1     -45.419  13.765  22.429  0.00  0.00    -0.107 NA
ATOM     14  N   UNL d   1     -44.639  13.807  22.163  0.00  0.00    -0.132 NA
BRANCH  12  15
ATOM     15  N   UNL d   1     -46.512  12.994  22.459  0.00  0.00    -0.337 NA
ATOM     16  C   UNL d   1     -47.292  12.953  22.726  0.00  0.00     0.330 C 
ATOM     17  O   UNL d   1     -47.021  13.007  23.503  0.00  0.00    -0.251 OA
BRANCH  16  18
ATOM     18  C   UNL d   1     -48.033  12.886  22.364  0.00  0.00     0.070 A 
ATOM     19  C   UNL d   1     -48.844  12.748  22.425  0.00  0.00     0.006 A 
ATOM     20  C   UNL d   1     -48.499  12.907  21.677  0.00  0.00     0.006 A 
ENDBRANCH  16  18
ENDBRANCH  12  15
ENDBRANCH   9  10
ENDBRANCH   8   9
ENDBRANCH   5   8
BRANCH   1  21
ATOM     21  O   UNL d   1     -40.352  14.599  20.143  0.00  0.00    -0.268 OA
BRANCH  21  22
ATOM     22  C   UNL d   1     -40.523  15.242  19.651  0.00  0.00     0.300 C 
ATOM     23  O   UNL d   1     -41.170  15.733  19.823  0.00  0.00    -0.259 OA
BRANCH  22  24
ATOM     24  C   UNL d   1     -40.041  15.393  18.981  0.00  0.00     0.064 A 
ATOM     25  C   UNL d   1     -39.245  15.579  19.088  0.00  0.00     0.005 A 
ATOM     26  C   UNL d   1     -38.755  15.732  18.424  0.00  0.00     0.000 A 
ATOM     27  C   UNL d   1     -37.959  15.917  18.539  0.00  0.00     0.000 C 
ATOM     28  C   UNL d   1     -39.086  15.691  17.665  0.00  0.00     0.000 A 
ATOM     29  C   UNL d   1     -39.894  15.501  17.556  0.00  0.00     0.000 A 
ATOM     30  C   UNL d   1     -40.355  15.356  18.216  0.00  0.00     0.005 A 
ATOM     31  C   UNL d   1     -40.197  15.467  16.797  0.00  0.00     0.000 C 
ENDBRANCH  22  24
ENDBRANCH  21  22
ENDBRANCH   1  21
TORSDOF 8
ENDMDL
