MODEL 1
REMARK VINA RESULT:      49.5      0.000      0.000
REMARK  7 active torsions:
REMARK  status: ('A' for Active; 'I' for Inactive)
REMARK    1  A    between atoms: C_6  and  C_13 
REMARK       I    between atoms: N_12  and  C_6 
REMARK    2  A    between atoms: O_8  and  C_7 
REMARK    3  A    between atoms: C_13  and  O_8 
REMARK    4  A    between atoms: O_14  and  C_10 
REMARK    5  A    between atoms: C_11  and  C_20 
REMARK    6  A    between atoms: C_15  and  N_12 
REMARK    7  A    between atoms: C_20  and  C_15 
ROOT
ATOM      1  C   UNL d   1     -49.700  27.174  33.652  0.00  0.00     0.304 C 
ATOM      2  O   UNL d   1     -50.277  27.732  33.450  0.00  0.00    -0.263 OA
ATOM      3  N   UNL d   1     -49.079  27.366  34.153  0.00  0.00    -0.205 NA
ENDROOT
BRANCH   1   4
ATOM      4  C   UNL d   1     -49.752  26.409  33.342  0.00  0.00     0.185 C 
BRANCH   4   5
ATOM      5  O   UNL d   1     -50.474  26.015  33.345  0.00  0.00    -0.298 OA
BRANCH   5   6
ATOM      6  C   UNL d   1     -50.491  25.197  33.335  0.00  0.00     0.122 A 
ATOM      7  C   UNL d   1     -51.213  24.798  33.328  0.00  0.00     0.117 A 
ATOM      8  O   UNL d   1     -51.997  25.077  33.330  0.00  0.00    -0.330 OA
ATOM      9  C   UNL d   1     -51.231  23.972  33.318  0.00  0.00     0.022 A 
ATOM     10  C   UNL d   1     -52.499  24.415  33.321  0.00  0.00     0.117 A 
ATOM     11  C   UNL d   1     -52.914  23.719  33.312  0.00  0.00     0.035 C 
ATOM     12  C   UNL d   1     -53.063  25.012  33.327  0.00  0.00     0.035 C 
ATOM     13  C   UNL d   1     -52.025  23.737  33.314  0.00  0.00     0.003 A 
ATOM     14  C   UNL d   1     -50.525  23.548  33.315  0.00  0.00     0.002 A 
ATOM     15  C   UNL d   1     -49.815  23.943  33.321  0.00  0.00     0.002 A 
ATOM     16  C   UNL d   1     -49.798  24.768  33.331  0.00  0.00     0.027 A 
ENDBRANCH   5   6
ENDBRANCH   4   5
ENDBRANCH   1   4
BRANCH   3  17
ATOM     17  C   UNL d   1     -49.028  28.123  34.460  0.00  0.00     0.102 C 
BRANCH  17  18
ATOM     18  C   UNL d   1     -48.379  28.346  34.926  0.00  0.00     0.023 C 
BRANCH  18  19
ATOM     19  C   UNL d   1     -48.188  29.136  35.023  0.00  0.00     0.024 A 
ATOM     20  C   UNL d   1     -47.468  29.348  35.366  0.00  0.00     0.094 A 
ATOM     21  C   UNL d   1     -47.286  30.150  35.458  0.00  0.00     0.024 A 
ATOM     22  C   UNL d   1     -47.813  30.735  35.212  0.00  0.00     0.002 A 
ATOM     23  C   UNL d   1     -48.527  30.530  34.872  0.00  0.00     0.000 A 
ATOM     24  C   UNL d   1     -48.723  29.738  34.774  0.00  0.00     0.002 A 
BRANCH  20  25
ATOM     25  O   UNL d   1     -46.947  28.773  35.608  0.00  0.00    -0.328 OA
ATOM     26  C   UNL d   1     -46.367  28.954  36.156  0.00  0.00     0.181 C 
ENDBRANCH  20  25
ENDBRANCH  18  19
ENDBRANCH  17  18
ENDBRANCH   3  17
TORSDOF 7
ENDMDL
