MODEL 1
REMARK VINA RESULT:      15.9      0.000      0.000
REMARK  3 active torsions:
REMARK  status: ('A' for Active; 'I' for Inactive)
REMARK    1  A    between atoms: C_2  and  C_1 
REMARK    2  A    between atoms: N_5  and  C_2 
REMARK    3  A    between atoms: C_9  and  C_4 
ROOT
ATOM      1  C   UNL d   1      45.629 -14.413  44.504  0.00  0.00     0.126 A 
ATOM      2  O   UNL d   1      46.026 -15.068  44.199  0.00  0.00    -0.305 OA
ATOM      3  C   UNL d   1      45.629 -15.743  44.462  0.00  0.00     0.100 A 
ATOM      4  C   UNL d   1      44.991 -14.689  44.954  0.00  0.00     0.029 A 
ATOM      5  C   UNL d   1      44.990 -15.499  44.928  0.00  0.00     0.027 A 
ENDROOT
BRANCH   1   6
ATOM      6  C   UNL d   1      45.772 -13.612  44.427  0.00  0.00     0.143 C 
ATOM      7  S   UNL d   1      46.279 -13.232  44.955  0.00  0.00    -0.057 SA
BRANCH   6   8
ATOM      8  N   UNL d   1      45.412 -13.182  43.826  0.00  0.00    -0.290 N 
ATOM      9  C   UNL d   1      44.589 -13.147  43.769  0.00  0.00     0.108 A 
ATOM     10  C   UNL d   1      44.232 -12.713  43.162  0.00  0.00     0.142 A 
ATOM     11  O   UNL d   1      44.708 -12.317  42.617  0.00  0.00    -0.300 OA
ATOM     12  C   UNL d   1      45.530 -12.352  42.673  0.00  0.00     0.142 A 
ATOM     13  C   UNL d   1      45.876 -12.784  43.278  0.00  0.00     0.108 A 
ENDBRANCH   6   8
ENDBRANCH   1   6
BRANCH   3  14
ATOM     14  C   UNL d   1      45.837 -16.511  44.289  0.00  0.00     0.023 A 
ATOM     15  C   UNL d   1      45.920 -16.743  43.501  0.00  0.00     0.003 A 
ATOM     16  C   UNL d   1      46.129 -17.511  43.318  0.00  0.00     0.007 A 
ATOM     17  C   UNL d   1      46.258 -18.065  43.919  0.00  0.00     0.035 A 
ATOM     18  C   UNL d   1      46.175 -17.835  44.710  0.00  0.00     0.007 A 
ATOM     19 BR   UNL d   1      46.468 -18.840  43.733  0.00  0.00    -0.049 Br
ATOM     20  C   UNL d   1      45.967 -17.070  44.892  0.00  0.00     0.003 A 
ENDBRANCH   3  14
TORSDOF 3
ENDMDL
MODEL 2
REMARK VINA RESULT:      16.7      2.712      4.550
REMARK  3 active torsions:
REMARK  status: ('A' for Active; 'I' for Inactive)
REMARK    1  A    between atoms: C_2  and  C_1 
REMARK    2  A    between atoms: N_5  and  C_2 
REMARK    3  A    between atoms: C_9  and  C_4 
ROOT
ATOM      1  C   UNL d   1      45.980 -17.633  44.483  0.00  0.00     0.126 A 
ATOM      2  O   UNL d   1      46.227 -16.857  44.358  0.00  0.00    -0.305 OA
ATOM      3  C   UNL d   1      45.637 -16.358  44.651  0.00  0.00     0.100 A 
ATOM      4  C   UNL d   1      45.239 -17.607  44.852  0.00  0.00     0.029 A 
ATOM      5  C   UNL d   1      45.030 -16.831  44.955  0.00  0.00     0.027 A 
ENDROOT
BRANCH   1   6
ATOM      6  C   UNL d   1      46.335 -18.347  44.307  0.00  0.00     0.143 C 
ATOM      7  S   UNL d   1      46.646 -18.813  44.913  0.00  0.00    -0.057 SA
BRANCH   6   8
ATOM      8  N   UNL d   1      46.386 -18.605  43.529  0.00  0.00    -0.290 N 
ATOM      9  C   UNL d   1      46.574 -18.077  42.923  0.00  0.00     0.108 A 
ATOM     10  C   UNL d   1      46.624 -18.343  42.141  0.00  0.00     0.142 A 
ATOM     11  O   UNL d   1      46.483 -19.138  41.976  0.00  0.00    -0.300 OA
ATOM     12  C   UNL d   1      46.295 -19.666  42.580  0.00  0.00     0.142 A 
ATOM     13  C   UNL d   1      46.248 -19.395  43.353  0.00  0.00     0.108 A 
ENDBRANCH   6   8
ENDBRANCH   1   6
BRANCH   3  14
ATOM     14  C   UNL d   1      45.658 -15.543  44.639  0.00  0.00     0.023 A 
ATOM     15  C   UNL d   1      44.966 -15.116  44.780  0.00  0.00     0.003 A 
ATOM     16  C   UNL d   1      44.976 -14.300  44.770  0.00  0.00     0.007 A 
ATOM     17  C   UNL d   1      45.681 -13.892  44.619  0.00  0.00     0.035 A 
ATOM     18  C   UNL d   1      46.377 -14.318  44.477  0.00  0.00     0.007 A 
ATOM     19 BR   UNL d   1      45.691 -13.068  44.609  0.00  0.00    -0.049 Br
ATOM     20  C   UNL d   1      46.365 -15.131  44.487  0.00  0.00     0.003 A 
ENDBRANCH   3  14
TORSDOF 3
ENDMDL
