MODEL 1
REMARK VINA RESULT:      99.8      0.000      0.000
REMARK  9 active torsions:
REMARK  status: ('A' for Active; 'I' for Inactive)
REMARK    1  A    between atoms: N_6  and  S_1 
REMARK    2  A    between atoms: C_12  and  S_1 
REMARK    3  A    between atoms: C_2  and  C_3 
REMARK    4  A    between atoms: C_4  and  C_2 
REMARK    5  A    between atoms: C_5  and  C_2 
REMARK    6  A    between atoms: O_14  and  C_4 
REMARK    7  A    between atoms: C_9  and  C_5 
REMARK    8  A    between atoms: C_7  and  N_6 
REMARK    9  A    between atoms: C_29  and  O_14 
ROOT
ATOM      1  C   UNL d   1     -49.787  27.361  34.791  0.00  0.00     0.049 A 
ATOM      2  C   UNL d   1     -48.772  27.945  35.603  0.00  0.00     0.094 A 
ATOM      3  C   UNL d   1     -50.251  27.245  35.469  0.00  0.00     0.196 A 
ATOM      4  C   UNL d   1     -49.050  27.710  34.858  0.00  0.00     0.023 A 
ATOM      5  C   UNL d   1     -49.974  27.482  36.220  0.00  0.00     0.040 A 
ATOM      6  C   UNL d   1     -49.237  27.830  36.287  0.00  0.00     0.021 A 
ATOM      7  O   UNL d   1     -50.994  26.893  35.401  0.00  0.00    -0.287 OA
ATOM      8  C   UNL d   1     -50.470  27.346  36.862  0.00  0.00     0.003 A 
ATOM      9  C   UNL d   1     -48.952  28.068  37.025  0.00  0.00     0.002 A 
ATOM     10  C   UNL d   1     -50.142  27.610  37.643  0.00  0.00     0.000 A 
ATOM     11  C   UNL d   1     -49.423  27.951  37.708  0.00  0.00     0.000 A 
ENDROOT
BRANCH   2  12
ATOM     12  N   UNL d   1     -48.007  28.303  35.639  0.00  0.00    -0.158 NA
BRANCH  12  13
ATOM     13  S   UNL d   1     -47.927  29.106  35.503  0.00  0.00     0.285 S 
ATOM     14  O   UNL d   1     -47.398  28.949  34.869  0.00  0.00    -0.198 OA
ATOM     15  O   UNL d   1     -48.446  29.282  36.124  0.00  0.00    -0.198 OA
BRANCH  13  16
ATOM     16  C   UNL d   1     -47.834  29.937  35.350  0.00  0.00     0.105 A 
ATOM     17  C   UNL d   1     -48.175  30.287  34.703  0.00  0.00     0.013 A 
ATOM     18  C   UNL d   1     -48.085  31.080  34.559  0.00  0.00     0.001 A 
ATOM     19  C   UNL d   1     -48.434  31.414  33.906  0.00  0.00     0.000 A 
ATOM     20  C   UNL d   1     -47.626  31.562  35.091  0.00  0.00     0.000 A 
ATOM     21  C   UNL d   1     -48.345  32.264  33.741  0.00  0.00     0.000 A 
ATOM     22  C   UNL d   1     -47.893  32.728  34.268  0.00  0.00     0.000 A 
ATOM     23  C   UNL d   1     -47.530  32.381  34.947  0.00  0.00     0.000 A 
ATOM     24  C   UNL d   1     -47.294  31.187  35.732  0.00  0.00     0.001 A 
ATOM     25  C   UNL d   1     -47.386  30.389  35.875  0.00  0.00     0.013 A 
ENDBRANCH  13  16
ENDBRANCH  12  13
ENDBRANCH   2  12
BRANCH   1  26
ATOM     26  C   UNL d   1     -50.064  27.124  34.040  0.00  0.00     0.110 C 
BRANCH  26  27
ATOM     27  C   UNL d   1     -49.801  26.398  33.750  0.00  0.00     0.303 C 
ATOM     28  O   UNL d   1     -49.104  26.350  33.309  0.00  0.00    -0.259 OA
BRANCH  27  29
ATOM     29  O   UNL d   1     -50.265  25.746  33.924  0.00  0.00    -0.273 OA
BRANCH  29  30
ATOM     30  C   UNL d   1     -50.074  25.021  33.579  0.00  0.00     0.103 C 
ATOM     31  C   UNL d   1     -49.329  24.888  33.318  0.00  0.00     0.027 C 
ATOM     32  C   UNL d   1     -50.657  24.446  33.511  0.00  0.00     0.027 C 
ENDBRANCH  29  30
ENDBRANCH  27  29
ENDBRANCH  26  27
BRANCH  26  33
ATOM     33  C   UNL d   1     -50.587  27.608  33.605  0.00  0.00     0.272 C 
ATOM     34  O   UNL d   1     -50.331  28.313  33.324  0.00  0.00    -0.282 OA
BRANCH  33  35
ATOM     35  C   UNL d   1     -51.354  27.356  33.472  0.00  0.00     0.456 C 
ATOM     36  F   UNL d   1     -51.039  26.588  33.315  0.00  0.00    -0.163 F 
ATOM     37  F   UNL d   1     -51.631  28.116  33.630  0.00  0.00    -0.163 F 
ATOM     38  F   UNL d   1     -52.105  27.081  33.335  0.00  0.00    -0.163 F 
ENDBRANCH  33  35
ENDBRANCH  26  33
ENDBRANCH   1  26
TORSDOF 9
ENDMDL
MODEL 2
REMARK VINA RESULT:     102.6      2.226      4.586
REMARK  9 active torsions:
REMARK  status: ('A' for Active; 'I' for Inactive)
REMARK    1  A    between atoms: N_6  and  S_1 
REMARK    2  A    between atoms: C_12  and  S_1 
REMARK    3  A    between atoms: C_2  and  C_3 
REMARK    4  A    between atoms: C_4  and  C_2 
REMARK    5  A    between atoms: C_5  and  C_2 
REMARK    6  A    between atoms: O_14  and  C_4 
REMARK    7  A    between atoms: C_9  and  C_5 
REMARK    8  A    between atoms: C_7  and  N_6 
REMARK    9  A    between atoms: C_29  and  O_14 
ROOT
ATOM      1  C   UNL d   1     -50.550  26.511  34.317  0.00  0.00     0.049 A 
ATOM      2  C   UNL d   1     -50.313  27.317  35.468  0.00  0.00     0.094 A 
ATOM      3  C   UNL d   1     -49.794  26.704  34.036  0.00  0.00     0.196 A 
ATOM      4  C   UNL d   1     -50.809  26.817  35.030  0.00  0.00     0.023 A 
ATOM      5  C   UNL d   1     -49.293  27.207  34.474  0.00  0.00     0.040 A 
ATOM      6  C   UNL d   1     -49.552  27.513  35.188  0.00  0.00     0.021 A 
ATOM      7  O   UNL d   1     -49.533  26.396  33.316  0.00  0.00    -0.287 OA
ATOM      8  C   UNL d   1     -48.553  27.369  34.155  0.00  0.00     0.003 A 
ATOM      9  C   UNL d   1     -49.064  28.013  35.630  0.00  0.00     0.002 A 
ATOM     10  C   UNL d   1     -48.048  27.908  34.647  0.00  0.00     0.000 A 
ATOM     11  C   UNL d   1     -48.300  28.206  35.344  0.00  0.00     0.000 A 
ENDROOT
BRANCH   2  12
ATOM     12  N   UNL d   1     -50.608  27.617  36.200  0.00  0.00    -0.158 NA
BRANCH  12  13
ATOM     13  S   UNL d   1     -50.923  27.101  36.754  0.00  0.00     0.285 S 
ATOM     14  O   UNL d   1     -51.679  27.456  36.659  0.00  0.00    -0.198 OA
ATOM     15  O   UNL d   1     -50.186  26.739  36.861  0.00  0.00    -0.198 OA
BRANCH  13  16
ATOM     16  C   UNL d   1     -51.262  26.573  37.326  0.00  0.00     0.105 A 
ATOM     17  C   UNL d   1     -51.973  26.205  37.190  0.00  0.00     0.013 A 
ATOM     18  C   UNL d   1     -52.296  25.701  37.737  0.00  0.00     0.001 A 
ATOM     19  C   UNL d   1     -53.007  25.341  37.585  0.00  0.00     0.000 A 
ATOM     20  C   UNL d   1     -51.889  25.549  38.471  0.00  0.00     0.000 A 
ATOM     21  C   UNL d   1     -53.364  24.798  38.164  0.00  0.00     0.000 A 
ATOM     22  C   UNL d   1     -52.957  24.656  38.880  0.00  0.00     0.000 A 
ATOM     23  C   UNL d   1     -52.217  25.030  39.039  0.00  0.00     0.000 A 
ATOM     24  C   UNL d   1     -51.179  25.930  38.582  0.00  0.00     0.001 A 
ATOM     25  C   UNL d   1     -50.856  26.437  38.030  0.00  0.00     0.013 A 
ENDBRANCH  13  16
ENDBRANCH  12  13
ENDBRANCH   2  12
BRANCH   1  26
ATOM     26  C   UNL d   1     -51.052  26.007  33.879  0.00  0.00     0.110 C 
BRANCH  26  27
ATOM     27  C   UNL d   1     -50.824  25.217  33.804  0.00  0.00     0.303 C 
ATOM     28  O   UNL d   1     -50.055  25.021  33.576  0.00  0.00    -0.259 OA
BRANCH  27  29
ATOM     29  O   UNL d   1     -51.398  24.657  33.968  0.00  0.00    -0.273 OA
BRANCH  29  30
ATOM     30  C   UNL d   1     -51.302  23.894  33.669  0.00  0.00     0.103 C 
ATOM     31  C   UNL d   1     -51.896  23.361  33.735  0.00  0.00     0.027 C 
ATOM     32  C   UNL d   1     -50.592  23.694  33.306  0.00  0.00     0.027 C 
ENDBRANCH  29  30
ENDBRANCH  27  29
ENDBRANCH  26  27
BRANCH  26  33
ATOM     33  C   UNL d   1     -51.753  26.298  33.532  0.00  0.00     0.272 C 
ATOM     34  O   UNL d   1     -52.326  25.783  33.312  0.00  0.00    -0.282 OA
BRANCH  33  35
ATOM     35  C   UNL d   1     -51.846  27.103  33.422  0.00  0.00     0.456 C 
ATOM     36  F   UNL d   1     -52.674  26.962  33.329  0.00  0.00    -0.163 F 
ATOM     37  F   UNL d   1     -51.034  27.209  33.517  0.00  0.00    -0.163 F 
ATOM     38  F   UNL d   1     -51.965  27.898  33.310  0.00  0.00    -0.163 F 
ENDBRANCH  33  35
ENDBRANCH  26  33
ENDBRANCH   1  26
TORSDOF 9
ENDMDL
