MODEL 1
REMARK VINA RESULT:      -3.1      0.000      0.000
REMARK  9 active torsions:
REMARK  status: ('A' for Active; 'I' for Inactive)
REMARK    1  A    between atoms: C_5  and  C_1 
REMARK    2  A    between atoms: N_11  and  C_2 
REMARK    3  A    between atoms: C_6  and  C_5 
REMARK    4  A    between atoms: C_7  and  C_5 
REMARK       I    between atoms: N_13  and  C_6 
REMARK    5  A    between atoms: C_16  and  N_11 
REMARK    6  A    between atoms: C_17  and  N_11 
REMARK    7  A    between atoms: C_14  and  N_13 
REMARK    8  A    between atoms: C_20  and  C_14 
REMARK    9  A    between atoms: C_15  and  C_20 
ROOT
ATOM      1  C   UNL d   1      31.450  17.695 -24.057  0.00  0.00     0.117 A 
ATOM      2  C   UNL d   1      31.539  16.877 -24.113  0.00  0.00     0.145 A 
ATOM      3  N   UNL d   1      30.702  18.033 -24.121  0.00  0.00    -0.241 NA
ATOM      4  N   UNL d   1      30.881  16.396 -24.233  0.00  0.00    -0.230 NA
ATOM      5  C   UNL d   1      30.133  16.736 -24.296  0.00  0.00     0.100 A 
ATOM      6  C   UNL d   1      30.044  17.554 -24.240  0.00  0.00     0.099 A 
ATOM      7  C   UNL d   1      29.474  16.255 -24.416  0.00  0.00     0.021 A 
ATOM      8  C   UNL d   1      29.296  17.892 -24.304  0.00  0.00     0.021 A 
ATOM      9  C   UNL d   1      28.723  16.594 -24.480  0.00  0.00     0.002 A 
ATOM     10  C   UNL d   1      28.634  17.413 -24.424  0.00  0.00     0.002 A 
ENDROOT
BRANCH   1  11
ATOM     11  C   UNL d   1      32.199  18.029 -23.938  0.00  0.00     0.099 C 
BRANCH  11  12
ATOM     12  C   UNL d   1      32.570  18.336 -23.267  0.00  0.00     0.282 C 
ATOM     13  O   UNL d   1      33.037  17.840 -22.776  0.00  0.00    -0.265 OA
ATOM     14  N   UNL d   1      32.483  19.138 -23.077  0.00  0.00    -0.206 NA
BRANCH  14  15
ATOM     15  C   UNL d   1      32.858  19.453 -22.398  0.00  0.00     0.102 C 
BRANCH  15  16
ATOM     16  C   UNL d   1      33.241  20.171 -22.301  0.00  0.00     0.021 C 
BRANCH  16  17
ATOM     17  C   UNL d   1      32.910  20.763 -21.836  0.00  0.00     0.002 A 
ATOM     18  C   UNL d   1      32.511  20.555 -21.145  0.00  0.00     0.000 A 
ATOM     19  C   UNL d   1      32.178  21.138 -20.676  0.00  0.00     0.000 A 
ATOM     20  C   UNL d   1      32.242  21.933 -20.896  0.00  0.00     0.000 A 
ATOM     21  C   UNL d   1      32.643  22.134 -21.591  0.00  0.00     0.000 A 
ATOM     22  C   UNL d   1      32.974  21.546 -22.055  0.00  0.00     0.000 A 
ENDBRANCH  16  17
ENDBRANCH  15  16
ENDBRANCH  14  15
ENDBRANCH  11  12
BRANCH  11  23
ATOM     23  C   UNL d   1      32.693  18.077 -24.601  0.00  0.00     0.129 C 
ATOM     24  N   UNL d   1      32.942  18.688 -25.097  0.00  0.00    -0.146 N 
ENDBRANCH  11  23
ENDBRANCH   1  11
BRANCH   2  25
ATOM     25  N   UNL d   1      32.344  16.702 -24.029  0.00  0.00    -0.192 NA
BRANCH  25  26
ATOM     26  C   UNL d   1      32.700  16.051 -24.387  0.00  0.00     0.057 C 
ATOM     27  C   UNL d   1      32.875  15.543 -23.429  0.00  0.00     0.014 C 
ENDBRANCH  25  26
BRANCH  25  28
ATOM     28  C   UNL d   1      32.939  16.416 -24.075  0.00  0.00     0.057 C 
ATOM     29  C   UNL d   1      33.234  15.453 -24.273  0.00  0.00     0.014 C 
ENDBRANCH  25  28
ENDBRANCH   2  25
TORSDOF 9
ENDMDL
