MODEL 1
REMARK VINA RESULT:      63.5      0.000      0.000
REMARK  5 active torsions:
REMARK  status: ('A' for Active; 'I' for Inactive)
REMARK    1  A    between atoms: S_2  and  C_1 
REMARK    2  A    between atoms: C_5  and  C_1 
REMARK    3  A    between atoms: C_10  and  S_2 
REMARK       I    between atoms: N_9  and  C_5 
REMARK    4  A    between atoms: C_19  and  N_9 
REMARK    5  A    between atoms: C_18  and  C_19 
ROOT
ATOM      1  C   UNL d   1      60.194  49.403  52.097  0.00  0.00     0.277 C 
ATOM      2  N   UNL d   1      59.575  49.461  51.540  0.00  0.00    -0.209 NA
ATOM      3  O   UNL d   1      60.038  49.590  52.893  0.00  0.00    -0.268 OA
ENDROOT
BRANCH   1   4
ATOM      4  C   UNL d   1      60.952  49.165  51.871  0.00  0.00     0.207 A 
ATOM      5  C   UNL d   1      61.700  48.925  51.647  0.00  0.00    -0.001 A 
ATOM      6  C   UNL d   1      61.610  49.643  52.047  0.00  0.00    -0.001 A 
BRANCH   4   7
ATOM      7  S   UNL d   1      61.061  48.453  51.472  0.00  0.00     0.203 S 
ATOM      8  O   UNL d   1      61.205  48.886  50.758  0.00  0.00    -0.221 OA
ATOM      9  O   UNL d   1      60.921  48.046  52.167  0.00  0.00    -0.221 OA
BRANCH   7  10
ATOM     10  C   UNL d   1      61.174  47.748  51.061  0.00  0.00     0.085 A 
ATOM     11  C   UNL d   1      61.911  47.588  50.727  0.00  0.00     0.011 A 
ATOM     12  C   UNL d   1      62.034  46.889  50.315  0.00  0.00     0.001 A 
ATOM     13  C   UNL d   1      61.414  46.339  50.233  0.00  0.00     0.000 A 
ATOM     14  C   UNL d   1      60.679  46.502  50.567  0.00  0.00     0.001 A 
ATOM     15  C   UNL d   1      60.556  47.197  50.977  0.00  0.00     0.011 A 
ENDBRANCH   7  10
ENDBRANCH   4   7
ENDBRANCH   1   4
BRANCH   2  16
ATOM     16  C   UNL d   1      58.800  49.706  51.776  0.00  0.00     0.102 C 
BRANCH  16  17
ATOM     17  C   UNL d   1      58.161  49.653  51.225  0.00  0.00     0.021 A 
ATOM     18  C   UNL d   1      58.316  49.665  50.419  0.00  0.00     0.028 A 
ATOM     19  C   UNL d   1      57.678  49.613  49.888  0.00  0.00     0.119 A 
ATOM     20  O   UNL d   1      57.635  49.608  49.077  0.00  0.00    -0.300 OA
ATOM     21  C   UNL d   1      56.902  49.549  50.180  0.00  0.00     0.119 A 
ATOM     22  C   UNL d   1      56.854  49.544  48.877  0.00  0.00     0.304 A 
ATOM     23  O   UNL d   1      56.412  49.509  49.536  0.00  0.00    -0.300 OA
ATOM     24  C   UNL d   1      56.775  49.540  50.997  0.00  0.00     0.026 A 
ATOM     25  C   UNL d   1      57.420  49.593  51.504  0.00  0.00     0.004 A 
ENDBRANCH  16  17
ENDBRANCH   2  16
TORSDOF 5
ENDMDL
MODEL 2
REMARK VINA RESULT:      63.8      0.978      1.517
REMARK  5 active torsions:
REMARK  status: ('A' for Active; 'I' for Inactive)
REMARK    1  A    between atoms: S_2  and  C_1 
REMARK    2  A    between atoms: C_5  and  C_1 
REMARK    3  A    between atoms: C_10  and  S_2 
REMARK       I    between atoms: N_9  and  C_5 
REMARK    4  A    between atoms: C_19  and  N_9 
REMARK    5  A    between atoms: C_18  and  C_19 
ROOT
ATOM      1  C   UNL d   1      60.607  48.997  50.953  0.00  0.00     0.277 C 
ATOM      2  N   UNL d   1      59.867  48.933  50.572  0.00  0.00    -0.209 NA
ATOM      3  O   UNL d   1      61.034  49.708  50.885  0.00  0.00    -0.268 OA
ENDROOT
BRANCH   1   4
ATOM      4  C   UNL d   1      60.918  48.370  51.390  0.00  0.00     0.207 A 
ATOM      5  C   UNL d   1      61.226  47.747  51.820  0.00  0.00    -0.001 A 
ATOM      6  C   UNL d   1      61.137  48.484  52.186  0.00  0.00    -0.001 A 
BRANCH   4   7
ATOM      7  S   UNL d   1      61.015  47.629  51.044  0.00  0.00     0.203 S 
ATOM      8  O   UNL d   1      60.729  47.269  51.755  0.00  0.00    -0.221 OA
ATOM      9  O   UNL d   1      61.290  47.989  50.363  0.00  0.00    -0.221 OA
BRANCH   7  10
ATOM     10  C   UNL d   1      61.107  46.882  50.709  0.00  0.00     0.085 A 
ATOM     11  C   UNL d   1      60.675  46.247  51.012  0.00  0.00     0.011 A 
ATOM     12  C   UNL d   1      60.759  45.499  50.687  0.00  0.00     0.001 A 
ATOM     13  C   UNL d   1      61.281  45.379  50.048  0.00  0.00     0.000 A 
ATOM     14  C   UNL d   1      61.710  46.014  49.748  0.00  0.00     0.001 A 
ATOM     15  C   UNL d   1      61.628  46.759  50.071  0.00  0.00     0.011 A 
ENDBRANCH   7  10
ENDBRANCH   4   7
ENDBRANCH   1   4
BRANCH   2  16
ATOM     16  C   UNL d   1      59.551  49.579  50.125  0.00  0.00     0.102 C 
BRANCH  16  17
ATOM     17  C   UNL d   1      58.721  49.613  49.970  0.00  0.00     0.021 A 
ATOM     18  C   UNL d   1      58.190  49.613  50.597  0.00  0.00     0.028 A 
ATOM     19  C   UNL d   1      57.377  49.647  50.432  0.00  0.00     0.119 A 
ATOM     20  O   UNL d   1      56.717  49.656  50.906  0.00  0.00    -0.300 OA
ATOM     21  C   UNL d   1      57.116  49.680  49.642  0.00  0.00     0.119 A 
ATOM     22  C   UNL d   1      56.071  49.693  50.422  0.00  0.00     0.304 A 
ATOM     23  O   UNL d   1      56.307  49.708  49.663  0.00  0.00    -0.300 OA
ATOM     24  C   UNL d   1      57.673  49.678  49.031  0.00  0.00     0.026 A 
ATOM     25  C   UNL d   1      58.472  49.644  49.217  0.00  0.00     0.004 A 
ENDBRANCH  16  17
ENDBRANCH   2  16
TORSDOF 5
ENDMDL
MODEL 3
REMARK VINA RESULT:      64.5      1.658      4.465
REMARK  5 active torsions:
REMARK  status: ('A' for Active; 'I' for Inactive)
REMARK    1  A    between atoms: S_2  and  C_1 
REMARK    2  A    between atoms: C_5  and  C_1 
REMARK    3  A    between atoms: C_10  and  S_2 
REMARK       I    between atoms: N_9  and  C_5 
REMARK    4  A    between atoms: C_19  and  N_9 
REMARK    5  A    between atoms: C_18  and  C_19 
ROOT
ATOM      1  C   UNL d   1      60.515  48.973  50.374  0.00  0.00     0.277 C 
ATOM      2  N   UNL d   1      60.905  48.261  50.568  0.00  0.00    -0.209 NA
ATOM      3  O   UNL d   1      60.647  49.313  49.626  0.00  0.00    -0.268 OA
ENDROOT
BRANCH   1   4
ATOM      4  C   UNL d   1      60.005  49.342  50.909  0.00  0.00     0.207 A 
ATOM      5  C   UNL d   1      59.498  49.706  51.436  0.00  0.00    -0.001 A 
ATOM      6  C   UNL d   1      60.299  49.636  51.632  0.00  0.00    -0.001 A 
BRANCH   4   7
ATOM      7  S   UNL d   1      59.205  49.421  50.733  0.00  0.00     0.203 S 
ATOM      8  O   UNL d   1      59.023  49.315  51.554  0.00  0.00    -0.221 OA
ATOM      9  O   UNL d   1      59.393  49.522  49.944  0.00  0.00    -0.221 OA
BRANCH   7  10
ATOM     10  C   UNL d   1      58.401  49.498  50.570  0.00  0.00     0.085 A 
ATOM     11  C   UNL d   1      58.157  49.626  49.792  0.00  0.00     0.011 A 
ATOM     12  C   UNL d   1      57.359  49.705  49.619  0.00  0.00     0.001 A 
ATOM     13  C   UNL d   1      56.793  49.656  50.228  0.00  0.00     0.000 A 
ATOM     14  C   UNL d   1      57.040  49.528  51.003  0.00  0.00     0.001 A 
ATOM     15  C   UNL d   1      57.834  49.450  51.177  0.00  0.00     0.011 A 
ENDBRANCH   7  10
ENDBRANCH   4   7
ENDBRANCH   1   4
BRANCH   2  16
ATOM     16  C   UNL d   1      61.426  47.887  50.017  0.00  0.00     0.102 C 
BRANCH  16  17
ATOM     17  C   UNL d   1      61.436  47.044  49.958  0.00  0.00     0.021 A 
ATOM     18  C   UNL d   1      61.917  46.680  49.400  0.00  0.00     0.028 A 
ATOM     19  C   UNL d   1      61.918  45.851  49.353  0.00  0.00     0.119 A 
ATOM     20  O   UNL d   1      62.317  45.326  48.878  0.00  0.00    -0.300 OA
ATOM     21  C   UNL d   1      61.437  45.407  49.866  0.00  0.00     0.119 A 
ATOM     22  C   UNL d   1      62.087  44.582  49.094  0.00  0.00     0.304 A 
ATOM     23  O   UNL d   1      61.559  44.627  49.687  0.00  0.00    -0.300 OA
ATOM     24  C   UNL d   1      60.963  45.800  50.419  0.00  0.00     0.026 A 
ATOM     25  C   UNL d   1      60.977  46.620  50.448  0.00  0.00     0.004 A 
ENDBRANCH  16  17
ENDBRANCH   2  16
TORSDOF 5
ENDMDL
