MODEL 1
REMARK VINA RESULT:      -0.3      0.000      0.000
REMARK  4 active torsions:
REMARK  status: ('A' for Active; 'I' for Inactive)
REMARK    1  A    between atoms: C_7  and  C_1 
REMARK    2  A    between atoms: S_4  and  O_12 
REMARK    3  A    between atoms: O_12  and  C_10 
REMARK    4  A    between atoms: C_25  and  C_13 
ROOT
ATOM      1  C   UNL d   1     -41.682-122.377 -51.979  0.00  0.00     0.064 A 
ATOM      2  C   UNL d   1     -42.292-122.871 -50.790  0.00  0.00     0.062 A 
ATOM      3  C   UNL d   1     -42.263-122.829 -51.611  0.00  0.00     0.199 A 
ATOM      4  C   UNL d   1     -41.123-121.961 -51.522  0.00  0.00     0.126 A 
ATOM      5  C   UNL d   1     -41.740-122.461 -50.335  0.00  0.00     0.105 A 
ATOM      6  O   UNL d   1     -41.155-122.006 -50.690  0.00  0.00    -0.305 OA
ATOM      7  C   UNL d   1     -42.870-123.322 -50.420  0.00  0.00     0.007 A 
ATOM      8  C   UNL d   1     -42.346-122.953 -49.147  0.00  0.00     0.115 A 
ATOM      9  C   UNL d   1     -41.766-122.501 -49.517  0.00  0.00     0.050 A 
ATOM     10  C   UNL d   1     -42.900-123.364 -49.599  0.00  0.00     0.024 A 
ATOM     11  O   UNL d   1     -42.810-123.236 -52.058  0.00  0.00    -0.286 OA
ENDROOT
BRANCH   1  12
ATOM     12  C   UNL d   1     -41.655-122.336 -52.802  0.00  0.00     0.007 A 
ATOM     13  C   UNL d   1     -42.147-121.802 -53.197  0.00  0.00     0.027 A 
ATOM     14  C   UNL d   1     -42.121-121.760 -54.019  0.00  0.00     0.123 A 
ATOM     15  O   UNL d   1     -42.618-121.220 -54.421  0.00  0.00    -0.301 OA
ATOM     16  C   UNL d   1     -41.603-122.254 -54.445  0.00  0.00     0.123 A 
ATOM     17  C   UNL d   1     -42.585-121.185 -55.252  0.00  0.00     0.149 A 
ATOM     18  C   UNL d   1     -42.071-121.674 -55.673  0.00  0.00     0.149 A 
ATOM     19  O   UNL d   1     -41.578-122.211 -55.275  0.00  0.00    -0.301 OA
ATOM     20  C   UNL d   1     -41.123-122.777 -54.048  0.00  0.00     0.027 A 
ATOM     21  C   UNL d   1     -41.143-122.825 -53.223  0.00  0.00     0.002 A 
ENDBRANCH   1  12
BRANCH  10  22
ATOM     22  C   UNL d   1     -43.480-123.816 -49.231  0.00  0.00     0.002 C 
ATOM     23  C   UNL d   1     -44.172-123.463 -48.953  0.00  0.00     0.000 C 
ENDBRANCH  10  22
BRANCH   8  24
ATOM     24  O   UNL d   1     -42.373-122.993 -48.326  0.00  0.00    -0.230 OA
BRANCH  24  25
ATOM     25  S   UNL d   1     -41.749-122.695 -47.876  0.00  0.00     0.285 S 
ATOM     26  O   UNL d   1     -42.147-121.977 -47.792  0.00  0.00    -0.197 OA
ATOM     27  O   UNL d   1     -41.347-123.411 -47.958  0.00  0.00    -0.197 OA
ATOM     28  C   UNL d   1     -41.123-122.400 -47.428  0.00  0.00     0.172 C 
ENDBRANCH  24  25
ENDBRANCH   8  24
TORSDOF 4
ENDMDL
