MODEL 1
REMARK VINA RESULT:      -6.2      0.000      0.000
REMARK  7 active torsions:
REMARK  status: ('A' for Active; 'I' for Inactive)
REMARK    1  A    between atoms: N_2  and  C_1 
REMARK    2  A    between atoms: C_5  and  C_1 
REMARK    3  A    between atoms: O_4  and  N_2 
REMARK    4  A    between atoms: C_3  and  O_4 
REMARK    5  A    between atoms: C_6  and  C_3 
REMARK    6  A    between atoms: C_17  and  C_14 
REMARK    7  A    between atoms: C_18  and  C_17 
ROOT
ATOM      1  C   UNL d   1     -41.496-122.298 -51.215  0.00  0.00     0.319 C 
ATOM      2  O   UNL d   1     -41.206-121.524 -51.273  0.00  0.00    -0.257 OA
ENDROOT
BRANCH   1   3
ATOM      3  O   UNL d   1     -41.565-122.765 -51.890  0.00  0.00    -0.168 OA
BRANCH   3   4
ATOM      4  N   UNL d   1     -41.536-122.418 -52.638  0.00  0.00    -0.100 NA
BRANCH   4   5
ATOM      5  C   UNL d   1     -41.544-122.891 -53.312  0.00  0.00     0.228 C 
ATOM      6  N   UNL d   1     -41.354-123.690 -53.255  0.00  0.00    -0.123 N 
BRANCH   5   7
ATOM      7  C   UNL d   1     -41.741-122.564 -54.043  0.00  0.00     0.121 A 
ATOM      8  N   UNL d   1     -42.458-122.154 -54.132  0.00  0.00    -0.241 NA
ATOM      9  C   UNL d   1     -42.657-121.824 -54.870  0.00  0.00     0.099 A 
ATOM     10  C   UNL d   1     -42.138-121.907 -55.513  0.00  0.00     0.021 A 
ATOM     11  C   UNL d   1     -41.429-122.314 -55.421  0.00  0.00     0.003 A 
ATOM     12  C   UNL d   1     -41.232-122.641 -54.690  0.00  0.00     0.022 A 
ENDBRANCH   5   7
ENDBRANCH   4   5
ENDBRANCH   3   4
ENDBRANCH   1   3
BRANCH   1  13
ATOM     13  C   UNL d   1     -41.716-122.603 -50.474  0.00  0.00     0.065 A 
ATOM     14  C   UNL d   1     -41.170-123.042 -50.040  0.00  0.00     0.005 A 
ATOM     15  C   UNL d   1     -41.384-123.345 -49.306  0.00  0.00     0.000 A 
ATOM     16  C   UNL d   1     -42.146-123.209 -49.004  0.00  0.00     0.000 A 
ATOM     17  C   UNL d   1     -42.687-122.768 -49.444  0.00  0.00     0.000 A 
ATOM     18  C   UNL d   1     -42.467-122.464 -50.185  0.00  0.00     0.005 A 
BRANCH  16  19
ATOM     19  C   UNL d   1     -42.356-123.515 -48.266  0.00  0.00     0.000 C 
BRANCH  19  20
ATOM     20  C   UNL d   1     -42.176-123.096 -47.579  0.00  0.00     0.000 C 
ATOM     21  C   UNL d   1     -42.337-123.415 -46.837  0.00  0.00     0.000 C 
ENDBRANCH  19  20
ENDBRANCH  16  19
ENDBRANCH   1  13
TORSDOF 7
ENDMDL
MODEL 2
REMARK VINA RESULT:      -4.3      1.482      5.299
REMARK  7 active torsions:
REMARK  status: ('A' for Active; 'I' for Inactive)
REMARK    1  A    between atoms: N_2  and  C_1 
REMARK    2  A    between atoms: C_5  and  C_1 
REMARK    3  A    between atoms: O_4  and  N_2 
REMARK    4  A    between atoms: C_3  and  O_4 
REMARK    5  A    between atoms: C_6  and  C_3 
REMARK    6  A    between atoms: C_17  and  C_14 
REMARK    7  A    between atoms: C_18  and  C_17 
ROOT
ATOM      1  C   UNL d   1     -41.508-122.183 -51.431  0.00  0.00     0.319 C 
ATOM      2  O   UNL d   1     -41.123-121.548 -51.061  0.00  0.00    -0.257 OA
ENDROOT
BRANCH   1   3
ATOM      3  O   UNL d   1     -41.885-122.757 -50.978  0.00  0.00    -0.168 OA
BRANCH   3   4
ATOM      4  N   UNL d   1     -41.719-122.826 -50.173  0.00  0.00    -0.100 NA
BRANCH   4   5
ATOM      5  C   UNL d   1     -42.159-123.339 -49.704  0.00  0.00     0.228 C 
ATOM      6  N   UNL d   1     -42.735-123.817 -50.046  0.00  0.00    -0.123 N 
BRANCH   5   7
ATOM      7  C   UNL d   1     -42.023-123.375 -48.891  0.00  0.00     0.121 A 
ATOM      8  N   UNL d   1     -42.548-123.000 -48.367  0.00  0.00    -0.241 NA
ATOM      9  C   UNL d   1     -42.410-123.035 -47.547  0.00  0.00     0.099 A 
ATOM     10  C   UNL d   1     -41.749-123.446 -47.257  0.00  0.00     0.021 A 
ATOM     11  C   UNL d   1     -41.231-123.816 -47.778  0.00  0.00     0.003 A 
ATOM     12  C   UNL d   1     -41.367-123.781 -48.591  0.00  0.00     0.022 A 
ENDBRANCH   5   7
ENDBRANCH   4   5
ENDBRANCH   3   4
ENDBRANCH   1   3
BRANCH   1  13
ATOM     13  C   UNL d   1     -41.511-122.237 -52.260  0.00  0.00     0.065 A 
ATOM     14  C   UNL d   1     -41.898-121.656 -52.700  0.00  0.00     0.005 A 
ATOM     15  C   UNL d   1     -41.903-121.706 -53.521  0.00  0.00     0.000 A 
ATOM     16  C   UNL d   1     -41.522-122.338 -53.903  0.00  0.00     0.000 A 
ATOM     17  C   UNL d   1     -41.137-122.915 -53.456  0.00  0.00     0.000 A 
ATOM     18  C   UNL d   1     -41.134-122.860 -52.627  0.00  0.00     0.005 A 
BRANCH  16  19
ATOM     19  C   UNL d   1     -41.531-122.383 -54.729  0.00  0.00     0.000 C 
BRANCH  19  20
ATOM     20  C   UNL d   1     -42.249-122.423 -55.132  0.00  0.00     0.000 C 
ATOM     21  C   UNL d   1     -42.309-122.163 -55.911  0.00  0.00     0.000 C 
ENDBRANCH  19  20
ENDBRANCH  16  19
ENDBRANCH   1  13
TORSDOF 7
ENDMDL
