MODEL 1
REMARK VINA RESULT:      -9.7      0.000      0.000
REMARK  4 active torsions:
REMARK  status: ('A' for Active; 'I' for Inactive)
REMARK    1  A    between atoms: C_6  and  N_1 
REMARK    2  A    between atoms: C_7  and  C_6 
REMARK    3  A    between atoms: C_14  and  C_7 
REMARK    4  A    between atoms: N_10  and  C_14 
ROOT
ATOM      1  N   UNL d   1      52.787  32.874  53.288  0.00  0.00    -0.303 N 
ATOM      2  C   UNL d   1      53.283  33.194  53.867  0.00  0.00     0.064 A 
ATOM      3  C   UNL d   1      53.736  32.577  54.191  0.00  0.00     0.018 A 
ATOM      4  C   UNL d   1      52.931  32.060  53.253  0.00  0.00     0.064 A 
ATOM      5  C   UNL d   1      53.516  31.877  53.809  0.00  0.00     0.018 A 
ATOM      6  C   UNL d   1      53.386  33.967  54.144  0.00  0.00     0.018 A 
ATOM      7  C   UNL d   1      54.284  32.736  54.786  0.00  0.00     0.002 A 
ATOM      8  C   UNL d   1      52.606  31.462  52.787  0.00  0.00     0.018 A 
ATOM      9  C   UNL d   1      53.772  31.098  53.897  0.00  0.00     0.002 A 
ATOM     10  C   UNL d   1      54.386  33.505  55.062  0.00  0.00     0.000 A 
ATOM     11  C   UNL d   1      53.940  34.124  54.745  0.00  0.00     0.002 A 
ATOM     12  C   UNL d   1      52.862  30.687  52.875  0.00  0.00     0.002 A 
ATOM     13  C   UNL d   1      53.447  30.505  53.431  0.00  0.00     0.000 A 
ENDROOT
BRANCH   1  14
ATOM     14  C   UNL d   1      52.251  33.294  52.834  0.00  0.00     0.124 C 
BRANCH  14  15
ATOM     15  C   UNL d   1      51.494  33.446  53.113  0.00  0.00     0.232 C 
ATOM     16  O   UNL d   1      51.152  32.959  53.681  0.00  0.00    -0.283 OA
BRANCH  15  17
ATOM     17  C   UNL d   1      51.076  34.093  52.819  0.00  0.00     0.142 C 
BRANCH  17  18
ATOM     18  N   UNL d   1      50.250  34.102  52.849  0.00  0.00    -0.237 NA
ATOM     19  C   UNL d   1      49.842  34.755  52.556  0.00  0.00     0.120 C 
ENDBRANCH  17  18
ENDBRANCH  15  17
ENDBRANCH  14  15
ENDBRANCH   1  14
TORSDOF 4
ENDMDL
MODEL 2
REMARK VINA RESULT:      -9.7      0.024      2.151
REMARK  4 active torsions:
REMARK  status: ('A' for Active; 'I' for Inactive)
REMARK    1  A    between atoms: C_6  and  N_1 
REMARK    2  A    between atoms: C_7  and  C_6 
REMARK    3  A    between atoms: C_14  and  C_7 
REMARK    4  A    between atoms: N_10  and  C_14 
ROOT
ATOM      1  N   UNL d   1      52.786  32.861  53.291  0.00  0.00    -0.303 N 
ATOM      2  C   UNL d   1      52.932  32.048  53.252  0.00  0.00     0.064 A 
ATOM      3  C   UNL d   1      53.525  31.865  53.806  0.00  0.00     0.018 A 
ATOM      4  C   UNL d   1      53.286  33.181  53.867  0.00  0.00     0.064 A 
ATOM      5  C   UNL d   1      53.741  32.568  54.184  0.00  0.00     0.018 A 
ATOM      6  C   UNL d   1      52.606  31.447  52.787  0.00  0.00     0.018 A 
ATOM      7  C   UNL d   1      53.785  31.087  53.889  0.00  0.00     0.002 A 
ATOM      8  C   UNL d   1      53.385  33.953  54.143  0.00  0.00     0.018 A 
ATOM      9  C   UNL d   1      54.293  32.728  54.776  0.00  0.00     0.002 A 
ATOM     10  C   UNL d   1      53.460  30.488  53.426  0.00  0.00     0.000 A 
ATOM     11  C   UNL d   1      52.871  30.663  52.874  0.00  0.00     0.002 A 
ATOM     12  C   UNL d   1      53.935  34.110  54.732  0.00  0.00     0.002 A 
ATOM     13  C   UNL d   1      54.390  33.496  55.049  0.00  0.00     0.000 A 
ENDROOT
BRANCH   1  14
ATOM     14  C   UNL d   1      52.241  33.269  52.837  0.00  0.00     0.124 C 
BRANCH  14  15
ATOM     15  C   UNL d   1      51.489  33.427  53.126  0.00  0.00     0.232 C 
ATOM     16  O   UNL d   1      51.138  32.927  53.676  0.00  0.00    -0.283 OA
BRANCH  15  17
ATOM     17  C   UNL d   1      51.085  34.096  52.860  0.00  0.00     0.142 C 
BRANCH  17  18
ATOM     18  N   UNL d   1      50.258  34.094  52.826  0.00  0.00    -0.237 NA
ATOM     19  C   UNL d   1      49.863  34.778  52.590  0.00  0.00     0.120 C 
ENDBRANCH  17  18
ENDBRANCH  15  17
ENDBRANCH  14  15
ENDBRANCH   1  14
TORSDOF 4
ENDMDL
MODEL 3
REMARK VINA RESULT:      -9.3      1.061      3.144
REMARK  4 active torsions:
REMARK  status: ('A' for Active; 'I' for Inactive)
REMARK    1  A    between atoms: C_6  and  N_1 
REMARK    2  A    between atoms: C_7  and  C_6 
REMARK    3  A    between atoms: C_14  and  C_7 
REMARK    4  A    between atoms: N_10  and  C_14 
ROOT
ATOM      1  N   UNL d   1      53.144  32.781  53.303  0.00  0.00    -0.303 N 
ATOM      2  C   UNL d   1      52.598  33.375  53.120  0.00  0.00     0.064 A 
ATOM      3  C   UNL d   1      52.717  34.008  53.645  0.00  0.00     0.018 A 
ATOM      4  C   UNL d   1      53.601  33.045  53.940  0.00  0.00     0.064 A 
ATOM      5  C   UNL d   1      53.339  33.801  54.150  0.00  0.00     0.018 A 
ATOM      6  C   UNL d   1      52.005  33.426  52.544  0.00  0.00     0.018 A 
ATOM      7  C   UNL d   1      52.248  34.683  53.591  0.00  0.00     0.002 A 
ATOM      8  C   UNL d   1      54.222  32.695  54.354  0.00  0.00     0.018 A 
ATOM      9  C   UNL d   1      53.698  34.203  54.774  0.00  0.00     0.002 A 
ATOM     10  C   UNL d   1      51.658  34.734  53.018  0.00  0.00     0.000 A 
ATOM     11  C   UNL d   1      51.533  34.109  52.493  0.00  0.00     0.002 A 
ATOM     12  C   UNL d   1      54.579  33.097  54.975  0.00  0.00     0.002 A 
ATOM     13  C   UNL d   1      54.316  33.852  55.186  0.00  0.00     0.000 A 
ENDROOT
BRANCH   1  14
ATOM     14  C   UNL d   1      53.213  32.062  52.918  0.00  0.00     0.124 C 
BRANCH  14  15
ATOM     15  C   UNL d   1      52.817  31.399  53.195  0.00  0.00     0.232 C 
ATOM     16  O   UNL d   1      52.004  31.418  53.319  0.00  0.00    -0.283 OA
BRANCH  15  17
ATOM     17  C   UNL d   1      53.241  30.708  53.348  0.00  0.00     0.142 C 
BRANCH  17  18
ATOM     18  N   UNL d   1      52.859  29.975  53.333  0.00  0.00    -0.237 NA
ATOM     19  C   UNL d   1      53.198  29.335  53.725  0.00  0.00     0.120 C 
ENDBRANCH  17  18
ENDBRANCH  15  17
ENDBRANCH  14  15
ENDBRANCH   1  14
TORSDOF 4
ENDMDL
MODEL 4
REMARK VINA RESULT:      -9.2      1.069      2.940
REMARK  4 active torsions:
REMARK  status: ('A' for Active; 'I' for Inactive)
REMARK    1  A    between atoms: C_6  and  N_1 
REMARK    2  A    between atoms: C_7  and  C_6 
REMARK    3  A    between atoms: C_14  and  C_7 
REMARK    4  A    between atoms: N_10  and  C_14 
ROOT
ATOM      1  N   UNL d   1      53.165  32.779  53.319  0.00  0.00    -0.303 N 
ATOM      2  C   UNL d   1      53.616  33.047  53.958  0.00  0.00     0.064 A 
ATOM      3  C   UNL d   1      53.345  33.804  54.167  0.00  0.00     0.018 A 
ATOM      4  C   UNL d   1      52.616  33.368  53.132  0.00  0.00     0.064 A 
ATOM      5  C   UNL d   1      52.727  34.000  53.654  0.00  0.00     0.018 A 
ATOM      6  C   UNL d   1      54.239  32.703  54.381  0.00  0.00     0.018 A 
ATOM      7  C   UNL d   1      53.697  34.210  54.792  0.00  0.00     0.002 A 
ATOM      8  C   UNL d   1      52.029  33.411  52.553  0.00  0.00     0.018 A 
ATOM      9  C   UNL d   1      52.251  34.671  53.595  0.00  0.00     0.002 A 
ATOM     10  C   UNL d   1      54.317  33.869  55.213  0.00  0.00     0.000 A 
ATOM     11  C   UNL d   1      54.592  33.116  55.012  0.00  0.00     0.002 A 
ATOM     12  C   UNL d   1      51.557  34.080  52.496  0.00  0.00     0.002 A 
ATOM     13  C   UNL d   1      51.668  34.711  53.018  0.00  0.00     0.000 A 
ENDROOT
BRANCH   1  14
ATOM     14  C   UNL d   1      53.252  32.057  52.944  0.00  0.00     0.124 C 
BRANCH  14  15
ATOM     15  C   UNL d   1      52.847  31.394  53.210  0.00  0.00     0.232 C 
ATOM     16  O   UNL d   1      52.030  31.411  53.300  0.00  0.00    -0.283 OA
BRANCH  15  17
ATOM     17  C   UNL d   1      53.268  30.707  53.389  0.00  0.00     0.142 C 
BRANCH  17  18
ATOM     18  N   UNL d   1      52.892  29.971  53.356  0.00  0.00    -0.237 NA
ATOM     19  C   UNL d   1      53.209  29.337  53.776  0.00  0.00     0.120 C 
ENDBRANCH  17  18
ENDBRANCH  15  17
ENDBRANCH  14  15
ENDBRANCH   1  14
TORSDOF 4
ENDMDL
MODEL 5
REMARK VINA RESULT:      -8.4      1.356      3.431
REMARK  4 active torsions:
REMARK  status: ('A' for Active; 'I' for Inactive)
REMARK    1  A    between atoms: C_6  and  N_1 
REMARK    2  A    between atoms: C_7  and  C_6 
REMARK    3  A    between atoms: C_14  and  C_7 
REMARK    4  A    between atoms: N_10  and  C_14 
ROOT
ATOM      1  N   UNL d   1      53.557  32.500  53.561  0.00  0.00    -0.303 N 
ATOM      2  C   UNL d   1      53.366  31.707  53.427  0.00  0.00     0.064 A 
ATOM      3  C   UNL d   1      52.608  31.677  53.088  0.00  0.00     0.018 A 
ATOM      4  C   UNL d   1      52.920  32.961  53.305  0.00  0.00     0.064 A 
ATOM      5  C   UNL d   1      52.335  32.454  53.014  0.00  0.00     0.018 A 
ATOM      6  C   UNL d   1      53.780  31.005  53.569  0.00  0.00     0.018 A 
ATOM      7  C   UNL d   1      52.271  30.950  52.893  0.00  0.00     0.002 A 
ATOM      8  C   UNL d   1      52.797  33.777  53.301  0.00  0.00     0.018 A 
ATOM      9  C   UNL d   1      51.630  32.765  52.719  0.00  0.00     0.002 A 
ATOM     10  C   UNL d   1      52.683  30.251  53.034  0.00  0.00     0.000 A 
ATOM     11  C   UNL d   1      53.437  30.273  53.371  0.00  0.00     0.002 A 
ATOM     12  C   UNL d   1      52.094  34.084  53.007  0.00  0.00     0.002 A 
ATOM     13  C   UNL d   1      51.510  33.577  52.715  0.00  0.00     0.000 A 
ENDROOT
BRANCH   1  14
ATOM     14  C   UNL d   1      54.256  32.774  53.889  0.00  0.00     0.124 C 
BRANCH  14  15
ATOM     15  C   UNL d   1      54.288  32.999  54.678  0.00  0.00     0.232 C 
ATOM     16  O   UNL d   1      53.981  32.511  55.265  0.00  0.00    -0.283 OA
BRANCH  15  17
ATOM     17  C   UNL d   1      54.633  33.720  54.880  0.00  0.00     0.142 C 
BRANCH  17  18
ATOM     18  N   UNL d   1      55.247  33.746  55.433  0.00  0.00    -0.237 NA
ATOM     19  C   UNL d   1      55.785  34.370  55.411  0.00  0.00     0.120 C 
ENDBRANCH  17  18
ENDBRANCH  15  17
ENDBRANCH  14  15
ENDBRANCH   1  14
TORSDOF 4
ENDMDL
MODEL 6
REMARK VINA RESULT:      -8.3      1.355      2.948
REMARK  4 active torsions:
REMARK  status: ('A' for Active; 'I' for Inactive)
REMARK    1  A    between atoms: C_6  and  N_1 
REMARK    2  A    between atoms: C_7  and  C_6 
REMARK    3  A    between atoms: C_14  and  C_7 
REMARK    4  A    between atoms: N_10  and  C_14 
ROOT
ATOM      1  N   UNL d   1      53.559  32.503  53.560  0.00  0.00    -0.303 N 
ATOM      2  C   UNL d   1      52.922  32.964  53.303  0.00  0.00     0.064 A 
ATOM      3  C   UNL d   1      52.334  32.455  53.009  0.00  0.00     0.018 A 
ATOM      4  C   UNL d   1      53.367  31.709  53.426  0.00  0.00     0.064 A 
ATOM      5  C   UNL d   1      52.613  31.679  53.087  0.00  0.00     0.018 A 
ATOM      6  C   UNL d   1      52.797  33.782  53.296  0.00  0.00     0.018 A 
ATOM      7  C   UNL d   1      51.630  32.764  52.713  0.00  0.00     0.002 A 
ATOM      8  C   UNL d   1      53.782  31.010  53.570  0.00  0.00     0.018 A 
ATOM      9  C   UNL d   1      52.277  30.951  52.893  0.00  0.00     0.002 A 
ATOM     10  C   UNL d   1      51.505  33.578  52.706  0.00  0.00     0.000 A 
ATOM     11  C   UNL d   1      52.084  34.091  52.996  0.00  0.00     0.002 A 
ATOM     12  C   UNL d   1      53.445  30.287  53.376  0.00  0.00     0.002 A 
ATOM     13  C   UNL d   1      52.691  30.257  53.037  0.00  0.00     0.000 A 
ENDROOT
BRANCH   1  14
ATOM     14  C   UNL d   1      54.253  32.788  53.887  0.00  0.00     0.124 C 
BRANCH  14  15
ATOM     15  C   UNL d   1      54.285  33.003  54.678  0.00  0.00     0.232 C 
ATOM     16  O   UNL d   1      53.982  32.507  55.260  0.00  0.00    -0.283 OA
BRANCH  15  17
ATOM     17  C   UNL d   1      54.624  33.726  54.888  0.00  0.00     0.142 C 
BRANCH  17  18
ATOM     18  N   UNL d   1      55.248  33.748  55.431  0.00  0.00    -0.237 NA
ATOM     19  C   UNL d   1      55.790  34.368  55.398  0.00  0.00     0.120 C 
ENDBRANCH  17  18
ENDBRANCH  15  17
ENDBRANCH  14  15
ENDBRANCH   1  14
TORSDOF 4
ENDMDL
