MODEL 1
REMARK VINA RESULT:      -3.4      0.000      0.000
REMARK  4 active torsions:
REMARK  status: ('A' for Active; 'I' for Inactive)
REMARK       I    between atoms: C_2  and  N_1 
REMARK    1  A    between atoms: C_3  and  N_1 
REMARK    2  A    between atoms: C_5  and  C_2 
REMARK    3  A    between atoms: C_4  and  C_3 
REMARK    4  A    between atoms: N_6  and  C_3 
ROOT
ATOM      1  C   UNL d   1      58.471  -0.702  29.428  0.00  0.00     0.170 C 
ENDROOT
BRANCH   1   2
ATOM      2  N   UNL d   1      57.894  -0.772  30.024  0.00  0.00    -0.191 NA
ATOM      3  C   UNL d   1      58.046  -0.415  30.796  0.00  0.00     0.281 C 
ATOM      4  O   UNL d   1      58.745  -0.010  30.953  0.00  0.00    -0.265 OA
BRANCH   3   5
ATOM      5  C   UNL d   1      57.484  -0.474  31.403  0.00  0.00     0.069 A 
ATOM      6  C   UNL d   1      57.490   0.092  31.996  0.00  0.00     0.062 A 
ATOM      7 CL   UNL d   1      57.939   0.682  32.086  0.00  0.00    -0.082 Cl
ATOM      8  C   UNL d   1      56.919   0.055  32.636  0.00  0.00     0.012 A 
ATOM      9  C   UNL d   1      56.368  -0.550  32.651  0.00  0.00     0.001 A 
ATOM     10  C   UNL d   1      56.366  -1.128  32.041  0.00  0.00     0.000 A 
ATOM     11  C   UNL d   1      56.929  -1.085  31.417  0.00  0.00     0.006 A 
ENDBRANCH   3   5
ENDBRANCH   1   2
BRANCH   1  12
ATOM     12  C   UNL d   1      58.482  -0.010  28.960  0.00  0.00     0.249 C 
ATOM     13 CL   UNL d   1      58.462   0.644  28.498  0.00  0.00    -0.075 Cl
ATOM     14 CL   UNL d   1      59.168   0.564  29.013  0.00  0.00    -0.075 Cl
ATOM     15 CL   UNL d   1      57.868   0.080  28.500  0.00  0.00    -0.075 Cl
ENDBRANCH   1  12
BRANCH   1  16
ATOM     16  N   UNL d   1      59.018  -1.295  29.299  0.00  0.00    -0.286 N 
ATOM     17  C   UNL d   1      59.801  -1.142  29.378  0.00  0.00     0.108 A 
ATOM     18  C   UNL d   1      60.354  -1.740  29.248  0.00  0.00     0.142 A 
ATOM     19  O   UNL d   1      60.142  -2.482  29.042  0.00  0.00    -0.300 OA
ATOM     20  C   UNL d   1      59.324  -2.647  28.959  0.00  0.00     0.142 A 
ATOM     21  C   UNL d   1      58.772  -2.049  29.088  0.00  0.00     0.108 A 
ENDBRANCH   1  16
TORSDOF 4
ENDMDL
MODEL 2
REMARK VINA RESULT:      -2.9      1.216      1.632
REMARK  4 active torsions:
REMARK  status: ('A' for Active; 'I' for Inactive)
REMARK       I    between atoms: C_2  and  N_1 
REMARK    1  A    between atoms: C_3  and  N_1 
REMARK    2  A    between atoms: C_5  and  C_2 
REMARK    3  A    between atoms: C_4  and  C_3 
REMARK    4  A    between atoms: N_6  and  C_3 
ROOT
ATOM      1  C   UNL d   1      58.689   0.060  29.882  0.00  0.00     0.170 C 
ENDROOT
BRANCH   1   2
ATOM      2  N   UNL d   1      58.255   0.242  30.570  0.00  0.00    -0.191 NA
ATOM      3  C   UNL d   1      57.758  -0.371  30.923  0.00  0.00     0.281 C 
ATOM      4  O   UNL d   1      57.704  -1.124  30.596  0.00  0.00    -0.265 OA
BRANCH   3   5
ATOM      5  C   UNL d   1      57.319  -0.209  31.608  0.00  0.00     0.069 A 
ATOM      6  C   UNL d   1      56.838  -0.800  31.911  0.00  0.00     0.062 A 
ATOM      7 CL   UNL d   1      56.723  -1.495  31.660  0.00  0.00    -0.082 Cl
ATOM      8  C   UNL d   1      56.372  -0.661  32.618  0.00  0.00     0.012 A 
ATOM      9  C   UNL d   1      56.412   0.067  32.990  0.00  0.00     0.001 A 
ATOM     10  C   UNL d   1      56.907   0.670  32.676  0.00  0.00     0.000 A 
ATOM     11  C   UNL d   1      57.360   0.526  31.982  0.00  0.00     0.006 A 
ENDBRANCH   3   5
ENDBRANCH   1   2
BRANCH   1  12
ATOM     12  C   UNL d   1      58.286   0.032  29.151  0.00  0.00     0.249 C 
ATOM     13 CL   UNL d   1      57.890   0.037  28.455  0.00  0.00    -0.075 Cl
ATOM     14 CL   UNL d   1      58.303  -0.712  28.651  0.00  0.00    -0.075 Cl
ATOM     15 CL   UNL d   1      57.916   0.682  28.959  0.00  0.00    -0.075 Cl
ENDBRANCH   1  12
BRANCH   1  16
ATOM     16  N   UNL d   1      59.492  -0.089  29.917  0.00  0.00    -0.286 N 
ATOM     17  C   UNL d   1      59.789  -0.763  29.601  0.00  0.00     0.108 A 
ATOM     18  C   UNL d   1      60.598  -0.913  29.636  0.00  0.00     0.142 A 
ATOM     19  O   UNL d   1      61.114  -0.408  29.977  0.00  0.00    -0.300 OA
ATOM     20  C   UNL d   1      60.808   0.299  30.308  0.00  0.00     0.142 A 
ATOM     21  C   UNL d   1      59.999   0.449  30.274  0.00  0.00     0.108 A 
ENDBRANCH   1  16
TORSDOF 4
ENDMDL
MODEL 3
REMARK VINA RESULT:      -2.4      1.110      3.513
REMARK  4 active torsions:
REMARK  status: ('A' for Active; 'I' for Inactive)
REMARK       I    between atoms: C_2  and  N_1 
REMARK    1  A    between atoms: C_3  and  N_1 
REMARK    2  A    between atoms: C_5  and  C_2 
REMARK    3  A    between atoms: C_4  and  C_3 
REMARK    4  A    between atoms: N_6  and  C_3 
ROOT
ATOM      1  C   UNL d   1      58.480  -0.449  29.601  0.00  0.00     0.170 C 
ENDROOT
BRANCH   1   2
ATOM      2  N   UNL d   1      58.562  -1.252  29.396  0.00  0.00    -0.191 NA
ATOM      3  C   UNL d   1      59.356  -1.594  29.358  0.00  0.00     0.281 C 
ATOM      4  O   UNL d   1      60.026  -1.144  29.519  0.00  0.00    -0.265 OA
BRANCH   3   5
ATOM      5  C   UNL d   1      59.458  -2.392  29.156  0.00  0.00     0.069 A 
ATOM      6  C   UNL d   1      60.219  -2.697  29.149  0.00  0.00     0.062 A 
ATOM      7 CL   UNL d   1      60.868  -2.360  29.302  0.00  0.00    -0.082 Cl
ATOM      8  C   UNL d   1      60.354  -3.519  28.943  0.00  0.00     0.012 A 
ATOM      9  C   UNL d   1      59.717  -3.997  28.754  0.00  0.00     0.001 A 
ATOM     10  C   UNL d   1      58.939  -3.680  28.763  0.00  0.00     0.000 A 
ATOM     11  C   UNL d   1      58.815  -2.873  28.965  0.00  0.00     0.006 A 
ENDBRANCH   3   5
ENDBRANCH   1   2
BRANCH   1  12
ATOM     12  C   UNL d   1      58.652   0.132  29.025  0.00  0.00     0.249 C 
ATOM     13 CL   UNL d   1      58.787   0.678  28.456  0.00  0.00    -0.075 Cl
ATOM     14 CL   UNL d   1      59.390   0.635  29.093  0.00  0.00    -0.075 Cl
ATOM     15 CL   UNL d   1      58.133   0.186  28.455  0.00  0.00    -0.075 Cl
ENDBRANCH   1  12
BRANCH   1  16
ATOM     16  N   UNL d   1      58.238  -0.227  30.349  0.00  0.00    -0.286 N 
ATOM     17  C   UNL d   1      57.615  -0.595  30.694  0.00  0.00     0.108 A 
ATOM     18  C   UNL d   1      57.370  -0.372  31.449  0.00  0.00     0.142 A 
ATOM     19  O   UNL d   1      57.732   0.207  31.863  0.00  0.00    -0.300 OA
ATOM     20  C   UNL d   1      58.384   0.595  31.507  0.00  0.00     0.142 A 
ATOM     21  C   UNL d   1      58.629   0.371  30.753  0.00  0.00     0.108 A 
ENDBRANCH   1  16
TORSDOF 4
ENDMDL
