MODEL 1
REMARK VINA RESULT:      23.9      0.000      0.000
REMARK  3 active torsions:
REMARK  status: ('A' for Active; 'I' for Inactive)
REMARK    1  A    between atoms: C_7  and  C_2 
REMARK    2  A    between atoms: N_5  and  C_8 
REMARK    3  A    between atoms: C_9  and  C_7 
ROOT
ATOM      1  C   UNL d   1      60.428  49.461  51.021  0.00  0.00     0.127 A 
ATOM      2  C   UNL d   1      59.616  49.625  51.064  0.00  0.00     0.023 A 
ATOM      3  C   UNL d   1      59.254  49.708  51.797  0.00  0.00     0.002 A 
ATOM      4  C   UNL d   1      60.867  49.382  51.705  0.00  0.00     0.024 A 
ATOM      5  C   UNL d   1      59.695  49.628  52.490  0.00  0.00     0.000 A 
ATOM      6  C   UNL d   1      60.505  49.464  52.439  0.00  0.00     0.002 A 
ENDROOT
BRANCH   2   7
ATOM      7  C   UNL d   1      59.178  49.704  50.373  0.00  0.00     0.013 C 
BRANCH   7   8
ATOM      8  C   UNL d   1      58.357  49.621  50.393  0.00  0.00     0.092 A 
ATOM      9  C   UNL d   1      57.861  49.530  49.739  0.00  0.00     0.288 A 
ATOM     10  N   UNL d   1      57.086  49.467  50.021  0.00  0.00    -0.163 NA
ATOM     11  O   UNL d   1      58.099  49.507  48.951  0.00  0.00    -0.265 OA
ATOM     12  C   UNL d   1      57.101  49.518  50.839  0.00  0.00     0.313 A 
ATOM     13  S   UNL d   1      57.885  49.613  51.073  0.00  0.00    -0.021 SA
ATOM     14  O   UNL d   1      56.448  49.481  51.341  0.00  0.00    -0.258 OA
ENDBRANCH   7   8
ENDBRANCH   2   7
BRANCH   1  15
ATOM     15  N   UNL d   1      60.791  49.379  50.282  0.00  0.00    -0.114 N 
ATOM     16  O   UNL d   1      60.445  49.705  49.607  0.00  0.00    -0.532 OA
ATOM     17  O   UNL d   1      61.507  48.965  50.220  0.00  0.00    -0.532 OA
ENDBRANCH   1  15
TORSDOF 3
ENDMDL
