MODEL 1
REMARK VINA RESULT:       7.0      0.000      0.000
REMARK  9 active torsions:
REMARK  status: ('A' for Active; 'I' for Inactive)
REMARK    1  A    between atoms: N_2  and  S_1 
REMARK    2  A    between atoms: C_9  and  S_1 
REMARK    3  A    between atoms: C_4  and  N_2 
REMARK    4  A    between atoms: O_24  and  C_6 
REMARK    5  A    between atoms: O_26  and  C_7 
REMARK       I    between atoms: C_12  and  N_15 
REMARK    6  A    between atoms: C_22  and  C_12 
REMARK    7  A    between atoms: C_14  and  O_16 
REMARK    8  A    between atoms: N_15  and  C_23 
REMARK    9  A    between atoms: O_16  and  C_22 
ROOT
ATOM      1  C   UNL d   1     -41.525-122.295 -52.734  0.00  0.00     0.105 A 
ATOM      2  C   UNL d   1     -41.798-121.979 -52.029  0.00  0.00     0.015 A 
ATOM      3  C   UNL d   1     -41.183-123.053 -52.746  0.00  0.00     0.015 A 
ATOM      4  C   UNL d   1     -41.400-123.156 -51.343  0.00  0.00     0.085 A 
ATOM      5  C   UNL d   1     -41.746-122.392 -51.316  0.00  0.00     0.020 A 
ATOM      6  C   UNL d   1     -41.128-123.471 -52.042  0.00  0.00     0.020 A 
ENDROOT
BRANCH   1   7
ATOM      7  S   UNL d   1     -41.580-121.876 -53.438  0.00  0.00     0.287 S 
ATOM      8  O   UNL d   1     -42.053-121.282 -53.046  0.00  0.00    -0.198 OA
ATOM      9  O   UNL d   1     -41.123-122.442 -53.838  0.00  0.00    -0.198 OA
BRANCH   7  10
ATOM     10  N   UNL d   1     -41.651-121.431 -54.146  0.00  0.00    -0.139 NA
BRANCH  10  11
ATOM     11  C   UNL d   1     -42.062-121.713 -54.792  0.00  0.00     0.182 A 
ATOM     12  N   UNL d   1     -42.385-122.446 -54.786  0.00  0.00    -0.185 NA
ATOM     13  C   UNL d   1     -42.809-122.747 -55.442  0.00  0.00     0.274 A 
ATOM     14  N   UNL d   1     -42.897-122.285 -56.104  0.00  0.00    -0.181 NA
ATOM     15  C   UNL d   1     -42.579-121.539 -56.133  0.00  0.00     0.185 A 
ATOM     16  C   UNL d   1     -42.144-121.242 -55.450  0.00  0.00     0.084 A 
BRANCH  13  17
ATOM     17  O   UNL d   1     -43.146-123.516 -55.431  0.00  0.00    -0.297 OA
ATOM     18  C   UNL d   1     -43.850-123.674 -55.829  0.00  0.00     0.185 C 
ENDBRANCH  13  17
BRANCH  15  19
ATOM     19  O   UNL d   1     -42.687-121.087 -56.830  0.00  0.00    -0.312 OA
ATOM     20  C   UNL d   1     -42.094-121.118 -57.419  0.00  0.00     0.183 C 
ENDBRANCH  15  19
ENDBRANCH  10  11
ENDBRANCH   7  10
ENDBRANCH   1   7
BRANCH   4  21
ATOM     21  N   UNL d   1     -41.331-123.601 -50.646  0.00  0.00    -0.206 NA
ATOM     22  C   UNL d   1     -41.453-123.203 -49.915  0.00  0.00     0.304 C 
ATOM     23  O   UNL d   1     -41.627-122.433 -49.901  0.00  0.00    -0.263 OA
BRANCH  22  24
ATOM     24  C   UNL d   1     -41.385-123.646 -49.222  0.00  0.00     0.185 C 
BRANCH  24  25
ATOM     25  O   UNL d   1     -41.449-123.286 -48.486  0.00  0.00    -0.300 OA
BRANCH  25  26
ATOM     26  C   UNL d   1     -42.146-123.416 -48.037  0.00  0.00     0.100 A 
ATOM     27  C   UNL d   1     -42.174-123.311 -47.222  0.00  0.00     0.023 A 
ATOM     28  C   UNL d   1     -42.858-123.441 -46.797  0.00  0.00     0.002 A 
ATOM     29  C   UNL d   1     -41.481-123.062 -46.793  0.00  0.00     0.002 C 
ATOM     30  C   UNL d   1     -43.526-123.678 -47.180  0.00  0.00     0.000 A 
ATOM     31  C   UNL d   1     -43.536-123.794 -48.006  0.00  0.00     0.002 A 
ATOM     32  C   UNL d   1     -44.236-123.815 -46.762  0.00  0.00     0.000 C 
ATOM     33  C   UNL d   1     -42.852-123.664 -48.430  0.00  0.00     0.025 A 
ENDBRANCH  25  26
ENDBRANCH  24  25
ENDBRANCH  22  24
ENDBRANCH   4  21
TORSDOF 9
ENDMDL
