MODEL 1
REMARK VINA RESULT:      40.6      0.000      0.000
REMARK  3 active torsions:
REMARK  status: ('A' for Active; 'I' for Inactive)
REMARK    1  A    between atoms: C_13  and  C_2 
REMARK    2  A    between atoms: C_10  and  C_4 
REMARK    3  A    between atoms: N_7  and  C_10 
ROOT
ATOM      1  N   UNL d   1     -56.168-102.342 -40.002  0.00  0.00    -0.121 NA
ATOM      2  C   UNL d   1     -55.526-102.559 -39.538  0.00  0.00     0.204 A 
ATOM      3  O   UNL d   1     -54.901-102.748 -40.039  0.00  0.00    -0.267 OA
ATOM      4  C   UNL d   1     -55.157-102.648 -40.821  0.00  0.00     0.222 A 
ATOM      5  N   UNL d   1     -55.945-102.396 -40.795  0.00  0.00    -0.119 NA
ENDROOT
BRANCH   4   6
ATOM      6  C   UNL d   1     -54.711-102.775 -41.503  0.00  0.00     0.127 C 
BRANCH   6   7
ATOM      7  N   UNL d   1     -54.788-102.266 -42.146  0.00  0.00    -0.300 N 
ATOM      8  C   UNL d   1     -54.753-102.571 -42.910  0.00  0.00     0.081 A 
ATOM      9  C   UNL d   1     -54.828-102.071 -43.553  0.00  0.00     0.053 A 
ATOM     10  C   UNL d   1     -54.940-101.261 -43.437  0.00  0.00     0.239 A 
ATOM     11  C   UNL d   1     -54.975-100.955 -42.665  0.00  0.00     0.053 A 
ATOM     12  O   UNL d   1     -55.050-100.457 -43.266  0.00  0.00    -0.298 OA
ATOM     13  O   UNL d   1     -54.911-101.518 -44.219  0.00  0.00    -0.298 OA
ATOM     14  C   UNL d   1     -54.898-101.465 -42.021  0.00  0.00     0.081 A 
ATOM     15  C   UNL d   1     -55.108-100.087 -44.001  0.00  0.00     0.146 A 
ATOM     16  C   UNL d   1     -55.010-100.832 -44.664  0.00  0.00     0.146 A 
ENDBRANCH   6   7
ENDBRANCH   4   6
BRANCH   2  17
ATOM     17  C   UNL d   1     -55.512-102.582 -38.712  0.00  0.00     0.043 A 
ATOM     18  C   UNL d   1     -54.798-102.461 -38.309  0.00  0.00     0.004 A 
ATOM     19  C   UNL d   1     -54.777-102.483 -37.493  0.00  0.00     0.000 A 
ATOM     20  C   UNL d   1     -55.471-102.628 -37.064  0.00  0.00     0.000 A 
ATOM     21  C   UNL d   1     -56.184-102.749 -37.467  0.00  0.00     0.000 A 
ATOM     22  C   UNL d   1     -56.201-102.726 -38.285  0.00  0.00     0.004 A 
ENDBRANCH   2  17
TORSDOF 3
ENDMDL
