MODEL 1
REMARK VINA RESULT:       3.8      0.000      0.000
REMARK  5 active torsions:
REMARK  status: ('A' for Active; 'I' for Inactive)
REMARK    1  A    between atoms: C_2  and  C_1 
REMARK    2  A    between atoms: C_4  and  C_1 
REMARK       I    between atoms: N_3  and  C_2 
REMARK    3  A    between atoms: C_5  and  N_3 
REMARK    4  A    between atoms: C_11  and  C_5 
REMARK    5  A    between atoms: C_12  and  C_5 
ROOT
ATOM      1  C   UNL d   1      56.898  -0.158  31.398  0.00  0.00     0.315 C 
ATOM      2  N   UNL d   1      57.553  -0.379  30.946  0.00  0.00    -0.367 NA
ATOM      3  O   UNL d   1      56.344   0.372  31.094  0.00  0.00    -0.255 OA
ENDROOT
BRANCH   2   4
ATOM      4  C   UNL d   1      58.400  -0.661  30.356  0.00  0.00     0.135 C 
BRANCH   4   5
ATOM      5  C   UNL d   1      59.021  -0.252  30.381  0.00  0.00     0.030 A 
ATOM      6  C   UNL d   1      59.423  -0.166  31.069  0.00  0.00     0.003 A 
ATOM      7  C   UNL d   1      60.117   0.285  31.117  0.00  0.00     0.000 A 
ATOM      8  C   UNL d   1      60.398   0.664  30.402  0.00  0.00     0.000 A 
ATOM      9  C   UNL d   1      59.996   0.578  29.713  0.00  0.00     0.000 A 
ATOM     10  C   UNL d   1      59.279   0.106  29.684  0.00  0.00     0.003 A 
ENDBRANCH   4   5
BRANCH   4  11
ATOM     11  C   UNL d   1      58.381  -1.255  29.923  0.00  0.00     0.030 A 
ATOM     12  C   UNL d   1      58.463  -1.981  30.237  0.00  0.00     0.003 A 
ATOM     13  C   UNL d   1      58.444  -2.659  29.762  0.00  0.00     0.000 A 
ATOM     14  C   UNL d   1      58.337  -2.538  28.957  0.00  0.00     0.000 A 
ATOM     15  C   UNL d   1      58.256  -1.807  28.646  0.00  0.00     0.000 A 
ATOM     16  C   UNL d   1      58.275  -1.133  29.122  0.00  0.00     0.003 A 
ENDBRANCH   4  11
ENDBRANCH   2   4
BRANCH   1  17
ATOM     17  C   UNL d   1      56.790  -0.467  32.161  0.00  0.00     0.150 A 
ATOM     18  C   UNL d   1      56.684  -0.770  32.914  0.00  0.00     0.019 A 
ATOM     19  C   UNL d   1      56.297  -1.502  33.019  0.00  0.00     0.119 A 
ATOM     20  O   UNL d   1      56.021  -1.919  32.373  0.00  0.00    -0.304 OA
ATOM     21  C   UNL d   1      56.127  -1.614  31.610  0.00  0.00     0.119 A 
ATOM     22  C   UNL d   1      56.512  -0.887  31.502  0.00  0.00     0.019 A 
BRANCH  17  23
ATOM     23  C   UNL d   1      57.069  -0.043  32.818  0.00  0.00     0.024 A 
ATOM     24  S   UNL d   1      56.610   0.308  33.418  0.00  0.00    -0.090 SA
ATOM     25  C   UNL d   1      57.112   0.674  33.964  0.00  0.00     0.035 A 
ATOM     26  C   UNL d   1      57.889   0.561  33.719  0.00  0.00     0.007 A 
ATOM     27  C   UNL d   1      57.866   0.117  33.009  0.00  0.00     0.004 A 
ENDBRANCH  17  23
ENDBRANCH   1  17
TORSDOF 5
ENDMDL
MODEL 2
REMARK VINA RESULT:       3.9      0.238      1.975
REMARK  5 active torsions:
REMARK  status: ('A' for Active; 'I' for Inactive)
REMARK    1  A    between atoms: C_2  and  C_1 
REMARK    2  A    between atoms: C_4  and  C_1 
REMARK       I    between atoms: N_3  and  C_2 
REMARK    3  A    between atoms: C_5  and  N_3 
REMARK    4  A    between atoms: C_11  and  C_5 
REMARK    5  A    between atoms: C_12  and  C_5 
ROOT
ATOM      1  C   UNL d   1      56.900  -0.143  31.418  0.00  0.00     0.315 C 
ATOM      2  N   UNL d   1      57.589  -0.305  30.990  0.00  0.00    -0.367 NA
ATOM      3  O   UNL d   1      56.321   0.351  31.099  0.00  0.00    -0.255 OA
ENDROOT
BRANCH   2   4
ATOM      4  C   UNL d   1      58.478  -0.511  30.432  0.00  0.00     0.135 C 
BRANCH   4   5
ATOM      5  C   UNL d   1      58.471  -1.037  29.906  0.00  0.00     0.030 A 
ATOM      6  C   UNL d   1      58.500  -0.837  29.131  0.00  0.00     0.003 A 
ATOM      7  C   UNL d   1      58.494  -1.408  28.530  0.00  0.00     0.000 A 
ATOM      8  C   UNL d   1      58.454  -2.232  28.762  0.00  0.00     0.000 A 
ATOM      9  C   UNL d   1      58.425  -2.433  29.539  0.00  0.00     0.000 A 
ATOM     10  C   UNL d   1      58.433  -1.826  30.145  0.00  0.00     0.003 A 
ENDBRANCH   4   5
BRANCH   4  11
ATOM     11  C   UNL d   1      59.101  -0.141  30.558  0.00  0.00     0.030 A 
ATOM     12  C   UNL d   1      59.432  -0.151  31.281  0.00  0.00     0.003 A 
ATOM     13  C   UNL d   1      60.133   0.261  31.438  0.00  0.00     0.000 A 
ATOM     14  C   UNL d   1      60.461   0.675  30.810  0.00  0.00     0.000 A 
ATOM     15  C   UNL d   1      60.125   0.681  30.085  0.00  0.00     0.000 A 
ATOM     16  C   UNL d   1      59.427   0.270  29.932  0.00  0.00     0.003 A 
ENDBRANCH   4  11
ENDBRANCH   2   4
BRANCH   1  17
ATOM     17  C   UNL d   1      56.784  -0.474  32.170  0.00  0.00     0.150 A 
ATOM     18  C   UNL d   1      56.670  -0.800  32.911  0.00  0.00     0.019 A 
ATOM     19  C   UNL d   1      56.336  -1.561  32.987  0.00  0.00     0.119 A 
ATOM     20  O   UNL d   1      56.122  -1.985  32.322  0.00  0.00    -0.304 OA
ATOM     21  C   UNL d   1      56.236  -1.658  31.570  0.00  0.00     0.119 A 
ATOM     22  C   UNL d   1      56.568  -0.901  31.492  0.00  0.00     0.019 A 
BRANCH  17  23
ATOM     23  C   UNL d   1      57.002  -0.043  32.846  0.00  0.00     0.024 A 
ATOM     24  S   UNL d   1      56.489   0.294  33.409  0.00  0.00    -0.090 SA
ATOM     25  C   UNL d   1      56.938   0.673  33.991  0.00  0.00     0.035 A 
ATOM     26  C   UNL d   1      57.735   0.581  33.804  0.00  0.00     0.007 A 
ATOM     27  C   UNL d   1      57.777   0.138  33.095  0.00  0.00     0.004 A 
ENDBRANCH  17  23
ENDBRANCH   1  17
TORSDOF 5
ENDMDL
MODEL 3
REMARK VINA RESULT:       4.6      2.272      4.306
REMARK  5 active torsions:
REMARK  status: ('A' for Active; 'I' for Inactive)
REMARK    1  A    between atoms: C_2  and  C_1 
REMARK    2  A    between atoms: C_4  and  C_1 
REMARK       I    between atoms: N_3  and  C_2 
REMARK    3  A    between atoms: C_5  and  N_3 
REMARK    4  A    between atoms: C_11  and  C_5 
REMARK    5  A    between atoms: C_12  and  C_5 
ROOT
ATOM      1  C   UNL d   1      59.286  -2.570  30.212  0.00  0.00     0.315 C 
ATOM      2  N   UNL d   1      59.034  -1.783  30.169  0.00  0.00    -0.367 NA
ATOM      3  O   UNL d   1      59.336  -2.949  30.942  0.00  0.00    -0.255 OA
ENDROOT
BRANCH   2   4
ATOM      4  C   UNL d   1      58.707  -0.766  30.121  0.00  0.00     0.135 C 
BRANCH   4   5
ATOM      5  C   UNL d   1      58.224  -0.508  30.624  0.00  0.00     0.030 A 
ATOM      6  C   UNL d   1      58.428   0.092  31.114  0.00  0.00     0.003 A 
ATOM      7  C   UNL d   1      57.903   0.393  31.680  0.00  0.00     0.000 A 
ATOM      8  C   UNL d   1      57.124   0.041  31.731  0.00  0.00     0.000 A 
ATOM      9  C   UNL d   1      56.919  -0.561  31.240  0.00  0.00     0.000 A 
ATOM     10  C   UNL d   1      57.477  -0.858  30.660  0.00  0.00     0.003 A 
ENDBRANCH   4   5
BRANCH   4  11
ATOM     11  C   UNL d   1      58.953  -0.311  29.597  0.00  0.00     0.030 A 
ATOM     12  C   UNL d   1      58.451  -0.024  29.051  0.00  0.00     0.003 A 
ATOM     13  C   UNL d   1      58.713   0.488  28.455  0.00  0.00     0.000 A 
ATOM     14  C   UNL d   1      59.511   0.679  28.463  0.00  0.00     0.000 A 
ATOM     15  C   UNL d   1      60.011   0.388  29.013  0.00  0.00     0.000 A 
ATOM     16  C   UNL d   1      59.747  -0.122  29.605  0.00  0.00     0.003 A 
ENDBRANCH   4  11
ENDBRANCH   2   4
BRANCH   1  17
ATOM     17  C   UNL d   1      59.491  -2.983  29.522  0.00  0.00     0.150 A 
ATOM     18  C   UNL d   1      59.692  -3.391  28.842  0.00  0.00     0.019 A 
ATOM     19  C   UNL d   1      60.481  -3.383  28.568  0.00  0.00     0.119 A 
ATOM     20  O   UNL d   1      61.055  -2.969  28.975  0.00  0.00    -0.304 OA
ATOM     21  C   UNL d   1      60.854  -2.555  29.663  0.00  0.00     0.119 A 
ATOM     22  C   UNL d   1      60.071  -2.561  29.939  0.00  0.00     0.019 A 
BRANCH  17  23
ATOM     23  C   UNL d   1      58.908  -3.405  29.108  0.00  0.00     0.024 A 
ATOM     24  S   UNL d   1      58.955  -4.193  28.843  0.00  0.00    -0.090 SA
ATOM     25  C   UNL d   1      58.251  -4.391  28.457  0.00  0.00     0.035 A 
ATOM     26  C   UNL d   1      57.753  -3.736  28.471  0.00  0.00     0.007 A 
ATOM     27  C   UNL d   1      58.158  -3.123  28.875  0.00  0.00     0.004 A 
ENDBRANCH  17  23
ENDBRANCH   1  17
TORSDOF 5
ENDMDL
MODEL 4
REMARK VINA RESULT:       6.8      1.067      2.492
REMARK  5 active torsions:
REMARK  status: ('A' for Active; 'I' for Inactive)
REMARK    1  A    between atoms: C_2  and  C_1 
REMARK    2  A    between atoms: C_4  and  C_1 
REMARK       I    between atoms: N_3  and  C_2 
REMARK    3  A    between atoms: C_5  and  N_3 
REMARK    4  A    between atoms: C_11  and  C_5 
REMARK    5  A    between atoms: C_12  and  C_5 
ROOT
ATOM      1  C   UNL d   1      57.512   0.144  30.784  0.00  0.00     0.315 C 
ATOM      2  N   UNL d   1      58.073  -0.208  30.289  0.00  0.00    -0.367 NA
ATOM      3  O   UNL d   1      56.962   0.675  30.475  0.00  0.00    -0.255 OA
ENDROOT
BRANCH   2   4
ATOM      4  C   UNL d   1      58.796  -0.661  29.643  0.00  0.00     0.135 C 
BRANCH   4   5
ATOM      5  C   UNL d   1      58.703  -1.364  29.419  0.00  0.00     0.030 A 
ATOM      6  C   UNL d   1      59.037  -1.968  29.826  0.00  0.00     0.003 A 
ATOM      7  C   UNL d   1      58.945  -2.758  29.592  0.00  0.00     0.000 A 
ATOM      8  C   UNL d   1      58.476  -2.916  28.893  0.00  0.00     0.000 A 
ATOM      9  C   UNL d   1      58.141  -2.311  28.485  0.00  0.00     0.000 A 
ATOM     10  C   UNL d   1      58.248  -1.500  28.744  0.00  0.00     0.003 A 
ENDBRANCH   4   5
BRANCH   4  11
ATOM     11  C   UNL d   1      59.388  -0.289  29.414  0.00  0.00     0.030 A 
ATOM     12  C   UNL d   1      60.096  -0.421  29.750  0.00  0.00     0.003 A 
ATOM     13  C   UNL d   1      60.772  -0.010  29.502  0.00  0.00     0.000 A 
ATOM     14  C   UNL d   1      60.666   0.535  28.898  0.00  0.00     0.000 A 
ATOM     15  C   UNL d   1      59.952   0.664  28.563  0.00  0.00     0.000 A 
ATOM     16  C   UNL d   1      59.281   0.253  28.812  0.00  0.00     0.003 A 
ENDBRANCH   4  11
ENDBRANCH   2   4
BRANCH   1  17
ATOM     17  C   UNL d   1      57.498  -0.032  31.595  0.00  0.00     0.150 A 
ATOM     18  C   UNL d   1      57.483  -0.206  32.394  0.00  0.00     0.019 A 
ATOM     19  C   UNL d   1      58.095   0.064  32.893  0.00  0.00     0.119 A 
ATOM     20  O   UNL d   1      58.712   0.504  32.587  0.00  0.00    -0.304 OA
ATOM     21  C   UNL d   1      58.729   0.682  31.779  0.00  0.00     0.119 A 
ATOM     22  C   UNL d   1      58.122   0.414  31.280  0.00  0.00     0.019 A 
BRANCH  17  23
ATOM     23  C   UNL d   1      56.871  -0.479  31.906  0.00  0.00     0.024 A 
ATOM     24  S   UNL d   1      56.266  -0.207  32.409  0.00  0.00    -0.090 SA
ATOM     25  C   UNL d   1      55.757  -0.835  32.585  0.00  0.00     0.035 A 
ATOM     26  C   UNL d   1      56.032  -1.508  32.199  0.00  0.00     0.007 A 
ATOM     27  C   UNL d   1      56.723  -1.291  31.777  0.00  0.00     0.004 A 
ENDBRANCH  17  23
ENDBRANCH   1  17
TORSDOF 5
ENDMDL
