MODEL 1
REMARK VINA RESULT:      41.8      0.000      0.000
REMARK  3 active torsions:
REMARK  status: ('A' for Active; 'I' for Inactive)
REMARK    1  A    between atoms: C_4  and  C_1 
REMARK    2  A    between atoms: C_9  and  N_2 
REMARK    3  A    between atoms: C_8  and  N_3 
ROOT
ATOM      1  C   UNL d   1      14.092  13.021  -2.448  0.00  0.00     0.139 A 
ATOM      2  N   UNL d   1      13.688  12.456  -2.892  0.00  0.00    -0.290 N 
ATOM      3  N   UNL d   1      14.263  12.700  -1.708  0.00  0.00    -0.290 N 
ATOM      4  C   UNL d   1      13.609  11.790  -2.433  0.00  0.00     0.101 A 
ATOM      5  C   UNL d   1      13.958  11.935  -1.710  0.00  0.00     0.101 A 
ENDROOT
BRANCH   2   6
ATOM      6  C   UNL d   1      13.380  12.469  -3.671  0.00  0.00     0.066 A 
ATOM      7  C   UNL d   1      13.274  11.780  -4.093  0.00  0.00     0.018 A 
ATOM      8  C   UNL d   1      12.974  11.798  -4.851  0.00  0.00     0.002 A 
ATOM      9  C   UNL d   1      12.774  12.522  -5.194  0.00  0.00     0.000 A 
ATOM     10  C   UNL d   1      12.880  13.213  -4.771  0.00  0.00     0.002 A 
ATOM     11  C   UNL d   1      13.183  13.196  -4.008  0.00  0.00     0.018 A 
ENDBRANCH   2   6
BRANCH   1  12
ATOM     12  C   UNL d   1      14.282  13.779  -2.727  0.00  0.00     0.063 A 
ATOM     13  S   UNL d   1      13.588  14.269  -2.652  0.00  0.00    -0.083 SA
ATOM     14  C   UNL d   1      13.791  15.020  -2.933  0.00  0.00     0.035 A 
ATOM     15  C   UNL d   1      14.571  15.014  -3.175  0.00  0.00     0.008 A 
ATOM     16  C   UNL d   1      14.886  14.246  -3.051  0.00  0.00     0.010 A 
ENDBRANCH   1  12
BRANCH   3  17
ATOM     17  C   UNL d   1      14.664  13.139  -1.146  0.00  0.00     0.066 A 
ATOM     18  C   UNL d   1      14.259  13.638  -0.632  0.00  0.00     0.018 A 
ATOM     19  C   UNL d   1      14.684  14.075  -0.070  0.00  0.00     0.002 A 
ATOM     20  C   UNL d   1      15.492  14.018  -0.018  0.00  0.00     0.000 A 
ATOM     21  C   UNL d   1      15.918  13.517  -0.531  0.00  0.00     0.002 A 
ATOM     22  C   UNL d   1      15.501  13.078  -1.094  0.00  0.00     0.018 A 
ENDBRANCH   3  17
TORSDOF 3
ENDMDL
