MODEL 1
REMARK VINA RESULT:      75.0      0.000      0.000
REMARK  3 active torsions:
REMARK  status: ('A' for Active; 'I' for Inactive)
REMARK    1  A    between atoms: N_5  and  S_1 
REMARK    2  A    between atoms: C_6  and  S_1 
REMARK    3  A    between atoms: C_2  and  C_9 
ROOT
ATOM      1  C   UNL d   1      58.885  49.289  50.175  0.00  0.00     0.104 A 
ATOM      2  C   UNL d   1      60.255  49.353  50.568  0.00  0.00     0.025 A 
ATOM      3  C   UNL d   1      59.460  49.348  50.767  0.00  0.00     0.015 A 
ATOM      4  C   UNL d   1      59.116  49.233  49.379  0.00  0.00     0.013 A 
ATOM      5  C   UNL d   1      60.486  49.297  49.773  0.00  0.00     0.002 A 
ATOM      6  C   UNL d   1      59.913  49.237  49.176  0.00  0.00     0.001 A 
ENDROOT
BRANCH   2   7
ATOM      7  C   UNL d   1      60.830  49.412  51.161  0.00  0.00     0.111 A 
ATOM      8  N   UNL d   1      61.635  49.332  51.051  0.00  0.00    -0.239 NA
ATOM      9  C   UNL d   1      61.998  49.432  51.782  0.00  0.00     0.088 A 
ATOM     10  C   UNL d   1      62.782  49.413  52.015  0.00  0.00     0.020 A 
ATOM     11  C   UNL d   1      61.411  49.574  52.344  0.00  0.00     0.049 A 
ATOM     12  C   UNL d   1      62.987  49.534  52.798  0.00  0.00     0.002 A 
ATOM     13  C   UNL d   1      62.399  49.676  53.360  0.00  0.00     0.001 A 
ATOM     14  C   UNL d   1      61.607  49.695  53.125  0.00  0.00     0.008 A 
ATOM     15  S   UNL d   1      60.684  49.562  51.956  0.00  0.00    -0.066 SA
ENDBRANCH   2   7
BRANCH   1  16
ATOM     16  S   UNL d   1      58.086  49.284  50.373  0.00  0.00     0.271 S 
ATOM     17  O   UNL d   1      58.202  49.004  51.110  0.00  0.00    -0.200 OA
ATOM     18  O   UNL d   1      57.979  49.619  49.485  0.00  0.00    -0.200 OA
BRANCH  16  19
ATOM     19  N   UNL d   1      57.331  49.233  50.688  0.00  0.00    -0.229 N 
ATOM     20  C   UNL d   1      57.025  49.681  51.318  0.00  0.00     0.092 A 
ATOM     21  C   UNL d   1      56.244  49.444  51.447  0.00  0.00     0.021 A 
ATOM     22  C   UNL d   1      56.058  48.856  50.907  0.00  0.00     0.021 A 
ATOM     23  C   UNL d   1      56.727  48.725  50.439  0.00  0.00     0.092 A 
ENDBRANCH  16  19
ENDBRANCH   1  16
TORSDOF 3
ENDMDL
