MODEL 1
REMARK VINA RESULT:      -3.0      0.000      0.000
REMARK  3 active torsions:
REMARK  status: ('A' for Active; 'I' for Inactive)
REMARK    1  A    between atoms: C_2  and  C_1 
REMARK       I    between atoms: N_7  and  C_2 
REMARK    2  A    between atoms: C_9  and  N_7 
REMARK    3  A    between atoms: O_16  and  C_10 
ROOT
ATOM      1  C   UNL d   1      32.181  15.942 -24.642  0.00  0.00     0.280 C 
ATOM      2  N   UNL d   1      31.520  15.453 -24.594  0.00  0.00    -0.208 NA
ATOM      3  O   UNL d   1      32.927  15.608 -24.789  0.00  0.00    -0.265 OA
ENDROOT
BRANCH   1   4
ATOM      4  C   UNL d   1      32.105  16.757 -24.546  0.00  0.00     0.065 A 
ATOM      5  C   UNL d   1      32.464  17.213 -23.963  0.00  0.00     0.011 A 
ATOM      6  C   UNL d   1      32.232  17.993 -24.081  0.00  0.00     0.030 A 
ATOM      7  C   UNL d   1      32.971  17.021 -23.338  0.00  0.00     0.001 A 
ATOM      8  C   UNL d   1      32.507  18.589 -23.574  0.00  0.00     0.006 A 
ATOM      9  S   UNL d   1      31.734  18.019 -24.733  0.00  0.00    -0.086 SA
ATOM     10  C   UNL d   1      33.006  18.402 -22.959  0.00  0.00     0.001 A 
ATOM     11  C   UNL d   1      33.241  17.617 -22.838  0.00  0.00     0.000 A 
ATOM     12  C   UNL d   1      31.662  17.246 -25.016  0.00  0.00     0.040 A 
ENDBRANCH   1   4
BRANCH   2  13
ATOM     13  C   UNL d   1      30.777  15.786 -24.447  0.00  0.00     0.085 A 
ATOM     14  C   UNL d   1      30.334  16.084 -25.072  0.00  0.00     0.021 A 
ATOM     15  C   UNL d   1      29.586  16.420 -24.927  0.00  0.00     0.026 A 
ATOM     16  C   UNL d   1      29.288  16.455 -24.159  0.00  0.00     0.094 A 
ATOM     17  C   UNL d   1      29.739  16.153 -23.534  0.00  0.00     0.026 A 
ATOM     18  C   UNL d   1      30.480  15.820 -23.678  0.00  0.00     0.021 A 
BRANCH  16  19
ATOM     19  O   UNL d   1      28.537  16.794 -24.030  0.00  0.00    -0.328 OA
ATOM     20  C   UNL d   1      28.069  16.546 -23.397  0.00  0.00     0.181 C 
ENDBRANCH  16  19
ENDBRANCH   2  13
TORSDOF 3
ENDMDL
MODEL 2
REMARK VINA RESULT:      -2.9      1.246      3.266
REMARK  3 active torsions:
REMARK  status: ('A' for Active; 'I' for Inactive)
REMARK    1  A    between atoms: C_2  and  C_1 
REMARK       I    between atoms: N_7  and  C_2 
REMARK    2  A    between atoms: C_9  and  N_7 
REMARK    3  A    between atoms: O_16  and  C_10 
ROOT
ATOM      1  C   UNL d   1      32.346  16.206 -24.727  0.00  0.00     0.280 C 
ATOM      2  N   UNL d   1      33.037  16.543 -24.431  0.00  0.00    -0.208 NA
ATOM      3  O   UNL d   1      32.375  15.453 -25.075  0.00  0.00    -0.265 OA
ENDROOT
BRANCH   1   4
ATOM      4  C   UNL d   1      31.630  16.611 -24.679  0.00  0.00     0.065 A 
ATOM      5  C   UNL d   1      30.956  16.361 -24.279  0.00  0.00     0.011 A 
ATOM      6  C   UNL d   1      30.380  16.938 -24.381  0.00  0.00     0.030 A 
ATOM      7  C   UNL d   1      30.790  15.683 -23.835  0.00  0.00     0.001 A 
ATOM      8  C   UNL d   1      29.630  16.841 -24.038  0.00  0.00     0.006 A 
ATOM      9  S   UNL d   1      30.694  17.541 -24.840  0.00  0.00    -0.086 SA
ATOM     10  C   UNL d   1      29.466  16.174 -23.601  0.00  0.00     0.001 A 
ATOM     11  C   UNL d   1      30.045  15.592 -23.497  0.00  0.00     0.000 A 
ATOM     12  C   UNL d   1      31.472  17.329 -25.020  0.00  0.00     0.040 A 
ENDBRANCH   1   4
BRANCH   2  13
ATOM     13  C   UNL d   1      33.008  17.294 -24.085  0.00  0.00     0.085 A 
ATOM     14  C   UNL d   1      32.948  17.363 -23.268  0.00  0.00     0.021 A 
ATOM     15  C   UNL d   1      32.918  18.118 -22.916  0.00  0.00     0.026 A 
ATOM     16  C   UNL d   1      32.948  18.796 -23.385  0.00  0.00     0.094 A 
ATOM     17  C   UNL d   1      33.008  18.719 -24.207  0.00  0.00     0.026 A 
ATOM     18  C   UNL d   1      33.038  17.972 -24.555  0.00  0.00     0.021 A 
BRANCH  16  19
ATOM     19  O   UNL d   1      32.917  19.545 -23.019  0.00  0.00    -0.328 OA
ATOM     20  C   UNL d   1      32.974  19.612 -22.198  0.00  0.00     0.181 C 
ENDBRANCH  16  19
ENDBRANCH   2  13
TORSDOF 3
ENDMDL
MODEL 3
REMARK VINA RESULT:      -2.6      1.305      3.346
REMARK  3 active torsions:
REMARK  status: ('A' for Active; 'I' for Inactive)
REMARK    1  A    between atoms: C_2  and  C_1 
REMARK       I    between atoms: N_7  and  C_2 
REMARK    2  A    between atoms: C_9  and  N_7 
REMARK    3  A    between atoms: O_16  and  C_10 
ROOT
ATOM      1  C   UNL d   1      30.461  16.168 -24.826  0.00  0.00     0.280 C 
ATOM      2  N   UNL d   1      31.271  16.203 -24.679  0.00  0.00    -0.208 NA
ATOM      3  O   UNL d   1      30.120  15.453 -25.075  0.00  0.00    -0.265 OA
ENDROOT
BRANCH   1   4
ATOM      4  C   UNL d   1      29.989  16.837 -24.727  0.00  0.00     0.065 A 
ATOM      5  C   UNL d   1      29.319  16.893 -24.254  0.00  0.00     0.011 A 
ATOM      6  C   UNL d   1      29.029  17.659 -24.325  0.00  0.00     0.030 A 
ATOM      7  C   UNL d   1      28.932  16.347 -23.767  0.00  0.00     0.001 A 
ATOM      8  C   UNL d   1      28.349  17.887 -23.908  0.00  0.00     0.006 A 
ATOM      9  S   UNL d   1      29.517  18.074 -24.838  0.00  0.00    -0.086 SA
ATOM     10  C   UNL d   1      27.968  17.350 -23.429  0.00  0.00     0.001 A 
ATOM     11  C   UNL d   1      28.257  16.578 -23.356  0.00  0.00     0.000 A 
ATOM     12  C   UNL d   1      30.111  17.555 -25.083  0.00  0.00     0.040 A 
ENDBRANCH   1   4
BRANCH   2  13
ATOM     13  C   UNL d   1      31.609  16.916 -24.431  0.00  0.00     0.085 A 
ATOM     14  C   UNL d   1      31.859  17.464 -24.989  0.00  0.00     0.021 A 
ATOM     15  C   UNL d   1      32.201  18.183 -24.742  0.00  0.00     0.026 A 
ATOM     16  C   UNL d   1      32.287  18.346 -23.938  0.00  0.00     0.094 A 
ATOM     17  C   UNL d   1      32.033  17.790 -23.381  0.00  0.00     0.026 A 
ATOM     18  C   UNL d   1      31.696  17.079 -23.626  0.00  0.00     0.021 A 
BRANCH  16  19
ATOM     19  O   UNL d   1      32.630  19.070 -23.706  0.00  0.00    -0.328 OA
ATOM     20  C   UNL d   1      32.859  19.193 -22.922  0.00  0.00     0.181 C 
ENDBRANCH  16  19
ENDBRANCH   2  13
TORSDOF 3
ENDMDL
MODEL 4
REMARK VINA RESULT:      -1.5      1.516      2.102
REMARK  3 active torsions:
REMARK  status: ('A' for Active; 'I' for Inactive)
REMARK    1  A    between atoms: C_2  and  C_1 
REMARK       I    between atoms: N_7  and  C_2 
REMARK    2  A    between atoms: C_9  and  N_7 
REMARK    3  A    between atoms: O_16  and  C_10 
ROOT
ATOM      1  C   UNL d   1      30.404  17.832 -24.796  0.00  0.00     0.280 C 
ATOM      2  N   UNL d   1      29.600  17.955 -24.663  0.00  0.00    -0.208 NA
ATOM      3  O   UNL d   1      30.871  18.457 -25.080  0.00  0.00    -0.265 OA
ENDROOT
BRANCH   1   4
ATOM      4  C   UNL d   1      30.744  17.096 -24.649  0.00  0.00     0.065 A 
ATOM      5  C   UNL d   1      31.347  16.938 -24.112  0.00  0.00     0.011 A 
ATOM      6  C   UNL d   1      31.508  16.133 -24.151  0.00  0.00     0.030 A 
ATOM      7  C   UNL d   1      31.771  17.421 -23.590  0.00  0.00     0.001 A 
ATOM      8  C   UNL d   1      32.097  15.803 -23.669  0.00  0.00     0.006 A 
ATOM      9  S   UNL d   1      31.010  15.795 -24.709  0.00  0.00    -0.086 SA
ATOM     10  C   UNL d   1      32.515  16.278 -23.155  0.00  0.00     0.001 A 
ATOM     11  C   UNL d   1      32.354  17.088 -23.113  0.00  0.00     0.000 A 
ATOM     12  C   UNL d   1      30.539  16.402 -25.013  0.00  0.00     0.040 A 
ENDBRANCH   1   4
BRANCH   2  13
ATOM     13  C   UNL d   1      29.135  17.332 -24.380  0.00  0.00     0.085 A 
ATOM     14  C   UNL d   1      28.882  17.335 -23.598  0.00  0.00     0.021 A 
ATOM     15  C   UNL d   1      28.414  16.709 -23.309  0.00  0.00     0.026 A 
ATOM     16  C   UNL d   1      28.203  16.086 -23.807  0.00  0.00     0.094 A 
ATOM     17  C   UNL d   1      28.461  16.088 -24.593  0.00  0.00     0.026 A 
ATOM     18  C   UNL d   1      28.925  16.708 -24.878  0.00  0.00     0.021 A 
BRANCH  16  19
ATOM     19  O   UNL d   1      27.734  15.466 -23.504  0.00  0.00    -0.328 OA
ATOM     20  C   UNL d   1      26.910  15.518 -23.521  0.00  0.00     0.181 C 
ENDBRANCH  16  19
ENDBRANCH   2  13
TORSDOF 3
ENDMDL
