MODEL 1
REMARK VINA RESULT:      -7.5      0.000      0.000
REMARK  2 active torsions:
REMARK  status: ('A' for Active; 'I' for Inactive)
REMARK    1  A    between atoms: CA_3  and  C_1 
REMARK    2  A    between atoms: C_2  and  CA_3 
ROOT
ATOM      1  C   UNL d   1      53.682  32.287  53.699  0.00  0.00     0.026 A 
ATOM      2  C   UNL d   1      53.753  31.466  53.768  0.00  0.00     0.009 A 
ATOM      3  C   UNL d   1      53.220  30.971  53.382  0.00  0.00     0.035 A 
ATOM      4 BR   UNL d   1      53.293  30.155  53.452  0.00  0.00    -0.049 Br
ATOM      5  C   UNL d   1      53.075  32.610  53.243  0.00  0.00     0.002 A 
ATOM      6  C   UNL d   1      52.540  32.112  52.855  0.00  0.00     0.001 A 
ATOM      7  C   UNL d   1      52.613  31.294  52.926  0.00  0.00     0.007 A 
ENDROOT
BRANCH   1   8
ATOM      8  CA  UNL d   1      54.219  32.779  54.088  0.00  0.00     0.167 C 
ATOM      9  N   UNL d   1      54.940  32.955  53.740  0.00  0.00    -0.142 N 
BRANCH   8  10
ATOM     10  C   UNL d   1      54.031  33.094  54.825  0.00  0.00     0.231 C 
ATOM     11  O   UNL d   1      53.617  33.813  54.878  0.00  0.00    -0.643 OA
ATOM     12  OXT UNL d   1      54.252  32.697  55.518  0.00  0.00    -0.643 OA
ENDBRANCH   8  10
ENDBRANCH   1   8
TORSDOF 2
ENDMDL
MODEL 2
REMARK VINA RESULT:      -7.1      1.493      1.769
REMARK  2 active torsions:
REMARK  status: ('A' for Active; 'I' for Inactive)
REMARK    1  A    between atoms: CA_3  and  C_1 
REMARK    2  A    between atoms: C_2  and  CA_3 
ROOT
ATOM      1  C   UNL d   1      53.667  32.816  54.237  0.00  0.00     0.026 A 
ATOM      2  C   UNL d   1      53.031  33.319  54.074  0.00  0.00     0.009 A 
ATOM      3  C   UNL d   1      52.533  33.162  53.437  0.00  0.00     0.035 A 
ATOM      4 BR   UNL d   1      51.901  33.664  53.276  0.00  0.00    -0.049 Br
ATOM      5  C   UNL d   1      53.801  32.156  53.760  0.00  0.00     0.002 A 
ATOM      6  C   UNL d   1      53.301  32.000  53.120  0.00  0.00     0.001 A 
ATOM      7  C   UNL d   1      52.668  32.503  52.960  0.00  0.00     0.007 A 
ENDROOT
BRANCH   1   8
ATOM      8  CA  UNL d   1      54.163  32.977  54.876  0.00  0.00     0.167 C 
ATOM      9  N   UNL d   1      54.073  32.565  55.579  0.00  0.00    -0.142 N 
BRANCH   8  10
ATOM     10  C   UNL d   1      54.750  33.551  54.809  0.00  0.00     0.231 C 
ATOM     11  O   UNL d   1      54.653  34.291  55.175  0.00  0.00    -0.643 OA
ATOM     12  OXT UNL d   1      55.439  33.395  54.377  0.00  0.00    -0.643 OA
ENDBRANCH   8  10
ENDBRANCH   1   8
TORSDOF 2
ENDMDL
MODEL 3
REMARK VINA RESULT:      -7.1      1.955      2.654
REMARK  2 active torsions:
REMARK  status: ('A' for Active; 'I' for Inactive)
REMARK    1  A    between atoms: CA_3  and  C_1 
REMARK    2  A    between atoms: C_2  and  CA_3 
ROOT
ATOM      1  C   UNL d   1      53.906  32.248  53.809  0.00  0.00     0.026 A 
ATOM      2  C   UNL d   1      53.887  32.542  54.582  0.00  0.00     0.009 A 
ATOM      3  C   UNL d   1      54.437  33.106  54.824  0.00  0.00     0.035 A 
ATOM      4 BR   UNL d   1      54.415  33.396  55.593  0.00  0.00    -0.049 Br
ATOM      5  C   UNL d   1      54.477  32.521  53.280  0.00  0.00     0.002 A 
ATOM      6  C   UNL d   1      55.029  33.088  53.524  0.00  0.00     0.001 A 
ATOM      7  C   UNL d   1      55.008  33.379  54.295  0.00  0.00     0.007 A 
ENDROOT
BRANCH   1   8
ATOM      8  CA  UNL d   1      53.354  31.684  53.572  0.00  0.00     0.167 C 
ATOM      9  N   UNL d   1      53.407  30.914  53.850  0.00  0.00    -0.142 N 
BRANCH   8  10
ATOM     10  C   UNL d   1      52.747  31.892  53.054  0.00  0.00     0.231 C 
ATOM     11  O   UNL d   1      52.804  31.700  52.248  0.00  0.00    -0.643 OA
ATOM     12  OXT UNL d   1      52.079  32.292  53.334  0.00  0.00    -0.643 OA
ENDBRANCH   8  10
ENDBRANCH   1   8
TORSDOF 2
ENDMDL
MODEL 4
REMARK VINA RESULT:      -6.9      2.100      2.635
REMARK  2 active torsions:
REMARK  status: ('A' for Active; 'I' for Inactive)
REMARK    1  A    between atoms: CA_3  and  C_1 
REMARK    2  A    between atoms: C_2  and  CA_3 
ROOT
ATOM      1  C   UNL d   1      52.900  33.372  53.691  0.00  0.00     0.026 A 
ATOM      2  C   UNL d   1      53.343  33.546  54.368  0.00  0.00     0.009 A 
ATOM      3  C   UNL d   1      54.035  33.129  54.527  0.00  0.00     0.035 A 
ATOM      4 BR   UNL d   1      54.474  33.303  55.200  0.00  0.00    -0.049 Br
ATOM      5  C   UNL d   1      53.153  32.780  53.175  0.00  0.00     0.002 A 
ATOM      6  C   UNL d   1      53.848  32.361  53.336  0.00  0.00     0.001 A 
ATOM      7  C   UNL d   1      54.287  32.536  54.011  0.00  0.00     0.007 A 
ENDROOT
BRANCH   1   8
ATOM      8  CA  UNL d   1      52.207  33.793  53.536  0.00  0.00     0.167 C 
ATOM      9  N   UNL d   1      51.478  33.458  53.703  0.00  0.00    -0.142 N 
BRANCH   8  10
ATOM     10  C   UNL d   1      52.248  34.550  53.213  0.00  0.00     0.231 C 
ATOM     11  O   UNL d   1      52.203  35.217  53.707  0.00  0.00    -0.643 OA
ATOM     12  OXT UNL d   1      52.332  34.651  52.395  0.00  0.00    -0.643 OA
ENDBRANCH   8  10
ENDBRANCH   1   8
TORSDOF 2
ENDMDL
