MODEL 1
REMARK VINA RESULT:      -5.8      0.000      0.000
REMARK  5 active torsions:
REMARK  status: ('A' for Active; 'I' for Inactive)
REMARK    1  A    between atoms: C_2  and  C_4 
REMARK    2  A    between atoms: C_4  and  C_10 
REMARK    3  A    between atoms: S_8  and  C_6 
REMARK    4  A    between atoms: C_14  and  C_7 
REMARK    5  A    between atoms: C_10  and  S_8 
ROOT
ATOM      1  N   UNL d   1     -41.949-122.457 -50.776  0.00  0.00    -0.148 NA
ATOM      2  N   UNL d   1     -41.733-122.427 -51.571  0.00  0.00    -0.141 NA
ATOM      3  C   UNL d   1     -41.335-123.059 -51.919  0.00  0.00     0.133 A 
ATOM      4  C   UNL d   1     -41.764-123.127 -50.327  0.00  0.00     0.103 A 
ATOM      5  C   UNL d   1     -41.369-123.759 -50.667  0.00  0.00     0.023 A 
ATOM      6  C   UNL d   1     -41.152-123.732 -51.458  0.00  0.00     0.029 A 
ENDROOT
BRANCH   3   7
ATOM      7  S   UNL d   1     -41.123-123.025 -52.706  0.00  0.00    -0.062 SA
BRANCH   7   8
ATOM      8  C   UNL d   1     -41.672-122.788 -53.272  0.00  0.00     0.079 C 
BRANCH   8   9
ATOM      9  C   UNL d   1     -41.567-122.986 -54.060  0.00  0.00     0.208 C 
ATOM     10  O   UNL d   1     -41.125-123.655 -54.255  0.00  0.00    -0.285 OA
BRANCH   9  11
ATOM     11  C   UNL d   1     -41.894-122.529 -54.656  0.00  0.00     0.069 A 
ATOM     12  S   UNL d   1     -41.485-122.210 -55.293  0.00  0.00    -0.083 SA
ATOM     13  C   UNL d   1     -42.021-121.792 -55.757  0.00  0.00     0.035 A 
ATOM     14  C   UNL d   1     -42.762-121.859 -55.397  0.00  0.00     0.008 A 
ATOM     15  C   UNL d   1     -42.681-122.312 -54.721  0.00  0.00     0.010 A 
ENDBRANCH   9  11
ENDBRANCH   8   9
ENDBRANCH   7   8
ENDBRANCH   3   7
BRANCH   4  16
ATOM     16  C   UNL d   1     -41.981-123.157 -49.532  0.00  0.00     0.019 A 
ATOM     17  C   UNL d   1     -42.776-123.277 -49.321  0.00  0.00     0.002 A 
ATOM     18  C   UNL d   1     -42.995-123.307 -48.522  0.00  0.00     0.000 A 
ATOM     19  C   UNL d   1     -42.420-123.217 -47.929  0.00  0.00     0.000 A 
ATOM     20  C   UNL d   1     -41.639-123.100 -48.136  0.00  0.00     0.000 A 
ATOM     21  C   UNL d   1     -41.409-123.068 -48.932  0.00  0.00     0.002 A 
ENDBRANCH   4  16
TORSDOF 5
ENDMDL
MODEL 2
REMARK VINA RESULT:      -5.5      1.634      5.172
REMARK  5 active torsions:
REMARK  status: ('A' for Active; 'I' for Inactive)
REMARK    1  A    between atoms: C_2  and  C_4 
REMARK    2  A    between atoms: C_4  and  C_10 
REMARK    3  A    between atoms: S_8  and  C_6 
REMARK    4  A    between atoms: C_14  and  C_7 
REMARK    5  A    between atoms: C_10  and  S_8 
ROOT
ATOM      1  N   UNL d   1     -42.036-121.828 -52.981  0.00  0.00    -0.148 NA
ATOM      2  N   UNL d   1     -41.893-121.933 -52.176  0.00  0.00    -0.141 NA
ATOM      3  C   UNL d   1     -41.440-122.569 -51.912  0.00  0.00     0.133 A 
ATOM      4  C   UNL d   1     -41.721-122.366 -53.525  0.00  0.00     0.103 A 
ATOM      5  C   UNL d   1     -41.270-123.000 -53.270  0.00  0.00     0.023 A 
ATOM      6  C   UNL d   1     -41.126-123.107 -52.469  0.00  0.00     0.029 A 
ENDROOT
BRANCH   3   7
ATOM      7  S   UNL d   1     -41.301-122.669 -51.114  0.00  0.00    -0.062 SA
BRANCH   7   8
ATOM      8  C   UNL d   1     -41.932-122.788 -50.597  0.00  0.00     0.079 C 
BRANCH   8   9
ATOM      9  C   UNL d   1     -41.802-122.831 -49.790  0.00  0.00     0.208 C 
ATOM     10  O   UNL d   1     -41.123-122.491 -49.468  0.00  0.00    -0.285 OA
BRANCH   9  11
ATOM     11  C   UNL d   1     -42.338-123.208 -49.297  0.00  0.00     0.069 A 
ATOM     12  S   UNL d   1     -42.218-123.380 -48.503  0.00  0.00    -0.083 SA
ATOM     13  C   UNL d   1     -42.892-123.759 -48.220  0.00  0.00     0.035 A 
ATOM     14  C   UNL d   1     -43.424-123.817 -48.849  0.00  0.00     0.008 A 
ATOM     15  C   UNL d   1     -43.081-123.478 -49.510  0.00  0.00     0.010 A 
ENDBRANCH   9  11
ENDBRANCH   8   9
ENDBRANCH   7   8
ENDBRANCH   3   7
BRANCH   4  16
ATOM     16  C   UNL d   1     -41.864-122.260 -54.331  0.00  0.00     0.019 A 
ATOM     17  C   UNL d   1     -41.272-122.441 -54.886  0.00  0.00     0.002 A 
ATOM     18  C   UNL d   1     -41.415-122.335 -55.696  0.00  0.00     0.000 A 
ATOM     19  C   UNL d   1     -42.151-122.048 -55.955  0.00  0.00     0.000 A 
ATOM     20  C   UNL d   1     -42.732-121.870 -55.410  0.00  0.00     0.000 A 
ATOM     21  C   UNL d   1     -42.600-121.972 -54.598  0.00  0.00     0.002 A 
ENDBRANCH   4  16
TORSDOF 5
ENDMDL
