MODEL 1
REMARK VINA RESULT:      -4.4      0.000      0.000
REMARK  10 active torsions:
REMARK  status: ('A' for Active; 'I' for Inactive)
REMARK    1  A    between atoms: P_2  and  C_1 
REMARK    2  A    between atoms: N_3  and  C_1 
REMARK    3  A    between atoms: C_4  and  C_1 
REMARK    4  A    between atoms: O_9  and  P_2 
REMARK    5  A    between atoms: O_10  and  P_2 
REMARK       I    between atoms: C_5  and  N_3 
REMARK    6  A    between atoms: C_8  and  C_5 
REMARK    7  A    between atoms: C_16  and  O_9 
REMARK    8  A    between atoms: C_15  and  O_10 
REMARK    9  A    between atoms: C_18  and  C_15 
REMARK   10  A    between atoms: C_17  and  C_16 
ROOT
ATOM      1  C   UNL d   1     -40.726  14.764  20.561  0.00  0.00     0.186 C 
ENDROOT
BRANCH   1   2
ATOM      2  P   UNL d   1     -40.689  14.124  21.098  0.00  0.00     0.393 P 
ATOM      3  O   UNL d   1     -40.673  13.490  21.625  0.00  0.00    -0.251 OA
BRANCH   2   4
ATOM      4  O   UNL d   1     -41.499  14.012  20.989  0.00  0.00    -0.263 OA
BRANCH   4   5
ATOM      5  C   UNL d   1     -41.862  13.329  21.290  0.00  0.00     0.126 C 
BRANCH   5   6
ATOM      6  C   UNL d   1     -42.657  13.148  21.107  0.00  0.00     0.027 C 
ATOM      7  C   UNL d   1     -43.252  12.610  21.502  0.00  0.00     0.002 C 
ENDBRANCH   5   6
ENDBRANCH   4   5
ENDBRANCH   2   4
BRANCH   2   8
ATOM      8  O   UNL d   1     -39.891  14.218  21.219  0.00  0.00    -0.263 OA
BRANCH   8   9
ATOM      9  C   UNL d   1     -39.486  13.669  21.672  0.00  0.00     0.126 C 
BRANCH   9  10
ATOM     10  C   UNL d   1     -38.656  13.700  21.719  0.00  0.00     0.027 C 
ATOM     11  C   UNL d   1     -38.410  13.125  22.181  0.00  0.00     0.002 C 
ENDBRANCH   9  10
ENDBRANCH   8   9
ENDBRANCH   2   8
ENDBRANCH   1   2
BRANCH   1  12
ATOM     12  N   UNL d   1     -40.707  14.593  19.742  0.00  0.00    -0.199 NA
ATOM     13  C   UNL d   1     -40.360  15.156  19.231  0.00  0.00     0.279 C 
ATOM     14  O   UNL d   1     -40.052  15.844  19.518  0.00  0.00    -0.265 OA
BRANCH  13  15
ATOM     15  C   UNL d   1     -40.320  15.032  18.432  0.00  0.00     0.058 A 
ATOM     16  C   UNL d   1     -39.867  14.406  18.142  0.00  0.00     0.005 A 
ATOM     17  C   UNL d   1     -39.829  14.283  17.331  0.00  0.00     0.000 A 
ATOM     18  C   UNL d   1     -40.246  14.787  16.811  0.00  0.00     0.000 A 
ATOM     19  C   UNL d   1     -40.693  15.403  17.096  0.00  0.00     0.000 A 
ATOM     20  C   UNL d   1     -40.735  15.533  17.916  0.00  0.00     0.005 A 
ENDBRANCH  13  15
ENDBRANCH   1  12
BRANCH   1  21
ATOM     21  C   UNL d   1     -40.778  15.530  20.827  0.00  0.00     0.140 C 
ATOM     22 CL   UNL d   1     -41.463  15.857  20.716  0.00  0.00    -0.068 Cl
ATOM     23 CL   UNL d   1     -40.091  15.921  21.204  0.00  0.00    -0.068 Cl
ENDBRANCH   1  21
TORSDOF 10
ENDMDL
MODEL 2
REMARK VINA RESULT:      -4.1      7.325      9.256
REMARK  10 active torsions:
REMARK  status: ('A' for Active; 'I' for Inactive)
REMARK    1  A    between atoms: P_2  and  C_1 
REMARK    2  A    between atoms: N_3  and  C_1 
REMARK    3  A    between atoms: C_4  and  C_1 
REMARK    4  A    between atoms: O_9  and  P_2 
REMARK    5  A    between atoms: O_10  and  P_2 
REMARK       I    between atoms: C_5  and  N_3 
REMARK    6  A    between atoms: C_8  and  C_5 
REMARK    7  A    between atoms: C_16  and  O_9 
REMARK    8  A    between atoms: C_15  and  O_10 
REMARK    9  A    between atoms: C_18  and  C_15 
REMARK   10  A    between atoms: C_17  and  C_16 
ROOT
ATOM      1  C   UNL d   1     -49.387  13.368  22.076  0.00  0.00     0.186 C 
ENDROOT
BRANCH   1   2
ATOM      2  P   UNL d   1     -50.031  13.312  22.607  0.00  0.00     0.393 P 
ATOM      3  O   UNL d   1     -50.668  13.275  23.129  0.00  0.00    -0.251 OA
BRANCH   2   4
ATOM      4  O   UNL d   1     -50.154  14.121  22.513  0.00  0.00    -0.263 OA
BRANCH   4   5
ATOM      5  C   UNL d   1     -50.708  14.510  22.993  0.00  0.00     0.126 C 
BRANCH   5   6
ATOM      6  C   UNL d   1     -50.721  15.344  23.047  0.00  0.00     0.027 C 
ATOM      7  C   UNL d   1     -50.295  15.913  23.589  0.00  0.00     0.002 C 
ENDBRANCH   5   6
ENDBRANCH   4   5
ENDBRANCH   2   4
BRANCH   2   8
ATOM      8  O   UNL d   1     -49.925  12.513  22.714  0.00  0.00    -0.263 OA
BRANCH   8   9
ATOM      9  C   UNL d   1     -50.423  12.106  23.221  0.00  0.00     0.126 C 
BRANCH   9  10
ATOM     10  C   UNL d   1     -50.142  11.442  23.636  0.00  0.00     0.027 C 
ATOM     11  C   UNL d   1     -50.719  10.923  23.697  0.00  0.00     0.002 C 
ENDBRANCH   9  10
ENDBRANCH   8   9
ENDBRANCH   2   8
ENDBRANCH   1   2
BRANCH   1  12
ATOM     12  N   UNL d   1     -48.675  13.708  22.354  0.00  0.00    -0.199 NA
ATOM     13  C   UNL d   1     -47.958  13.310  22.190  0.00  0.00     0.279 C 
ATOM     14  O   UNL d   1     -47.953  12.618  21.777  0.00  0.00    -0.265 OA
BRANCH  13  15
ATOM     15  C   UNL d   1     -47.247  13.604  22.440  0.00  0.00     0.058 A 
ATOM     16  C   UNL d   1     -46.680  13.087  22.745  0.00  0.00     0.005 A 
ATOM     17  C   UNL d   1     -45.960  13.390  22.997  0.00  0.00     0.000 A 
ATOM     18  C   UNL d   1     -45.807  14.210  22.944  0.00  0.00     0.000 A 
ATOM     19  C   UNL d   1     -46.365  14.718  22.644  0.00  0.00     0.000 A 
ATOM     20  C   UNL d   1     -47.097  14.419  22.387  0.00  0.00     0.005 A 
ENDBRANCH  13  15
ENDBRANCH   1  12
BRANCH   1  21
ATOM     21  C   UNL d   1     -49.451  13.099  21.312  0.00  0.00     0.140 C 
ATOM     22 CL   UNL d   1     -49.581  13.650  20.793  0.00  0.00    -0.068 Cl
ATOM     23 CL   UNL d   1     -49.374  12.246  21.129  0.00  0.00    -0.068 Cl
ENDBRANCH   1  21
TORSDOF 10
ENDMDL
MODEL 3
REMARK VINA RESULT:      -4.0      7.132      9.156
REMARK  10 active torsions:
REMARK  status: ('A' for Active; 'I' for Inactive)
REMARK    1  A    between atoms: P_2  and  C_1 
REMARK    2  A    between atoms: N_3  and  C_1 
REMARK    3  A    between atoms: C_4  and  C_1 
REMARK    4  A    between atoms: O_9  and  P_2 
REMARK    5  A    between atoms: O_10  and  P_2 
REMARK       I    between atoms: C_5  and  N_3 
REMARK    6  A    between atoms: C_8  and  C_5 
REMARK    7  A    between atoms: C_16  and  O_9 
REMARK    8  A    between atoms: C_15  and  O_10 
REMARK    9  A    between atoms: C_18  and  C_15 
REMARK   10  A    between atoms: C_17  and  C_16 
ROOT
ATOM      1  C   UNL d   1     -49.334  13.589  22.211  0.00  0.00     0.186 C 
ENDROOT
BRANCH   1   2
ATOM      2  P   UNL d   1     -49.955  13.551  22.770  0.00  0.00     0.393 P 
ATOM      3  O   UNL d   1     -50.564  13.496  23.323  0.00  0.00    -0.251 OA
BRANCH   2   4
ATOM      4  O   UNL d   1     -49.856  12.734  22.796  0.00  0.00    -0.263 OA
BRANCH   4   5
ATOM      5  C   UNL d   1     -50.344  12.278  23.288  0.00  0.00     0.126 C 
BRANCH   5   6
ATOM      6  C   UNL d   1     -50.044  11.611  23.695  0.00  0.00     0.027 C 
ATOM      7  C   UNL d   1     -50.240  10.741  23.639  0.00  0.00     0.002 C 
ENDBRANCH   5   6
ENDBRANCH   4   5
ENDBRANCH   2   4
BRANCH   2   8
ATOM      8  O   UNL d   1     -50.067  14.356  22.759  0.00  0.00    -0.263 OA
BRANCH   8   9
ATOM      9  C   UNL d   1     -50.595  14.696  23.285  0.00  0.00     0.126 C 
BRANCH   9  10
ATOM     10  C   UNL d   1     -50.810  15.495  23.202  0.00  0.00     0.027 C 
ATOM     11  C   UNL d   1     -50.388  15.921  23.698  0.00  0.00     0.002 C 
ENDBRANCH   9  10
ENDBRANCH   8   9
ENDBRANCH   2   8
ENDBRANCH   1   2
BRANCH   1  12
ATOM     12  N   UNL d   1     -48.555  13.699  22.493  0.00  0.00    -0.199 NA
ATOM     13  C   UNL d   1     -47.926  13.372  22.049  0.00  0.00     0.279 C 
ATOM     14  O   UNL d   1     -48.066  12.963  21.368  0.00  0.00    -0.265 OA
BRANCH  13  15
ATOM     15  C   UNL d   1     -47.156  13.455  22.286  0.00  0.00     0.058 A 
ATOM     16  C   UNL d   1     -46.579  12.960  21.965  0.00  0.00     0.005 A 
ATOM     17  C   UNL d   1     -45.800  13.047  22.208  0.00  0.00     0.000 A 
ATOM     18  C   UNL d   1     -45.598  13.630  22.772  0.00  0.00     0.000 A 
ATOM     19  C   UNL d   1     -46.166  14.117  23.087  0.00  0.00     0.000 A 
ATOM     20  C   UNL d   1     -46.958  14.035  22.846  0.00  0.00     0.005 A 
ENDBRANCH  13  15
ENDBRANCH   1  12
BRANCH   1  21
ATOM     21  C   UNL d   1     -49.485  13.520  21.415  0.00  0.00     0.140 C 
ATOM     22 CL   UNL d   1     -49.408  14.174  21.021  0.00  0.00    -0.068 Cl
ATOM     23 CL   UNL d   1     -49.713  12.749  21.067  0.00  0.00    -0.068 Cl
ENDBRANCH   1  21
TORSDOF 10
ENDMDL
MODEL 4
REMARK VINA RESULT:      -4.0      0.546      2.266
REMARK  10 active torsions:
REMARK  status: ('A' for Active; 'I' for Inactive)
REMARK    1  A    between atoms: P_2  and  C_1 
REMARK    2  A    between atoms: N_3  and  C_1 
REMARK    3  A    between atoms: C_4  and  C_1 
REMARK    4  A    between atoms: O_9  and  P_2 
REMARK    5  A    between atoms: O_10  and  P_2 
REMARK       I    between atoms: C_5  and  N_3 
REMARK    6  A    between atoms: C_8  and  C_5 
REMARK    7  A    between atoms: C_16  and  O_9 
REMARK    8  A    between atoms: C_15  and  O_10 
REMARK    9  A    between atoms: C_18  and  C_15 
REMARK   10  A    between atoms: C_17  and  C_16 
ROOT
ATOM      1  C   UNL d   1     -40.201  14.747  20.455  0.00  0.00     0.186 C 
ENDROOT
BRANCH   1   2
ATOM      2  P   UNL d   1     -40.370  14.187  21.054  0.00  0.00     0.393 P 
ATOM      3  O   UNL d   1     -40.518  13.636  21.649  0.00  0.00    -0.251 OA
BRANCH   2   4
ATOM      4  O   UNL d   1     -39.579  14.223  21.282  0.00  0.00    -0.263 OA
BRANCH   4   5
ATOM      5  C   UNL d   1     -39.283  13.662  21.818  0.00  0.00     0.126 C 
BRANCH   5   6
ATOM      6  C   UNL d   1     -38.498  13.712  22.103  0.00  0.00     0.027 C 
ATOM      7  C   UNL d   1     -37.969  13.111  22.501  0.00  0.00     0.002 C 
ENDBRANCH   5   6
ENDBRANCH   4   5
ENDBRANCH   2   4
BRANCH   2   8
ATOM      8  O   UNL d   1     -41.154  14.138  20.843  0.00  0.00    -0.263 OA
BRANCH   8   9
ATOM      9  C   UNL d   1     -41.625  13.558  21.178  0.00  0.00     0.126 C 
BRANCH   9  10
ATOM     10  C   UNL d   1     -42.431  13.512  20.981  0.00  0.00     0.027 C 
ATOM     11  C   UNL d   1     -42.733  12.873  21.309  0.00  0.00     0.002 C 
ENDBRANCH   9  10
ENDBRANCH   8   9
ENDBRANCH   2   8
ENDBRANCH   1   2
BRANCH   1  12
ATOM     12  N   UNL d   1     -39.938  14.464  19.714  0.00  0.00    -0.199 NA
ATOM     13  C   UNL d   1     -40.142  14.901  19.031  0.00  0.00     0.279 C 
ATOM     14  O   UNL d   1     -40.579  15.577  19.086  0.00  0.00    -0.265 OA
BRANCH  13  15
ATOM     15  C   UNL d   1     -39.908  14.664  18.293  0.00  0.00     0.058 A 
ATOM     16  C   UNL d   1     -39.976  15.188  17.659  0.00  0.00     0.005 A 
ATOM     17  C   UNL d   1     -39.737  14.943  16.913  0.00  0.00     0.000 A 
ATOM     18  C   UNL d   1     -39.431  14.173  16.801  0.00  0.00     0.000 A 
ATOM     19  C   UNL d   1     -39.365  13.657  17.425  0.00  0.00     0.000 A 
ATOM     20  C   UNL d   1     -39.604  13.899  18.184  0.00  0.00     0.005 A 
ENDBRANCH  13  15
ENDBRANCH   1  12
BRANCH   1  21
ATOM     21  C   UNL d   1     -40.291  15.543  20.591  0.00  0.00     0.140 C 
ATOM     22 CL   UNL d   1     -39.632  15.922  20.697  0.00  0.00    -0.068 Cl
ATOM     23 CL   UNL d   1     -41.087  15.908  20.608  0.00  0.00    -0.068 Cl
ENDBRANCH   1  21
TORSDOF 10
ENDMDL
MODEL 5
REMARK VINA RESULT:      -3.9      1.013      1.233
REMARK  10 active torsions:
REMARK  status: ('A' for Active; 'I' for Inactive)
REMARK    1  A    between atoms: P_2  and  C_1 
REMARK    2  A    between atoms: N_3  and  C_1 
REMARK    3  A    between atoms: C_4  and  C_1 
REMARK    4  A    between atoms: O_9  and  P_2 
REMARK    5  A    between atoms: O_10  and  P_2 
REMARK       I    between atoms: C_5  and  N_3 
REMARK    6  A    between atoms: C_8  and  C_5 
REMARK    7  A    between atoms: C_16  and  O_9 
REMARK    8  A    between atoms: C_15  and  O_10 
REMARK    9  A    between atoms: C_18  and  C_15 
REMARK   10  A    between atoms: C_17  and  C_16 
ROOT
ATOM      1  C   UNL d   1     -39.859  14.682  20.296  0.00  0.00     0.186 C 
ENDROOT
BRANCH   1   2
ATOM      2  P   UNL d   1     -40.023  14.264  21.003  0.00  0.00     0.393 P 
ATOM      3  O   UNL d   1     -40.204  13.853  21.694  0.00  0.00    -0.251 OA
BRANCH   2   4
ATOM      4  O   UNL d   1     -40.821  14.269  20.796  0.00  0.00    -0.263 OA
BRANCH   4   5
ATOM      5  C   UNL d   1     -41.346  13.754  21.181  0.00  0.00     0.126 C 
BRANCH   5   6
ATOM      6  C   UNL d   1     -42.123  13.636  20.892  0.00  0.00     0.027 C 
ATOM      7  C   UNL d   1     -42.803  13.143  21.198  0.00  0.00     0.002 C 
ENDBRANCH   5   6
ENDBRANCH   4   5
ENDBRANCH   2   4
BRANCH   2   8
ATOM      8  O   UNL d   1     -39.241  14.250  21.223  0.00  0.00    -0.263 OA
BRANCH   8   9
ATOM      9  C   UNL d   1     -39.012  13.788  21.861  0.00  0.00     0.126 C 
BRANCH   9  10
ATOM     10  C   UNL d   1     -38.205  13.691  22.035  0.00  0.00     0.027 C 
ATOM     11  C   UNL d   1     -38.139  13.299  22.704  0.00  0.00     0.002 C 
ENDBRANCH   9  10
ENDBRANCH   8   9
ENDBRANCH   2   8
ENDBRANCH   1   2
BRANCH   1  12
ATOM     12  N   UNL d   1     -39.742  14.241  19.596  0.00  0.00    -0.199 NA
ATOM     13  C   UNL d   1     -39.182  14.522  19.042  0.00  0.00     0.279 C 
ATOM     14  O   UNL d   1     -38.767  15.200  19.180  0.00  0.00    -0.265 OA
BRANCH  13  15
ATOM     15  C   UNL d   1     -39.037  14.127  18.351  0.00  0.00     0.058 A 
ATOM     16  C   UNL d   1     -38.500  13.500  18.348  0.00  0.00     0.005 A 
ATOM     17  C   UNL d   1     -38.356  13.102  17.645  0.00  0.00     0.000 A 
ATOM     18  C   UNL d   1     -38.750  13.331  16.945  0.00  0.00     0.000 A 
ATOM     19  C   UNL d   1     -39.279  13.948  16.947  0.00  0.00     0.000 A 
ATOM     20  C   UNL d   1     -39.430  14.356  17.656  0.00  0.00     0.005 A 
ENDBRANCH  13  15
ENDBRANCH   1  12
BRANCH   1  21
ATOM     21  C   UNL d   1     -39.814  15.494  20.292  0.00  0.00     0.140 C 
ATOM     22 CL   UNL d   1     -40.409  15.841  19.954  0.00  0.00    -0.068 Cl
ATOM     23 CL   UNL d   1     -39.130  15.906  20.651  0.00  0.00    -0.068 Cl
ENDBRANCH   1  21
TORSDOF 10
ENDMDL
MODEL 6
REMARK VINA RESULT:      -3.9      2.136      3.894
REMARK  10 active torsions:
REMARK  status: ('A' for Active; 'I' for Inactive)
REMARK    1  A    between atoms: P_2  and  C_1 
REMARK    2  A    between atoms: N_3  and  C_1 
REMARK    3  A    between atoms: C_4  and  C_1 
REMARK    4  A    between atoms: O_9  and  P_2 
REMARK    5  A    between atoms: O_10  and  P_2 
REMARK       I    between atoms: C_5  and  N_3 
REMARK    6  A    between atoms: C_8  and  C_5 
REMARK    7  A    between atoms: C_16  and  O_9 
REMARK    8  A    between atoms: C_15  and  O_10 
REMARK    9  A    between atoms: C_18  and  C_15 
REMARK   10  A    between atoms: C_17  and  C_16 
ROOT
ATOM      1  C   UNL d   1     -39.159  14.855  18.462  0.00  0.00     0.186 C 
ENDROOT
BRANCH   1   2
ATOM      2  P   UNL d   1     -39.246  14.520  17.700  0.00  0.00     0.393 P 
ATOM      3  O   UNL d   1     -39.344  14.204  16.945  0.00  0.00    -0.251 OA
BRANCH   2   4
ATOM      4  O   UNL d   1     -39.754  15.140  17.507  0.00  0.00    -0.263 OA
BRANCH   4   5
ATOM      5  C   UNL d   1     -40.237  15.079  16.835  0.00  0.00     0.126 C 
BRANCH   5   6
ATOM      6  C   UNL d   1     -40.847  15.633  16.691  0.00  0.00     0.027 C 
ATOM      7  C   UNL d   1     -41.471  15.678  16.053  0.00  0.00     0.002 C 
ENDBRANCH   5   6
ENDBRANCH   4   5
ENDBRANCH   2   4
BRANCH   2   8
ATOM      8  O   UNL d   1     -38.748  13.901  17.872  0.00  0.00    -0.263 OA
BRANCH   8   9
ATOM      9  C   UNL d   1     -38.773  13.225  17.410  0.00  0.00     0.126 C 
BRANCH   9  10
ATOM     10  C   UNL d   1     -38.192  12.637  17.501  0.00  0.00     0.027 C 
ATOM     11  C   UNL d   1     -38.480  11.959  17.247  0.00  0.00     0.002 C 
ENDBRANCH   9  10
ENDBRANCH   8   9
ENDBRANCH   2   8
ENDBRANCH   1   2
BRANCH   1  12
ATOM     12  N   UNL d   1     -39.782  14.754  19.010  0.00  0.00    -0.199 NA
ATOM     13  C   UNL d   1     -39.843  15.299  19.641  0.00  0.00     0.279 C 
ATOM     14  O   UNL d   1     -39.316  15.905  19.719  0.00  0.00    -0.265 OA
BRANCH  13  15
ATOM     15  C   UNL d   1     -40.430  15.239  20.195  0.00  0.00     0.058 A 
ATOM     16  C   UNL d   1     -40.814  15.922  20.454  0.00  0.00     0.005 A 
ATOM     17  C   UNL d   1     -41.409  15.856  21.016  0.00  0.00     0.000 A 
ATOM     18  C   UNL d   1     -41.619  15.106  21.318  0.00  0.00     0.000 A 
ATOM     19  C   UNL d   1     -41.241  14.433  21.063  0.00  0.00     0.000 A 
ATOM     20  C   UNL d   1     -40.638  14.492  20.494  0.00  0.00     0.005 A 
ENDBRANCH  13  15
ENDBRANCH   1  12
BRANCH   1  21
ATOM     21  C   UNL d   1     -38.488  15.268  18.662  0.00  0.00     0.140 C 
ATOM     22 CL   UNL d   1     -38.389  15.921  18.272  0.00  0.00    -0.068 Cl
ATOM     23 CL   UNL d   1     -37.943  14.964  19.278  0.00  0.00    -0.068 Cl
ENDBRANCH   1  21
TORSDOF 10
ENDMDL
MODEL 7
REMARK VINA RESULT:      -2.8      1.024      3.873
REMARK  10 active torsions:
REMARK  status: ('A' for Active; 'I' for Inactive)
REMARK    1  A    between atoms: P_2  and  C_1 
REMARK    2  A    between atoms: N_3  and  C_1 
REMARK    3  A    between atoms: C_4  and  C_1 
REMARK    4  A    between atoms: O_9  and  P_2 
REMARK    5  A    between atoms: O_10  and  P_2 
REMARK       I    between atoms: C_5  and  N_3 
REMARK    6  A    between atoms: C_8  and  C_5 
REMARK    7  A    between atoms: C_16  and  O_9 
REMARK    8  A    between atoms: C_15  and  O_10 
REMARK    9  A    between atoms: C_18  and  C_15 
REMARK   10  A    between atoms: C_17  and  C_16 
ROOT
ATOM      1  C   UNL d   1     -40.136  14.737  20.615  0.00  0.00     0.186 C 
ENDROOT
BRANCH   1   2
ATOM      2  P   UNL d   1     -40.614  14.357  20.044  0.00  0.00     0.393 P 
ATOM      3  O   UNL d   1     -41.072  13.985  19.467  0.00  0.00    -0.251 OA
BRANCH   2   4
ATOM      4  O   UNL d   1     -40.036  14.520  19.480  0.00  0.00    -0.263 OA
BRANCH   4   5
ATOM      5  C   UNL d   1     -40.080  14.162  18.733  0.00  0.00     0.126 C 
BRANCH   5   6
ATOM      6  C   UNL d   1     -39.565  14.390  18.114  0.00  0.00     0.027 C 
ATOM      7  C   UNL d   1     -39.435  14.058  17.295  0.00  0.00     0.002 C 
ENDBRANCH   5   6
ENDBRANCH   4   5
ENDBRANCH   2   4
BRANCH   2   8
ATOM      8  O   UNL d   1     -41.196  14.186  20.585  0.00  0.00    -0.263 OA
BRANCH   8   9
ATOM      9  C   UNL d   1     -41.809  13.686  20.373  0.00  0.00     0.126 C 
BRANCH   9  10
ATOM     10  C   UNL d   1     -42.080  13.110  20.909  0.00  0.00     0.027 C 
ATOM     11  C   UNL d   1     -42.791  13.311  21.153  0.00  0.00     0.002 C 
ENDBRANCH   9  10
ENDBRANCH   8   9
ENDBRANCH   2   8
ENDBRANCH   1   2
BRANCH   1  12
ATOM     12  N   UNL d   1     -39.629  14.265  21.083  0.00  0.00    -0.199 NA
ATOM     13  C   UNL d   1     -39.423  14.543  21.844  0.00  0.00     0.279 C 
ATOM     14  O   UNL d   1     -39.706  15.246  22.120  0.00  0.00    -0.265 OA
BRANCH  13  15
ATOM     15  C   UNL d   1     -38.934  14.118  22.330  0.00  0.00     0.058 A 
ATOM     16  C   UNL d   1     -38.879  14.322  23.127  0.00  0.00     0.005 A 
ATOM     17  C   UNL d   1     -38.383  13.888  23.616  0.00  0.00     0.000 A 
ATOM     18  C   UNL d   1     -37.941  13.250  23.306  0.00  0.00     0.000 A 
ATOM     19  C   UNL d   1     -37.995  13.049  22.521  0.00  0.00     0.000 A 
ATOM     20  C   UNL d   1     -38.496  13.484  22.020  0.00  0.00     0.005 A 
ENDBRANCH  13  15
ENDBRANCH   1  12
BRANCH   1  21
ATOM     21  C   UNL d   1     -40.165  15.544  20.713  0.00  0.00     0.140 C 
ATOM     22 CL   UNL d   1     -39.563  15.919  20.420  0.00  0.00    -0.068 Cl
ATOM     23 CL   UNL d   1     -40.840  15.922  21.124  0.00  0.00    -0.068 Cl
ENDBRANCH   1  21
TORSDOF 10
ENDMDL
MODEL 8
REMARK VINA RESULT:      -2.8      4.955      7.431
REMARK  10 active torsions:
REMARK  status: ('A' for Active; 'I' for Inactive)
REMARK    1  A    between atoms: P_2  and  C_1 
REMARK    2  A    between atoms: N_3  and  C_1 
REMARK    3  A    between atoms: C_4  and  C_1 
REMARK    4  A    between atoms: O_9  and  P_2 
REMARK    5  A    between atoms: O_10  and  P_2 
REMARK       I    between atoms: C_5  and  N_3 
REMARK    6  A    between atoms: C_8  and  C_5 
REMARK    7  A    between atoms: C_16  and  O_9 
REMARK    8  A    between atoms: C_15  and  O_10 
REMARK    9  A    between atoms: C_18  and  C_15 
REMARK   10  A    between atoms: C_17  and  C_16 
ROOT
ATOM      1  C   UNL d   1     -46.395  13.161  22.711  0.00  0.00     0.186 C 
ENDROOT
BRANCH   1   2
ATOM      2  P   UNL d   1     -45.733  12.650  22.742  0.00  0.00     0.393 P 
ATOM      3  O   UNL d   1     -45.071  12.158  22.762  0.00  0.00    -0.251 OA
BRANCH   2   4
ATOM      4  O   UNL d   1     -45.337  13.164  22.235  0.00  0.00    -0.263 OA
BRANCH   4   5
ATOM      5  C   UNL d   1     -44.518  13.082  22.127  0.00  0.00     0.126 C 
BRANCH   5   6
ATOM      6  C   UNL d   1     -44.190  12.999  21.362  0.00  0.00     0.027 C 
ATOM      7  C   UNL d   1     -43.345  13.007  21.071  0.00  0.00     0.002 C 
ENDBRANCH   5   6
ENDBRANCH   4   5
ENDBRANCH   2   4
BRANCH   2   8
ATOM      8  O   UNL d   1     -46.107  12.130  23.243  0.00  0.00    -0.263 OA
BRANCH   8   9
ATOM      9  C   UNL d   1     -45.749  11.416  23.422  0.00  0.00     0.126 C 
BRANCH   9  10
ATOM     10  C   UNL d   1     -46.209  10.772  23.677  0.00  0.00     0.027 C 
ATOM     11  C   UNL d   1     -45.761  10.136  23.697  0.00  0.00     0.002 C 
ENDBRANCH   9  10
ENDBRANCH   8   9
ENDBRANCH   2   8
ENDBRANCH   1   2
BRANCH   1  12
ATOM     12  N   UNL d   1     -47.123  12.847  22.447  0.00  0.00    -0.199 NA
ATOM     13  C   UNL d   1     -47.754  13.378  22.311  0.00  0.00     0.279 C 
ATOM     14  O   UNL d   1     -47.663  14.170  22.431  0.00  0.00    -0.265 OA
BRANCH  13  15
ATOM     15  C   UNL d   1     -48.477  13.117  22.054  0.00  0.00     0.058 A 
ATOM     16  C   UNL d   1     -48.901  13.570  21.511  0.00  0.00     0.005 A 
ATOM     17  C   UNL d   1     -49.633  13.302  21.254  0.00  0.00     0.000 A 
ATOM     18  C   UNL d   1     -49.940  12.580  21.541  0.00  0.00     0.000 A 
ATOM     19  C   UNL d   1     -49.522  12.133  22.076  0.00  0.00     0.000 A 
ATOM     20  C   UNL d   1     -48.780  12.399  22.341  0.00  0.00     0.005 A 
ENDBRANCH  13  15
ENDBRANCH   1  12
BRANCH   1  21
ATOM     21  C   UNL d   1     -46.331  13.941  22.931  0.00  0.00     0.140 C 
ATOM     22 CL   UNL d   1     -46.324  14.055  23.690  0.00  0.00    -0.068 Cl
ATOM     23 CL   UNL d   1     -46.276  14.574  22.328  0.00  0.00    -0.068 Cl
ENDBRANCH   1  21
TORSDOF 10
ENDMDL
MODEL 9
REMARK VINA RESULT:      -2.5      5.758      8.136
REMARK  10 active torsions:
REMARK  status: ('A' for Active; 'I' for Inactive)
REMARK    1  A    between atoms: P_2  and  C_1 
REMARK    2  A    between atoms: N_3  and  C_1 
REMARK    3  A    between atoms: C_4  and  C_1 
REMARK    4  A    between atoms: O_9  and  P_2 
REMARK    5  A    between atoms: O_10  and  P_2 
REMARK       I    between atoms: C_5  and  N_3 
REMARK    6  A    between atoms: C_8  and  C_5 
REMARK    7  A    between atoms: C_16  and  O_9 
REMARK    8  A    between atoms: C_15  and  O_10 
REMARK    9  A    between atoms: C_18  and  C_15 
REMARK   10  A    between atoms: C_17  and  C_16 
ROOT
ATOM      1  C   UNL d   1     -47.102  13.796  22.853  0.00  0.00     0.186 C 
ENDROOT
BRANCH   1   2
ATOM      2  P   UNL d   1     -46.789  13.027  22.750  0.00  0.00     0.393 P 
ATOM      3  O   UNL d   1     -46.465  12.277  22.639  0.00  0.00    -0.251 OA
BRANCH   2   4
ATOM      4  O   UNL d   1     -46.164  13.361  22.329  0.00  0.00    -0.263 OA
BRANCH   4   5
ATOM      5  C   UNL d   1     -45.570  12.869  22.022  0.00  0.00     0.126 C 
BRANCH   5   6
ATOM      6  C   UNL d   1     -44.863  13.191  21.710  0.00  0.00     0.027 C 
ATOM      7  C   UNL d   1     -44.083  12.813  21.490  0.00  0.00     0.002 C 
ENDBRANCH   5   6
ENDBRANCH   4   5
ENDBRANCH   2   4
BRANCH   2   8
ATOM      8  O   UNL d   1     -47.397  12.681  23.163  0.00  0.00    -0.263 OA
BRANCH   8   9
ATOM      9  C   UNL d   1     -47.491  11.867  23.133  0.00  0.00     0.126 C 
BRANCH   9  10
ATOM     10  C   UNL d   1     -47.980  11.484  23.686  0.00  0.00     0.027 C 
ATOM     11  C   UNL d   1     -48.461  11.005  23.305  0.00  0.00     0.002 C 
ENDBRANCH   9  10
ENDBRANCH   8   9
ENDBRANCH   2   8
ENDBRANCH   1   2
BRANCH   1  12
ATOM     12  N   UNL d   1     -47.933  13.891  22.824  0.00  0.00    -0.199 NA
ATOM     13  C   UNL d   1     -48.237  14.627  22.571  0.00  0.00     0.279 C 
ATOM     14  O   UNL d   1     -47.743  15.230  22.361  0.00  0.00    -0.265 OA
BRANCH  13  15
ATOM     15  C   UNL d   1     -49.034  14.761  22.528  0.00  0.00     0.058 A 
ATOM     16  C   UNL d   1     -49.402  15.204  23.120  0.00  0.00     0.005 A 
ATOM     17  C   UNL d   1     -50.211  15.337  23.073  0.00  0.00     0.000 A 
ATOM     18  C   UNL d   1     -50.650  15.029  22.433  0.00  0.00     0.000 A 
ATOM     19  C   UNL d   1     -50.288  14.593  21.850  0.00  0.00     0.000 A 
ATOM     20  C   UNL d   1     -49.469  14.454  21.892  0.00  0.00     0.005 A 
ENDBRANCH  13  15
ENDBRANCH   1  12
BRANCH   1  21
ATOM     21  C   UNL d   1     -46.613  14.434  22.978  0.00  0.00     0.140 C 
ATOM     22 CL   UNL d   1     -46.348  14.493  23.695  0.00  0.00    -0.068 Cl
ATOM     23 CL   UNL d   1     -46.425  14.988  22.326  0.00  0.00    -0.068 Cl
ENDBRANCH   1  21
TORSDOF 10
ENDMDL
