MODEL 1
REMARK VINA RESULT:      65.8      0.000      0.000
REMARK  7 active torsions:
REMARK  status: ('A' for Active; 'I' for Inactive)
REMARK    1  A    between atoms: C_5  and  C_1 
REMARK    2  A    between atoms: N_6  and  C_2 
REMARK       I    between atoms: N_10  and  C_5 
REMARK    3  A    between atoms: C_20  and  N_6 
REMARK    4  A    between atoms: C_9  and  C_12 
REMARK    5  A    between atoms: C_22  and  N_10 
REMARK    6  A    between atoms: C_11  and  C_22 
REMARK    7  A    between atoms: O_30  and  C_25 
ROOT
ATOM      1  C   UNL d   1      14.108  15.355  -4.980  0.00  0.00     0.099 A 
ATOM      2  C   UNL d   1      14.084  15.491  -4.168  0.00  0.00     0.187 A 
ATOM      3  C   UNL d   1      13.847  14.618  -5.277  0.00  0.00     0.010 A 
ATOM      4  O   UNL d   1      13.808  14.915  -3.652  0.00  0.00    -0.289 OA
ATOM      5  C   UNL d   1      13.567  14.034  -4.761  0.00  0.00     0.025 A 
ATOM      6  C   UNL d   1      13.546  14.176  -3.958  0.00  0.00     0.102 A 
ATOM      7  C   UNL d   1      13.309  13.307  -5.051  0.00  0.00     0.026 A 
ATOM      8  C   UNL d   1      13.267  13.595  -3.429  0.00  0.00     0.027 A 
ATOM      9  C   UNL d   1      13.032  12.729  -4.540  0.00  0.00     0.094 A 
ATOM     10  C   UNL d   1      13.008  12.866  -3.727  0.00  0.00     0.026 A 
ENDROOT
BRANCH   2  11
ATOM     11  N   UNL d   1      14.348  16.231  -3.875  0.00  0.00    -0.222 NA
BRANCH  11  12
ATOM     12  C   UNL d   1      14.633  16.282  -3.104  0.00  0.00     0.084 A 
ATOM     13  C   UNL d   1      15.136  16.902  -2.897  0.00  0.00     0.019 A 
ATOM     14  C   UNL d   1      15.416  16.948  -2.132  0.00  0.00     0.008 A 
ATOM     15  C   UNL d   1      15.204  16.383  -1.561  0.00  0.00     0.065 A 
ATOM     16  C   UNL d   1      14.699  15.762  -1.772  0.00  0.00     0.008 A 
ATOM     17  C   UNL d   1      14.418  15.719  -2.546  0.00  0.00     0.019 A 
BRANCH  15  18
ATOM     18  C   UNL d   1      15.489  16.434  -0.789  0.00  0.00     0.211 C 
ATOM     19  O   UNL d   1      15.705  15.746  -0.377  0.00  0.00    -0.644 OA
ATOM     20  O   UNL d   1      15.567  17.167  -0.412  0.00  0.00    -0.644 OA
ENDBRANCH  15  18
ENDBRANCH  11  12
ENDBRANCH   2  11
BRANCH   1  21
ATOM     21  C   UNL d   1      14.385  15.931  -5.499  0.00  0.00     0.283 C 
ATOM     22  N   UNL d   1      13.895  16.581  -5.705  0.00  0.00    -0.204 NA
ATOM     23  O   UNL d   1      15.151  15.885  -5.833  0.00  0.00    -0.265 OA
BRANCH  22  24
ATOM     24  C   UNL d   1      14.171  17.164  -6.228  0.00  0.00     0.127 C 
BRANCH  24  25
ATOM     25  C   UNL d   1      13.799  17.897  -6.270  0.00  0.00     0.119 A 
ATOM     26  O   UNL d   1      14.078  18.674  -6.237  0.00  0.00    -0.304 OA
ATOM     27  C   UNL d   1      13.446  19.187  -6.309  0.00  0.00     0.123 A 
ATOM     28  C   UNL d   1      12.769  18.747  -6.388  0.00  0.00     0.029 A 
ATOM     29  C   UNL d   1      12.980  17.949  -6.365  0.00  0.00     0.028 A 
ENDBRANCH  24  25
ENDBRANCH  22  24
ENDBRANCH   1  21
BRANCH   9  30
ATOM     30  O   UNL d   1      12.774  11.999  -4.842  0.00  0.00    -0.328 OA
ATOM     31  C   UNL d   1      12.966  11.779  -5.626  0.00  0.00     0.181 C 
ENDBRANCH   9  30
TORSDOF 7
ENDMDL
