MODEL 1
REMARK VINA RESULT:      41.0      0.000      0.000
REMARK  2 active torsions:
REMARK  status: ('A' for Active; 'I' for Inactive)
REMARK    1  A    between atoms: N_2  and  S_1 
REMARK    2  A    between atoms: C_4  and  S_1 
ROOT
ATOM      1  N   UNL d   1     -56.261 -99.391 -44.415  0.00  0.00    -0.231 N 
ATOM      2  C   UNL d   1     -55.942-100.158 -44.412  0.00  0.00     0.075 A 
ATOM      3  C   UNL d   1     -55.167-100.302 -44.674  0.00  0.00     0.017 A 
ATOM      4  C   UNL d   1     -55.785 -98.758 -44.689  0.00  0.00     0.092 A 
ATOM      5  C   UNL d   1     -56.417-100.792 -44.138  0.00  0.00     0.018 A 
ATOM      6  C   UNL d   1     -55.011 -98.902 -44.951  0.00  0.00     0.020 A 
ATOM      7  C   UNL d   1     -54.711 -99.680 -44.939  0.00  0.00     0.003 A 
ATOM      8  C   UNL d   1     -54.867-101.075 -44.664  0.00  0.00     0.002 A 
ATOM      9  C   UNL d   1     -56.107-101.557 -44.133  0.00  0.00     0.002 A 
ATOM     10  C   UNL d   1     -55.332-101.702 -44.395  0.00  0.00     0.000 A 
ENDROOT
BRANCH   1  11
ATOM     11  S   UNL d   1     -57.037 -99.256 -44.151  0.00  0.00     0.271 S 
ATOM     12  O   UNL d   1     -56.921 -99.648 -43.493  0.00  0.00    -0.200 OA
ATOM     13  O   UNL d   1     -57.206 -98.826 -44.842  0.00  0.00    -0.200 OA
BRANCH  11  14
ATOM     14  C   UNL d   1     -57.759 -99.132 -43.901  0.00  0.00     0.104 A 
ATOM     15  C   UNL d   1     -57.898 -99.044 -43.143  0.00  0.00     0.015 A 
ATOM     16  C   UNL d   1     -58.621 -98.920 -42.897  0.00  0.00     0.022 A 
ATOM     17  C   UNL d   1     -59.206 -98.884 -43.405  0.00  0.00     0.103 A 
ATOM     18  C   UNL d   1     -59.057 -98.973 -44.167  0.00  0.00     0.022 A 
ATOM     19  N   UNL d   1     -59.957 -98.755 -43.156  0.00  0.00    -0.148 N 
ATOM     20  C   UNL d   1     -58.344 -99.095 -44.413  0.00  0.00     0.015 A 
ENDBRANCH  11  14
ENDBRANCH   1  11
TORSDOF 2
ENDMDL
