MODEL 1
REMARK VINA RESULT:      49.4      0.000      0.000
REMARK  6 active torsions:
REMARK  status: ('A' for Active; 'I' for Inactive)
REMARK    1  A    between atoms: N_3  and  C_1 
REMARK    2  A    between atoms: C_4  and  C_2 
REMARK       I    between atoms: C_6  and  N_3 
REMARK    3  A    between atoms: C_11  and  C_6 
REMARK    4  A    between atoms: C_13  and  C_11 
REMARK    5  A    between atoms: O_19  and  C_14 
REMARK    6  A    between atoms: C_20  and  O_19 
ROOT
ATOM      1  N   UNL d   1     -48.874  28.629  34.107  0.00  0.00    -0.201 NA
ATOM      2  C   UNL d   1     -49.219  27.885  34.017  0.00  0.00     0.280 C 
ATOM      3  O   UNL d   1     -49.127  27.308  34.613  0.00  0.00    -0.265 OA
ENDROOT
BRANCH   2   4
ATOM      4  C   UNL d   1     -49.658  27.709  33.338  0.00  0.00     0.062 C 
BRANCH   4   5
ATOM      5  C   UNL d   1     -50.165  27.049  33.333  0.00  0.00     0.005 A 
ATOM      6  C   UNL d   1     -49.851  26.286  33.312  0.00  0.00     0.002 A 
ATOM      7  C   UNL d   1     -50.357  25.634  33.307  0.00  0.00     0.025 A 
ATOM      8  C   UNL d   1     -51.188  25.747  33.322  0.00  0.00     0.100 A 
ATOM      9  C   UNL d   1     -51.493  26.508  33.342  0.00  0.00     0.025 A 
ATOM     10  C   UNL d   1     -50.996  27.162  33.348  0.00  0.00     0.002 A 
BRANCH   8  11
ATOM     11  O   UNL d   1     -51.687  25.081  33.316  0.00  0.00    -0.305 OA
BRANCH  11  12
ATOM     12  C   UNL d   1     -51.398  24.330  33.480  0.00  0.00     0.123 C 
ATOM     13  C   UNL d   1     -51.873  23.667  33.389  0.00  0.00     0.029 C 
ENDBRANCH  11  12
ENDBRANCH   8  11
ENDBRANCH   4   5
ENDBRANCH   2   4
BRANCH   1  14
ATOM     14  C   UNL d   1     -48.435  28.799  34.792  0.00  0.00     0.119 A 
ATOM     15  C   UNL d   1     -48.167  29.549  35.007  0.00  0.00     0.084 A 
ATOM     16  C   UNL d   1     -47.757  29.475  35.718  0.00  0.00     0.014 A 
ATOM     17  C   UNL d   1     -47.770  28.670  35.948  0.00  0.00     0.037 A 
ATOM     18  S   UNL d   1     -48.193  28.266  35.364  0.00  0.00    -0.067 SA
BRANCH  15  19
ATOM     19  C   UNL d   1     -48.281  30.262  34.593  0.00  0.00     0.299 C 
ATOM     20  O   UNL d   1     -47.724  30.860  34.620  0.00  0.00    -0.264 OA
ATOM     21  N   UNL d   1     -48.974  30.361  34.146  0.00  0.00    -0.102 N 
ENDBRANCH  15  19
ENDBRANCH   1  14
TORSDOF 6
ENDMDL
