MODEL 1
REMARK VINA RESULT:      69.8      0.000      0.000
REMARK  8 active torsions:
REMARK  status: ('A' for Active; 'I' for Inactive)
REMARK    1  A    between atoms: N_6  and  C_1 
REMARK    2  A    between atoms: N_8  and  C_2 
REMARK    3  A    between atoms: N_15  and  C_7 
REMARK    4  A    between atoms: C_12  and  N_8 
REMARK    5  A    between atoms: N_10  and  C_19 
REMARK    6  A    between atoms: C_24  and  N_15 
REMARK    7  A    between atoms: C_19  and  C_20 
REMARK    8  A    between atoms: C_20  and  C_24 
ROOT
ATOM      1  C   UNL d   1     -50.752  26.794  34.408  0.00  0.00     0.201 A 
ATOM      2  C   UNL d   1     -51.377  26.256  34.325  0.00  0.00     0.206 A 
ATOM      3  N   UNL d   1     -51.767  26.012  35.004  0.00  0.00    -0.038 NA
ATOM      4  N   UNL d   1     -50.936  26.814  35.809  0.00  0.00    -0.036 NA
ATOM      5  C   UNL d   1     -50.532  27.073  35.148  0.00  0.00     0.227 A 
ATOM      6  C   UNL d   1     -51.547  26.291  35.744  0.00  0.00     0.753 A 
ATOM      7  N   UNL d   1     -49.908  27.607  35.210  0.00  0.00    -0.125 N 
ENDROOT
BRANCH   6   8
ATOM      8  N   UNL d   1     -51.947  26.037  36.417  0.00  0.00    -0.058 NA
BRANCH   8   9
ATOM      9  C   UNL d   1     -51.840  26.432  37.131  0.00  0.00     0.120 C 
BRANCH   9  10
ATOM     10  C   UNL d   1     -51.908  26.021  37.841  0.00  0.00     0.040 C 
BRANCH  10  11
ATOM     11  C   UNL d   1     -52.245  25.268  37.853  0.00  0.00     0.082 C 
BRANCH  11  12
ATOM     12  N   UNL d   1     -52.513  24.942  38.562  0.00  0.00    -0.299 N 
ATOM     13  C   UNL d   1     -52.354  25.332  39.272  0.00  0.00     0.107 A 
ATOM     14  C   UNL d   1     -52.621  25.010  39.982  0.00  0.00     0.142 A 
ATOM     15  O   UNL d   1     -53.044  24.302  39.981  0.00  0.00    -0.300 OA
ATOM     16  C   UNL d   1     -53.200  23.915  39.271  0.00  0.00     0.142 A 
ATOM     17  C   UNL d   1     -52.933  24.237  38.553  0.00  0.00     0.107 A 
ENDBRANCH  11  12
ENDBRANCH  10  11
ENDBRANCH   9  10
ENDBRANCH   8   9
ENDBRANCH   6   8
BRANCH   2  18
ATOM     18  N   UNL d   1     -51.598  25.976  33.581  0.00  0.00    -0.225 NA
BRANCH  18  19
ATOM     19  C   UNL d   1     -51.862  25.199  33.489  0.00  0.00     0.085 A 
ATOM     20  C   UNL d   1     -51.313  24.574  33.444  0.00  0.00     0.049 A 
ATOM     21  C   UNL d   1     -51.573  23.807  33.353  0.00  0.00     0.142 A 
ATOM     22  F   UNL d   1     -51.029  23.188  33.308  0.00  0.00    -0.204 F 
ATOM     23  C   UNL d   1     -52.385  23.645  33.306  0.00  0.00     0.030 A 
ATOM     24  C   UNL d   1     -52.929  24.264  33.351  0.00  0.00     0.004 A 
ATOM     25  C   UNL d   1     -52.665  25.040  33.443  0.00  0.00     0.019 A 
ENDBRANCH  18  19
ENDBRANCH   2  18
BRANCH   1  26
ATOM     26  N   UNL d   1     -50.342  27.054  33.717  0.00  0.00    -0.107 N 
ATOM     27  O   UNL d   1     -50.489  27.821  33.419  0.00  0.00    -0.531 OA
ATOM     28  O   UNL d   1     -49.795  26.547  33.337  0.00  0.00    -0.531 OA
ENDBRANCH   1  26
TORSDOF 8
ENDMDL
MODEL 2
REMARK VINA RESULT:      71.5      2.043      4.674
REMARK  8 active torsions:
REMARK  status: ('A' for Active; 'I' for Inactive)
REMARK    1  A    between atoms: N_6  and  C_1 
REMARK    2  A    between atoms: N_8  and  C_2 
REMARK    3  A    between atoms: N_15  and  C_7 
REMARK    4  A    between atoms: C_12  and  N_8 
REMARK    5  A    between atoms: N_10  and  C_19 
REMARK    6  A    between atoms: C_24  and  N_15 
REMARK    7  A    between atoms: C_19  and  C_20 
REMARK    8  A    between atoms: C_20  and  C_24 
ROOT
ATOM      1  C   UNL d   1     -50.863  27.158  37.735  0.00  0.00     0.201 A 
ATOM      2  C   UNL d   1     -51.496  26.623  37.743  0.00  0.00     0.206 A 
ATOM      3  N   UNL d   1     -51.746  26.314  37.026  0.00  0.00    -0.038 NA
ATOM      4  N   UNL d   1     -50.767  27.047  36.329  0.00  0.00    -0.036 NA
ATOM      5  C   UNL d   1     -50.499  27.369  37.030  0.00  0.00     0.227 A 
ATOM      6  C   UNL d   1     -51.383  26.525  36.321  0.00  0.00     0.753 A 
ATOM      7  N   UNL d   1     -49.871  27.901  37.043  0.00  0.00    -0.125 N 
ENDROOT
BRANCH   6   8
ATOM      8  N   UNL d   1     -51.645  26.206  35.609  0.00  0.00    -0.058 NA
BRANCH   8   9
ATOM      9  C   UNL d   1     -51.249  26.385  34.909  0.00  0.00     0.120 C 
BRANCH   9  10
ATOM     10  C   UNL d   1     -51.642  26.321  34.189  0.00  0.00     0.040 C 
BRANCH  10  11
ATOM     11  C   UNL d   1     -51.283  25.937  33.554  0.00  0.00     0.082 C 
BRANCH  11  12
ATOM     12  N   UNL d   1     -51.346  25.117  33.472  0.00  0.00    -0.299 N 
ATOM     13  C   UNL d   1     -50.661  24.658  33.460  0.00  0.00     0.107 A 
ATOM     14  C   UNL d   1     -50.720  23.841  33.379  0.00  0.00     0.142 A 
ATOM     15  O   UNL d   1     -51.461  23.485  33.311  0.00  0.00    -0.300 OA
ATOM     16  C   UNL d   1     -52.144  23.947  33.325  0.00  0.00     0.142 A 
ATOM     17  C   UNL d   1     -52.087  24.772  33.406  0.00  0.00     0.107 A 
ENDBRANCH  11  12
ENDBRANCH  10  11
ENDBRANCH   9  10
ENDBRANCH   8   9
ENDBRANCH   6   8
BRANCH   2  18
ATOM     18  N   UNL d   1     -51.862  26.411  38.451  0.00  0.00    -0.225 NA
BRANCH  18  19
ATOM     19  C   UNL d   1     -52.365  25.757  38.481  0.00  0.00     0.085 A 
ATOM     20  C   UNL d   1     -52.117  25.056  38.857  0.00  0.00     0.049 A 
ATOM     21  C   UNL d   1     -52.614  24.410  38.887  0.00  0.00     0.142 A 
ATOM     22  F   UNL d   1     -52.368  23.716  39.259  0.00  0.00    -0.204 F 
ATOM     23  C   UNL d   1     -53.367  24.448  38.543  0.00  0.00     0.030 A 
ATOM     24  C   UNL d   1     -53.613  25.141  38.171  0.00  0.00     0.004 A 
ATOM     25  C   UNL d   1     -53.110  25.795  38.141  0.00  0.00     0.019 A 
ENDBRANCH  18  19
ENDBRANCH   2  18
BRANCH   1  26
ATOM     26  N   UNL d   1     -50.595  27.484  38.466  0.00  0.00    -0.107 N 
ATOM     27  O   UNL d   1     -50.047  27.053  38.930  0.00  0.00    -0.531 OA
ATOM     28  O   UNL d   1     -50.875  28.230  38.722  0.00  0.00    -0.531 OA
ENDBRANCH   1  26
TORSDOF 8
ENDMDL
