MODEL 1
REMARK VINA RESULT:      29.7      0.000      0.000
REMARK  1 active torsions:
REMARK  status: ('A' for Active; 'I' for Inactive)
REMARK    1  A    between atoms: C_10  and  N_2 
ROOT
ATOM      1  C   UNL d   1      45.984 -17.784  43.859  0.00  0.00     0.174 A 
ATOM      2  N   UNL d   1      45.965 -16.366  43.708  0.00  0.00    -0.224 N 
ATOM      3  C   UNL d   1      45.839 -17.036  44.168  0.00  0.00     0.292 A 
ATOM      4  C   UNL d   1      46.256 -17.866  43.094  0.00  0.00     0.115 A 
ATOM      5  C   UNL d   1      46.237 -16.442  42.942  0.00  0.00     0.356 A 
ATOM      6  N   UNL d   1      46.382 -17.195  42.635  0.00  0.00    -0.190 NA
ATOM      7  O   UNL d   1      45.908 -18.541  44.189  0.00  0.00    -0.301 OA
ATOM      8  C   UNL d   1      46.351 -18.674  42.939  0.00  0.00     0.043 A 
ATOM      9  C   UNL d   1      46.136 -19.093  43.617  0.00  0.00     0.102 A 
ATOM     10  O   UNL d   1      45.559 -16.948  44.955  0.00  0.00    -0.264 OA
ATOM     11  O   UNL d   1      46.366 -15.765  42.472  0.00  0.00    -0.244 OA
ATOM     12  C   UNL d   1      46.605 -19.071  42.272  0.00  0.00     0.004 A 
ATOM     13  C   UNL d   1      46.174 -19.908  43.627  0.00  0.00     0.025 A 
ATOM     14  C   UNL d   1      46.646 -19.901  42.276  0.00  0.00     0.000 A 
ATOM     15  C   UNL d   1      46.430 -20.319  42.953  0.00  0.00     0.002 A 
ENDROOT
BRANCH   2  16
ATOM     16  C   UNL d   1      45.817 -15.611  44.021  0.00  0.00     0.071 A 
ATOM     17  C   UNL d   1      46.436 -15.082  44.136  0.00  0.00     0.018 A 
ATOM     18  C   UNL d   1      46.286 -14.333  44.447  0.00  0.00     0.002 A 
ATOM     19  C   UNL d   1      45.515 -14.117  44.642  0.00  0.00     0.000 A 
ATOM     20  C   UNL d   1      44.894 -14.640  44.530  0.00  0.00     0.002 A 
ATOM     21  C   UNL d   1      45.363 -13.364  44.955  0.00  0.00     0.000 C 
ATOM     22  C   UNL d   1      45.048 -15.392  44.217  0.00  0.00     0.018 A 
ENDBRANCH   2  16
TORSDOF 1
ENDMDL
MODEL 2
REMARK VINA RESULT:      29.9      0.765      4.223
REMARK  1 active torsions:
REMARK  status: ('A' for Active; 'I' for Inactive)
REMARK    1  A    between atoms: C_10  and  N_2 
ROOT
ATOM      1  C   UNL d   1      45.582 -15.911  44.316  0.00  0.00     0.174 A 
ATOM      2  N   UNL d   1      46.070 -17.070  43.643  0.00  0.00    -0.224 N 
ATOM      3  C   UNL d   1      45.717 -16.721  44.299  0.00  0.00     0.292 A 
ATOM      4  C   UNL d   1      45.796 -15.446  43.680  0.00  0.00     0.115 A 
ATOM      5  C   UNL d   1      46.287 -16.609  43.004  0.00  0.00     0.356 A 
ATOM      6  N   UNL d   1      46.149 -15.795  43.024  0.00  0.00    -0.190 NA
ATOM      7  O   UNL d   1      45.243 -15.419  44.892  0.00  0.00    -0.301 OA
ATOM      8  C   UNL d   1      45.594 -14.661  43.854  0.00  0.00     0.043 A 
ATOM      9  C   UNL d   1      45.251 -14.645  44.604  0.00  0.00     0.102 A 
ATOM     10  O   UNL d   1      45.498 -17.203  44.951  0.00  0.00    -0.264 OA
ATOM     11  O   UNL d   1      46.644 -16.958  42.336  0.00  0.00    -0.244 OA
ATOM     12  C   UNL d   1      45.680 -13.973  43.424  0.00  0.00     0.004 A 
ATOM     13  C   UNL d   1      44.995 -13.940  44.925  0.00  0.00     0.025 A 
ATOM     14  C   UNL d   1      45.421 -13.251  43.744  0.00  0.00     0.000 A 
ATOM     15  C   UNL d   1      45.078 -13.235  44.494  0.00  0.00     0.002 A 
ENDROOT
BRANCH   2  16
ATOM     16  C   UNL d   1      46.206 -17.888  43.628  0.00  0.00     0.071 A 
ATOM     17  C   UNL d   1      46.235 -18.317  44.329  0.00  0.00     0.018 A 
ATOM     18  C   UNL d   1      46.370 -19.130  44.310  0.00  0.00     0.002 A 
ATOM     19  C   UNL d   1      46.476 -19.511  43.587  0.00  0.00     0.000 A 
ATOM     20  C   UNL d   1      46.449 -19.090  42.885  0.00  0.00     0.002 A 
ATOM     21  C   UNL d   1      46.613 -20.329  43.568  0.00  0.00     0.000 C 
ATOM     22  C   UNL d   1      46.312 -18.273  42.907  0.00  0.00     0.018 A 
ENDBRANCH   2  16
TORSDOF 1
ENDMDL
