MODEL 1
REMARK VINA RESULT:      -3.4      0.000      0.000
REMARK  3 active torsions:
REMARK  status: ('A' for Active; 'I' for Inactive)
REMARK    1  A    between atoms: C_15  and  C_4 
REMARK    2  A    between atoms: C_8  and  S_16 
REMARK    3  A    between atoms: S_16  and  C_15 
ROOT
ATOM      1  N   UNL d   1      33.170  17.902 -23.700  0.00  0.00    -0.133 N 
ATOM      2  C   UNL d   1      33.207  17.673 -22.914  0.00  0.00     0.736 A 
ATOM      3  C   UNL d   1      33.154  18.725 -23.726  0.00  0.00     0.135 A 
ATOM      4  C   UNL d   1      33.180  19.009 -22.952  0.00  0.00     0.129 A 
ATOM      5  N   UNL d   1      33.214  18.352 -22.448  0.00  0.00    -0.058 NA
ATOM      6  C   UNL d   1      33.156  17.341 -24.292  0.00  0.00     0.084 A 
ATOM      7  N   UNL d   1      33.230  16.879 -22.712  0.00  0.00    -0.060 NA
ATOM      8  C   UNL d   1      33.179  16.533 -24.100  0.00  0.00     0.038 A 
ATOM      9  C   UNL d   1      33.216  16.304 -23.314  0.00  0.00     0.101 A 
ATOM     10 BR   UNL d   1      33.116  19.212 -24.419  0.00  0.00    -0.028 Br
ATOM     11  C   UNL d   1      33.118  17.575 -25.093  0.00  0.00     0.020 C 
ATOM     12  C   UNL d   1      33.239  15.478 -23.148  0.00  0.00     0.021 C 
ENDROOT
BRANCH   4  13
ATOM     13  C   UNL d   1      33.174  19.803 -22.736  0.00  0.00     0.059 C 
BRANCH  13  14
ATOM     14  S   UNL d   1      33.064  20.048 -21.957  0.00  0.00    -0.059 SA
BRANCH  14  15
ATOM     15  C   UNL d   1      32.932  20.837 -21.773  0.00  0.00     0.141 A 
ATOM     16  N   UNL d   1      33.133  21.550 -22.147  0.00  0.00    -0.232 NA
ATOM     17  C   UNL d   1      32.856  22.157 -21.710  0.00  0.00     0.088 A 
ATOM     18  C   UNL d   1      32.909  22.967 -21.839  0.00  0.00     0.020 A 
ATOM     19  C   UNL d   1      32.478  21.880 -21.061  0.00  0.00     0.049 A 
ATOM     20  C   UNL d   1      32.571  23.497 -21.296  0.00  0.00     0.002 A 
ATOM     21  C   UNL d   1      32.191  23.222 -20.642  0.00  0.00     0.001 A 
ATOM     22  C   UNL d   1      32.139  22.408 -20.515  0.00  0.00     0.008 A 
ATOM     23  S   UNL d   1      32.523  21.042 -21.095  0.00  0.00    -0.060 SA
ENDBRANCH  14  15
ENDBRANCH  13  14
ENDBRANCH   4  13
TORSDOF 3
ENDMDL
