MODEL 1
REMARK VINA RESULT:     105.8      0.000      0.000
REMARK  6 active torsions:
REMARK  status: ('A' for Active; 'I' for Inactive)
REMARK    1  A    between atoms: C_10  and  N_1 
REMARK    2  A    between atoms: S_8  and  C_2 
REMARK       I    between atoms: N_7  and  C_9 
REMARK    3  A    between atoms: C_13  and  S_8 
REMARK    4  A    between atoms: C_9  and  C_13 
REMARK    5  A    between atoms: C_21  and  N_11 
REMARK    6  A    between atoms: C_25  and  C_21 
ROOT
ATOM      1  N   UNL d   1      59.524  49.080  51.089  0.00  0.00    -0.254 N 
ATOM      2  C   UNL d   1      60.215  48.796  50.750  0.00  0.00     0.182 A 
ATOM      3  C   UNL d   1      59.538  49.379  51.859  0.00  0.00     0.268 A 
ATOM      4  N   UNL d   1      60.918  48.810  51.182  0.00  0.00    -0.222 NA
ATOM      5  C   UNL d   1      60.242  49.392  52.291  0.00  0.00     0.074 A 
ATOM      6  C   UNL d   1      60.933  49.108  51.952  0.00  0.00     0.088 A 
ATOM      7  O   UNL d   1      58.848  49.662  52.198  0.00  0.00    -0.267 OA
ATOM      8  C   UNL d   1      60.248  49.687  53.047  0.00  0.00     0.006 A 
ATOM      9  C   UNL d   1      61.628  49.119  52.369  0.00  0.00     0.019 A 
ATOM     10  C   UNL d   1      60.952  49.701  53.478  0.00  0.00     0.000 A 
ATOM     11  C   UNL d   1      61.643  49.417  53.139  0.00  0.00     0.002 A 
ENDROOT
BRANCH   2  12
ATOM     12  S   UNL d   1      60.215  48.492  49.973  0.00  0.00    -0.044 SA
BRANCH  12  13
ATOM     13  C   UNL d   1      60.454  47.701  49.856  0.00  0.00     0.099 C 
BRANCH  13  14
ATOM     14  C   UNL d   1      61.269  47.523  49.888  0.00  0.00     0.272 C 
ATOM     15  N   UNL d   1      61.512  46.743  49.718  0.00  0.00    -0.269 N 
ATOM     16  C   UNL d   1      62.311  46.579  49.752  0.00  0.00     0.102 A 
ATOM     17  C   UNL d   1      60.964  46.165  49.524  0.00  0.00     0.102 A 
ATOM     18  C   UNL d   1      62.555  45.799  49.581  0.00  0.00     0.100 A 
ATOM     19  N   UNL d   1      62.006  45.221  49.387  0.00  0.00    -0.297 N 
ATOM     20  C   UNL d   1      61.203  45.411  49.360  0.00  0.00     0.100 A 
ATOM     21  O   UNL d   1      61.817  48.100  50.082  0.00  0.00    -0.266 OA
BRANCH  19  22
ATOM     22  C   UNL d   1      62.277  44.439  49.219  0.00  0.00     0.126 C 
BRANCH  22  23
ATOM     23  C   UNL d   1      62.544  43.962  49.813  0.00  0.00     0.253 C 
ATOM     24  O   UNL d   1      62.105  43.298  50.033  0.00  0.00    -0.281 OA
ENDBRANCH  22  23
ENDBRANCH  19  22
ENDBRANCH  13  14
ENDBRANCH  12  13
ENDBRANCH   2  12
BRANCH   1  25
ATOM     25  C   UNL d   1      58.838  49.065  50.664  0.00  0.00     0.069 A 
ATOM     26  C   UNL d   1      58.343  48.397  50.710  0.00  0.00     0.018 A 
ATOM     27  C   UNL d   1      57.640  48.377  50.276  0.00  0.00     0.002 A 
ATOM     28  C   UNL d   1      57.437  49.021  49.802  0.00  0.00     0.000 A 
ATOM     29  C   UNL d   1      57.924  49.678  49.757  0.00  0.00     0.002 A 
ATOM     30  C   UNL d   1      58.629  49.702  50.190  0.00  0.00     0.018 A 
ENDBRANCH   1  25
TORSDOF 6
ENDMDL
MODEL 2
REMARK VINA RESULT:     107.9      2.974      4.967
REMARK  6 active torsions:
REMARK  status: ('A' for Active; 'I' for Inactive)
REMARK    1  A    between atoms: C_10  and  N_1 
REMARK    2  A    between atoms: S_8  and  C_2 
REMARK       I    between atoms: N_7  and  C_9 
REMARK    3  A    between atoms: C_13  and  S_8 
REMARK    4  A    between atoms: C_9  and  C_13 
REMARK    5  A    between atoms: C_21  and  N_11 
REMARK    6  A    between atoms: C_25  and  C_21 
ROOT
ATOM      1  N   UNL d   1      59.001  49.466  51.518  0.00  0.00    -0.254 N 
ATOM      2  C   UNL d   1      58.724  49.557  52.285  0.00  0.00     0.182 A 
ATOM      3  C   UNL d   1      59.807  49.348  51.384  0.00  0.00     0.268 A 
ATOM      4  N   UNL d   1      59.255  49.531  52.917  0.00  0.00    -0.222 NA
ATOM      5  C   UNL d   1      60.337  49.322  52.017  0.00  0.00     0.074 A 
ATOM      6  C   UNL d   1      60.061  49.413  52.784  0.00  0.00     0.088 A 
ATOM      7  O   UNL d   1      60.083  49.257  50.619  0.00  0.00    -0.267 OA
ATOM      8  C   UNL d   1      61.128  49.206  51.877  0.00  0.00     0.006 A 
ATOM      9  C   UNL d   1      60.576  49.388  53.410  0.00  0.00     0.019 A 
ATOM     10  C   UNL d   1      61.658  49.179  52.510  0.00  0.00     0.000 A 
ATOM     11  C   UNL d   1      61.382  49.271  53.277  0.00  0.00     0.002 A 
ENDROOT
BRANCH   2  12
ATOM     12  S   UNL d   1      57.912  49.677  52.434  0.00  0.00    -0.044 SA
BRANCH  12  13
ATOM     13  C   UNL d   1      57.626  49.541  53.206  0.00  0.00     0.099 C 
BRANCH  13  14
ATOM     14  C   UNL d   1      56.939  49.076  53.300  0.00  0.00     0.272 C 
ATOM     15  N   UNL d   1      56.824  48.678  54.024  0.00  0.00    -0.269 N 
ATOM     16  C   UNL d   1      56.149  48.225  54.105  0.00  0.00     0.102 A 
ATOM     17  C   UNL d   1      57.373  48.742  54.630  0.00  0.00     0.102 A 
ATOM     18  C   UNL d   1      56.034  47.827  54.830  0.00  0.00     0.100 A 
ATOM     19  N   UNL d   1      56.582  47.892  55.436  0.00  0.00    -0.297 N 
ATOM     20  C   UNL d   1      57.258  48.355  55.330  0.00  0.00     0.100 A 
ATOM     21  O   UNL d   1      56.391  49.012  52.694  0.00  0.00    -0.266 OA
BRANCH  19  22
ATOM     22  C   UNL d   1      56.443  47.479  56.160  0.00  0.00     0.126 C 
BRANCH  22  23
ATOM     23  C   UNL d   1      56.507  46.675  56.191  0.00  0.00     0.253 C 
ATOM     24  O   UNL d   1      57.244  46.328  56.327  0.00  0.00    -0.281 OA
ENDBRANCH  22  23
ENDBRANCH  19  22
ENDBRANCH  13  14
ENDBRANCH  12  13
ENDBRANCH   2  12
BRANCH   1  25
ATOM     25  C   UNL d   1      58.478  49.492  50.902  0.00  0.00     0.069 A 
ATOM     26  C   UNL d   1      57.680  49.675  51.050  0.00  0.00     0.018 A 
ATOM     27  C   UNL d   1      57.143  49.703  50.424  0.00  0.00     0.002 A 
ATOM     28  C   UNL d   1      57.406  49.549  49.657  0.00  0.00     0.000 A 
ATOM     29  C   UNL d   1      58.191  49.369  49.511  0.00  0.00     0.002 A 
ATOM     30  C   UNL d   1      58.733  49.340  50.136  0.00  0.00     0.018 A 
ENDBRANCH   1  25
TORSDOF 6
ENDMDL
