MODEL 1
REMARK VINA RESULT:     -10.7      0.000      0.000
REMARK  2 active torsions:
REMARK  status: ('A' for Active; 'I' for Inactive)
REMARK    1  A    between atoms: C_11  and  C_2 
REMARK    2  A    between atoms: C_9  and  C_6 
ROOT
ATOM      1  C   UNL d   1      53.064  32.870  53.495  0.00  0.00     0.045 A 
ATOM      2  C   UNL d   1      52.433  32.779  52.984  0.00  0.00     0.127 A 
ATOM      3  C   UNL d   1      53.263  33.476  54.019  0.00  0.00     0.010 A 
ATOM      4  O   UNL d   1      52.516  32.064  52.594  0.00  0.00    -0.211 OA
ATOM      5  N   UNL d   1      53.208  31.702  52.865  0.00  0.00    -0.126 NA
ATOM      6  C   UNL d   1      53.948  33.416  54.474  0.00  0.00     0.065 A 
ATOM      7  C   UNL d   1      53.550  32.205  53.426  0.00  0.00     0.110 A 
ATOM      8  C   UNL d   1      54.435  32.750  54.406  0.00  0.00     0.008 A 
ATOM      9  C   UNL d   1      54.235  32.145  53.882  0.00  0.00     0.022 A 
ENDROOT
BRANCH   2  10
ATOM     10  C   UNL d   1      51.809  33.315  52.871  0.00  0.00     0.025 A 
ATOM     11  C   UNL d   1      51.121  33.235  53.322  0.00  0.00     0.002 A 
ATOM     12  C   UNL d   1      50.494  33.765  53.216  0.00  0.00     0.000 A 
ATOM     13  C   UNL d   1      50.559  34.374  52.658  0.00  0.00     0.000 A 
ATOM     14  C   UNL d   1      51.251  34.450  52.209  0.00  0.00     0.000 A 
ATOM     15  C   UNL d   1      51.874  33.921  52.316  0.00  0.00     0.002 A 
ENDBRANCH   2  10
BRANCH   6  16
ATOM     16  C   UNL d   1      54.148  34.021  54.998  0.00  0.00     0.211 C 
ATOM     17  O   UNL d   1      53.557  34.484  55.346  0.00  0.00    -0.644 OA
ATOM     18  O   UNL d   1      54.947  34.162  55.172  0.00  0.00    -0.644 OA
ENDBRANCH   6  16
TORSDOF 2
ENDMDL
MODEL 2
REMARK VINA RESULT:     -10.6      2.054      3.508
REMARK  2 active torsions:
REMARK  status: ('A' for Active; 'I' for Inactive)
REMARK    1  A    between atoms: C_11  and  C_2 
REMARK    2  A    between atoms: C_9  and  C_6 
ROOT
ATOM      1  C   UNL d   1      53.245  31.582  53.447  0.00  0.00     0.045 A 
ATOM      2  C   UNL d   1      53.410  32.381  53.488  0.00  0.00     0.127 A 
ATOM      3  C   UNL d   1      53.519  30.941  53.888  0.00  0.00     0.010 A 
ATOM      4  O   UNL d   1      52.976  32.766  52.911  0.00  0.00    -0.211 OA
ATOM      5  N   UNL d   1      52.533  32.201  52.502  0.00  0.00    -0.126 NA
ATOM      6  C   UNL d   1      53.250  30.180  53.718  0.00  0.00     0.065 A 
ATOM      7  C   UNL d   1      52.700  31.462  52.837  0.00  0.00     0.110 A 
ATOM      8  C   UNL d   1      52.705  30.060  53.108  0.00  0.00     0.008 A 
ATOM      9  C   UNL d   1      52.431  30.701  52.667  0.00  0.00     0.022 A 
ENDROOT
BRANCH   2  10
ATOM     10  C   UNL d   1      53.929  32.750  54.022  0.00  0.00     0.025 A 
ATOM     11  C   UNL d   1      54.695  32.938  53.776  0.00  0.00     0.002 A 
ATOM     12  C   UNL d   1      55.219  33.305  54.301  0.00  0.00     0.000 A 
ATOM     13  C   UNL d   1      54.971  33.484  55.072  0.00  0.00     0.000 A 
ATOM     14  C   UNL d   1      54.202  33.294  55.313  0.00  0.00     0.000 A 
ATOM     15  C   UNL d   1      53.683  32.927  54.788  0.00  0.00     0.002 A 
ENDBRANCH   2  10
BRANCH   6  16
ATOM     16  C   UNL d   1      53.524  29.539  54.159  0.00  0.00     0.211 C 
ATOM     17  O   UNL d   1      54.264  29.207  53.997  0.00  0.00    -0.644 OA
ATOM     18  O   UNL d   1      53.051  29.231  54.766  0.00  0.00    -0.644 OA
ENDBRANCH   6  16
TORSDOF 2
ENDMDL
MODEL 3
REMARK VINA RESULT:     -10.5      1.377      2.004
REMARK  2 active torsions:
REMARK  status: ('A' for Active; 'I' for Inactive)
REMARK    1  A    between atoms: C_11  and  C_2 
REMARK    2  A    between atoms: C_9  and  C_6 
ROOT
ATOM      1  C   UNL d   1      53.141  33.851  54.126  0.00  0.00     0.045 A 
ATOM      2  C   UNL d   1      52.616  34.422  53.872  0.00  0.00     0.127 A 
ATOM      3  C   UNL d   1      53.229  33.056  53.924  0.00  0.00     0.010 A 
ATOM      4  O   UNL d   1      52.784  35.122  54.261  0.00  0.00    -0.211 OA
ATOM      5  N   UNL d   1      53.424  34.988  54.766  0.00  0.00    -0.126 NA
ATOM      6  C   UNL d   1      53.822  32.605  54.278  0.00  0.00     0.065 A 
ATOM      7  C   UNL d   1      53.647  34.196  54.682  0.00  0.00     0.110 A 
ATOM      8  C   UNL d   1      54.328  32.950  54.835  0.00  0.00     0.008 A 
ATOM      9  C   UNL d   1      54.240  33.745  55.037  0.00  0.00     0.022 A 
ENDROOT
BRANCH   2  10
ATOM     10  C   UNL d   1      52.010  34.320  53.313  0.00  0.00     0.025 A 
ATOM     11  C   UNL d   1      51.253  34.111  53.572  0.00  0.00     0.002 A 
ATOM     12  C   UNL d   1      50.643  34.007  53.021  0.00  0.00     0.000 A 
ATOM     13  C   UNL d   1      50.795  34.112  52.213  0.00  0.00     0.000 A 
ATOM     14  C   UNL d   1      51.555  34.321  51.960  0.00  0.00     0.000 A 
ATOM     15  C   UNL d   1      52.161  34.425  52.509  0.00  0.00     0.002 A 
ENDBRANCH   2  10
BRANCH   6  16
ATOM     16  C   UNL d   1      53.910  31.810  54.077  0.00  0.00     0.211 C 
ATOM     17  O   UNL d   1      53.562  31.221  54.541  0.00  0.00    -0.644 OA
ATOM     18  O   UNL d   1      54.351  31.608  53.404  0.00  0.00    -0.644 OA
ENDBRANCH   6  16
TORSDOF 2
ENDMDL
MODEL 4
REMARK VINA RESULT:     -10.3      1.383      3.247
REMARK  2 active torsions:
REMARK  status: ('A' for Active; 'I' for Inactive)
REMARK    1  A    between atoms: C_11  and  C_2 
REMARK    2  A    between atoms: C_9  and  C_6 
ROOT
ATOM      1  C   UNL d   1      53.151  32.396  53.568  0.00  0.00     0.045 A 
ATOM      2  C   UNL d   1      53.848  32.235  53.962  0.00  0.00     0.127 A 
ATOM      3  C   UNL d   1      52.713  33.090  53.487  0.00  0.00     0.010 A 
ATOM      4  O   UNL d   1      54.030  31.444  53.855  0.00  0.00    -0.211 OA
ATOM      5  N   UNL d   1      53.440  31.105  53.387  0.00  0.00    -0.126 NA
ATOM      6  C   UNL d   1      52.016  33.088  53.047  0.00  0.00     0.065 A 
ATOM      7  C   UNL d   1      52.891  31.698  53.208  0.00  0.00     0.110 A 
ATOM      8  C   UNL d   1      51.756  32.391  52.687  0.00  0.00     0.008 A 
ATOM      9  C   UNL d   1      52.194  31.696  52.767  0.00  0.00     0.022 A 
ENDROOT
BRANCH   2  10
ATOM     10  C   UNL d   1      54.302  32.775  54.400  0.00  0.00     0.025 A 
ATOM     11  C   UNL d   1      54.902  33.199  54.022  0.00  0.00     0.002 A 
ATOM     12  C   UNL d   1      55.359  33.739  54.452  0.00  0.00     0.000 A 
ATOM     13  C   UNL d   1      55.213  33.852  55.260  0.00  0.00     0.000 A 
ATOM     14  C   UNL d   1      54.610  33.424  55.634  0.00  0.00     0.000 A 
ATOM     15  C   UNL d   1      54.157  32.887  55.204  0.00  0.00     0.002 A 
ENDBRANCH   2  10
BRANCH   6  16
ATOM     16  C   UNL d   1      51.578  33.783  52.966  0.00  0.00     0.211 C 
ATOM     17  O   UNL d   1      51.833  34.379  52.453  0.00  0.00    -0.644 OA
ATOM     18  O   UNL d   1      50.880  33.877  53.404  0.00  0.00    -0.644 OA
ENDBRANCH   6  16
TORSDOF 2
ENDMDL
MODEL 5
REMARK VINA RESULT:      -9.8      1.380      2.587
REMARK  2 active torsions:
REMARK  status: ('A' for Active; 'I' for Inactive)
REMARK    1  A    between atoms: C_11  and  C_2 
REMARK    2  A    between atoms: C_9  and  C_6 
ROOT
ATOM      1  C   UNL d   1      53.176  32.624  53.494  0.00  0.00     0.045 A 
ATOM      2  C   UNL d   1      52.852  32.019  53.051  0.00  0.00     0.127 A 
ATOM      3  C   UNL d   1      53.682  32.618  54.145  0.00  0.00     0.010 A 
ATOM      4  O   UNL d   1      52.385  32.347  52.465  0.00  0.00    -0.211 OA
ATOM      5  N   UNL d   1      52.418  33.170  52.540  0.00  0.00    -0.126 NA
ATOM      6  C   UNL d   1      53.924  33.330  54.485  0.00  0.00     0.065 A 
ATOM      7  C   UNL d   1      52.911  33.343  53.182  0.00  0.00     0.110 A 
ATOM      8  C   UNL d   1      53.659  34.049  54.173  0.00  0.00     0.008 A 
ATOM      9  C   UNL d   1      53.153  34.055  53.521  0.00  0.00     0.022 A 
ENDROOT
BRANCH   2  10
ATOM     10  C   UNL d   1      52.969  31.205  53.169  0.00  0.00     0.025 A 
ATOM     11  C   UNL d   1      52.356  30.751  53.488  0.00  0.00     0.002 A 
ATOM     12  C   UNL d   1      52.465  29.939  53.608  0.00  0.00     0.000 A 
ATOM     13  C   UNL d   1      53.188  29.586  53.409  0.00  0.00     0.000 A 
ATOM     14  C   UNL d   1      53.799  30.046  53.091  0.00  0.00     0.000 A 
ATOM     15  C   UNL d   1      53.688  30.854  52.971  0.00  0.00     0.002 A 
ENDBRANCH   2  10
BRANCH   6  16
ATOM     16  C   UNL d   1      54.430  33.324  55.136  0.00  0.00     0.211 C 
ATOM     17  O   UNL d   1      54.279  32.824  55.777  0.00  0.00    -0.644 OA
ATOM     18  O   UNL d   1      55.091  33.825  55.142  0.00  0.00    -0.644 OA
ENDBRANCH   6  16
TORSDOF 2
ENDMDL
MODEL 6
REMARK VINA RESULT:      -9.6      1.622      3.162
REMARK  2 active torsions:
REMARK  status: ('A' for Active; 'I' for Inactive)
REMARK    1  A    between atoms: C_11  and  C_2 
REMARK    2  A    between atoms: C_9  and  C_6 
ROOT
ATOM      1  C   UNL d   1      53.195  32.743  53.520  0.00  0.00     0.045 A 
ATOM      2  C   UNL d   1      53.662  32.080  53.611  0.00  0.00     0.127 A 
ATOM      3  C   UNL d   1      52.398  32.831  53.324  0.00  0.00     0.010 A 
ATOM      4  O   UNL d   1      54.418  32.320  53.810  0.00  0.00    -0.211 OA
ATOM      5  N   UNL d   1      54.425  33.146  53.844  0.00  0.00    -0.126 NA
ATOM      6  C   UNL d   1      52.069  33.586  53.271  0.00  0.00     0.065 A 
ATOM      7  C   UNL d   1      53.662  33.410  53.663  0.00  0.00     0.110 A 
ATOM      8  C   UNL d   1      52.536  34.253  53.415  0.00  0.00     0.008 A 
ATOM      9  C   UNL d   1      53.333  34.164  53.611  0.00  0.00     0.022 A 
ENDROOT
BRANCH   2  10
ATOM     10  C   UNL d   1      53.420  31.290  53.519  0.00  0.00     0.025 A 
ATOM     11  C   UNL d   1      53.348  30.810  54.188  0.00  0.00     0.002 A 
ATOM     12  C   UNL d   1      53.108  30.022  54.105  0.00  0.00     0.000 A 
ATOM     13  C   UNL d   1      52.940  29.719  53.352  0.00  0.00     0.000 A 
ATOM     14  C   UNL d   1      53.014  30.205  52.685  0.00  0.00     0.000 A 
ATOM     15  C   UNL d   1      53.254  30.989  52.770  0.00  0.00     0.002 A 
ENDBRANCH   2  10
BRANCH   6  16
ATOM     16  C   UNL d   1      51.273  33.674  53.075  0.00  0.00     0.211 C 
ATOM     17  O   UNL d   1      50.685  33.360  53.564  0.00  0.00    -0.644 OA
ATOM     18  O   UNL d   1      51.067  34.081  52.382  0.00  0.00    -0.644 OA
ENDBRANCH   6  16
TORSDOF 2
ENDMDL
