MODEL 1
REMARK VINA RESULT:      38.4      0.000      0.000
REMARK  6 active torsions:
REMARK  status: ('A' for Active; 'I' for Inactive)
REMARK    1  A    between atoms: S_6  and  C_1 
REMARK    2  A    between atoms: C_15  and  S_6 
REMARK    3  A    between atoms: C_8  and  O_11 
REMARK    4  A    between atoms: C_10  and  C_15 
REMARK    5  A    between atoms: C_16  and  C_10 
REMARK    6  A    between atoms: O_11  and  C_16 
ROOT
ATOM      1  C   UNL d   1     -49.828  27.298  34.014  0.00  0.00     0.040 C 
ENDROOT
BRANCH   1   2
ATOM      2  C   UNL d   1     -49.029  27.393  34.196  0.00  0.00     0.034 C 
BRANCH   2   3
ATOM      3  C   UNL d   1     -48.792  28.013  34.690  0.00  0.00     0.123 C 
BRANCH   3   4
ATOM      4  O   UNL d   1     -48.166  28.496  34.452  0.00  0.00    -0.305 OA
BRANCH   4   5
ATOM      5  C   UNL d   1     -47.913  29.111  34.936  0.00  0.00     0.100 A 
ATOM      6  C   UNL d   1     -47.989  29.893  34.684  0.00  0.00     0.025 A 
ATOM      7  C   UNL d   1     -47.731  30.512  35.179  0.00  0.00     0.002 A 
ATOM      8  C   UNL d   1     -47.807  31.293  34.927  0.00  0.00     0.000 C 
ATOM      9  C   UNL d   1     -47.402  30.342  35.916  0.00  0.00     0.000 A 
ATOM     10  C   UNL d   1     -47.328  29.550  36.163  0.00  0.00     0.002 A 
ATOM     11  C   UNL d   1     -47.583  28.933  35.675  0.00  0.00     0.025 A 
ENDBRANCH   4   5
ENDBRANCH   3   4
ENDBRANCH   2   3
ENDBRANCH   1   2
BRANCH   1  12
ATOM     12  S   UNL d   1     -50.043  26.929  33.308  0.00  0.00    -0.048 SA
BRANCH  12  13
ATOM     13  C   UNL d   1     -50.567  26.294  33.313  0.00  0.00     0.194 A 
ATOM     14  N   UNL d   1     -51.396  26.335  33.309  0.00  0.00    -0.220 NA
ATOM     15  C   UNL d   1     -51.692  25.559  33.317  0.00  0.00     0.101 A 
ATOM     16  C   UNL d   1     -52.466  25.269  33.316  0.00  0.00     0.021 A 
ATOM     17  C   UNL d   1     -51.050  25.029  33.326  0.00  0.00     0.101 A 
ATOM     18  C   UNL d   1     -52.602  24.457  33.326  0.00  0.00     0.002 A 
ATOM     19  C   UNL d   1     -51.966  23.932  33.335  0.00  0.00     0.002 A 
ATOM     20  C   UNL d   1     -51.194  24.220  33.335  0.00  0.00     0.021 A 
ATOM     21  N   UNL d   1     -50.349  25.486  33.324  0.00  0.00    -0.220 NA
ENDBRANCH  12  13
ENDBRANCH   1  12
TORSDOF 6
ENDMDL
MODEL 2
REMARK VINA RESULT:      40.9      0.373      1.174
REMARK  6 active torsions:
REMARK  status: ('A' for Active; 'I' for Inactive)
REMARK    1  A    between atoms: S_6  and  C_1 
REMARK    2  A    between atoms: C_15  and  S_6 
REMARK    3  A    between atoms: C_8  and  O_11 
REMARK    4  A    between atoms: C_10  and  C_15 
REMARK    5  A    between atoms: C_16  and  C_10 
REMARK    6  A    between atoms: O_11  and  C_16 
ROOT
ATOM      1  C   UNL d   1     -49.983  27.567  34.024  0.00  0.00     0.040 C 
ENDROOT
BRANCH   1   2
ATOM      2  C   UNL d   1     -49.283  27.989  33.925  0.00  0.00     0.034 C 
BRANCH   2   3
ATOM      3  C   UNL d   1     -48.820  28.178  34.585  0.00  0.00     0.123 C 
BRANCH   3   4
ATOM      4  O   UNL d   1     -48.086  28.535  34.468  0.00  0.00    -0.305 OA
BRANCH   4   5
ATOM      5  C   UNL d   1     -47.885  29.213  34.888  0.00  0.00     0.100 A 
ATOM      6  C   UNL d   1     -47.500  29.150  35.615  0.00  0.00     0.025 A 
ATOM      7  C   UNL d   1     -47.299  29.841  36.036  0.00  0.00     0.002 A 
ATOM      8  C   UNL d   1     -46.914  29.778  36.761  0.00  0.00     0.000 C 
ATOM      9  C   UNL d   1     -47.487  30.583  35.726  0.00  0.00     0.000 A 
ATOM     10  C   UNL d   1     -47.876  30.637  34.992  0.00  0.00     0.002 A 
ATOM     11  C   UNL d   1     -48.077  29.955  34.571  0.00  0.00     0.025 A 
ENDBRANCH   4   5
ENDBRANCH   3   4
ENDBRANCH   2   3
ENDBRANCH   1   2
BRANCH   1  12
ATOM     12  S   UNL d   1     -50.383  27.281  33.362  0.00  0.00    -0.048 SA
BRANCH  12  13
ATOM     13  C   UNL d   1     -50.672  26.509  33.351  0.00  0.00     0.194 A 
ATOM     14  N   UNL d   1     -50.223  25.811  33.340  0.00  0.00    -0.220 NA
ATOM     15  C   UNL d   1     -50.748  25.167  33.331  0.00  0.00     0.101 A 
ATOM     16  C   UNL d   1     -50.613  24.352  33.319  0.00  0.00     0.021 A 
ATOM     17  C   UNL d   1     -51.528  25.460  33.337  0.00  0.00     0.101 A 
ATOM     18  C   UNL d   1     -51.249  23.829  33.312  0.00  0.00     0.002 A 
ATOM     19  C   UNL d   1     -52.022  24.119  33.318  0.00  0.00     0.002 A 
ATOM     20  C   UNL d   1     -52.158  24.931  33.330  0.00  0.00     0.021 A 
ATOM     21  N   UNL d   1     -51.482  26.295  33.349  0.00  0.00    -0.220 NA
ENDBRANCH  12  13
ENDBRANCH   1  12
TORSDOF 6
ENDMDL
