MODEL 1
REMARK VINA RESULT:       4.0      0.000      0.000
REMARK  4 active torsions:
REMARK  status: ('A' for Active; 'I' for Inactive)
REMARK    1  A    between atoms: C_10  and  N_2 
REMARK    2  A    between atoms: C_7  and  N_4 
REMARK    3  A    between atoms: C_11  and  C_7 
REMARK    4  A    between atoms: O_22  and  C_18 
ROOT
ATOM      1  S   UNL d   1     -41.553-121.507 -52.161  0.00  0.00     0.276 S 
ATOM      2  N   UNL d   1     -41.698-122.284 -52.405  0.00  0.00    -0.184 N 
ATOM      3  C   UNL d   1     -41.699-122.898 -51.843  0.00  0.00     0.348 A 
ATOM      4  N   UNL d   1     -41.556-122.724 -51.047  0.00  0.00    -0.258 N 
ATOM      5  C   UNL d   1     -41.410-121.335 -51.367  0.00  0.00     0.120 A 
ATOM      6  C   UNL d   1     -41.412-121.949 -50.805  0.00  0.00     0.081 A 
ATOM      7  O   UNL d   1     -41.444-120.678 -52.211  0.00  0.00    -0.199 OA
ATOM      8  O   UNL d   1     -41.679-121.535 -52.982  0.00  0.00    -0.199 OA
ATOM      9  O   UNL d   1     -41.845-123.688 -52.081  0.00  0.00    -0.245 OA
ATOM     10  C   UNL d   1     -41.267-120.563 -51.130  0.00  0.00     0.014 A 
ATOM     11  C   UNL d   1     -41.270-121.786 -50.010  0.00  0.00     0.018 A 
ATOM     12  C   UNL d   1     -41.124-120.389 -50.333  0.00  0.00     0.001 A 
ATOM     13  C   UNL d   1     -41.125-121.002 -49.771  0.00  0.00     0.002 A 
ENDROOT
BRANCH   2  14
ATOM     14  C   UNL d   1     -41.839-122.454 -53.195  0.00  0.00     0.079 A 
ATOM     15  C   UNL d   1     -41.234-122.745 -53.678  0.00  0.00     0.020 A 
ATOM     16  C   UNL d   1     -41.374-122.915 -54.472  0.00  0.00     0.026 A 
ATOM     17  C   UNL d   1     -42.131-122.794 -54.792  0.00  0.00     0.094 A 
ATOM     18  C   UNL d   1     -42.741-122.503 -54.314  0.00  0.00     0.026 A 
ATOM     19  C   UNL d   1     -42.597-122.332 -53.515  0.00  0.00     0.020 A 
BRANCH  17  20
ATOM     20  O   UNL d   1     -42.281-122.965 -55.599  0.00  0.00    -0.328 OA
ATOM     21  C   UNL d   1     -42.374-122.354 -56.136  0.00  0.00     0.181 C 
ENDBRANCH  17  20
ENDBRANCH   2  14
BRANCH   4  22
ATOM     22  C   UNL d   1     -41.558-123.337 -50.486  0.00  0.00     0.087 C 
BRANCH  22  23
ATOM     23  C   UNL d   1     -42.229-123.479 -50.035  0.00  0.00     0.045 A 
ATOM     24  C   UNL d   1     -42.145-123.673 -49.244  0.00  0.00     0.141 A 
ATOM     25  F   UNL d   1     -41.405-123.726 -48.902  0.00  0.00    -0.204 F 
ATOM     26  C   UNL d   1     -42.821-123.815 -48.795  0.00  0.00     0.030 A 
ATOM     27  C   UNL d   1     -43.565-123.762 -49.137  0.00  0.00     0.002 A 
ATOM     28  C   UNL d   1     -43.638-123.567 -49.929  0.00  0.00     0.000 A 
ATOM     29  C   UNL d   1     -42.969-123.426 -50.379  0.00  0.00     0.004 A 
ENDBRANCH  22  23
ENDBRANCH   4  22
TORSDOF 4
ENDMDL
