MODEL 1
REMARK VINA RESULT:      45.6      0.000      0.000
REMARK  3 active torsions:
REMARK  status: ('A' for Active; 'I' for Inactive)
REMARK    1  A    between atoms: C_5  and  N_1 
REMARK    2  A    between atoms: C_4  and  C_5 
REMARK       I    between atoms: N_6  and  C_4 
REMARK    3  A    between atoms: C_12  and  N_6 
ROOT
ATOM      1  C   UNL d   1     -56.227 -99.851 -43.983  0.00  0.00     0.297 C 
ATOM      2  N   UNL d   1     -55.494-100.040 -43.628  0.00  0.00    -0.207 NA
ATOM      3  O   UNL d   1     -56.803-100.448 -43.943  0.00  0.00    -0.264 OA
ENDROOT
BRANCH   1   4
ATOM      4  C   UNL d   1     -56.406 -99.121 -44.361  0.00  0.00     0.148 C 
BRANCH   4   5
ATOM      5  N   UNL d   1     -57.123 -98.994 -44.701  0.00  0.00    -0.236 N 
ATOM      6  C   UNL d   1     -57.871 -98.843 -44.319  0.00  0.00     0.267 A 
ATOM      7  C   UNL d   1     -58.405 -98.758 -44.904  0.00  0.00     0.066 A 
ATOM      8  O   UNL d   1     -57.940 -98.807 -43.446  0.00  0.00    -0.267 OA
ATOM      9  C   UNL d   1     -58.053 -98.844 -45.623  0.00  0.00     0.066 A 
ATOM     10  C   UNL d   1     -57.279 -98.987 -45.514  0.00  0.00     0.267 A 
ATOM     11  O   UNL d   1     -56.686 -99.114 -46.053  0.00  0.00    -0.267 OA
ENDBRANCH   4   5
ENDBRANCH   1   4
BRANCH   2  12
ATOM     12  C   UNL d   1     -55.323-100.721 -43.273  0.00  0.00     0.085 A 
ATOM     13  C   UNL d   1     -55.183-101.446 -43.662  0.00  0.00     0.020 A 
ATOM     14  C   UNL d   1     -55.012-102.129 -43.308  0.00  0.00     0.008 A 
ATOM     15  C   UNL d   1     -54.963-102.148 -42.484  0.00  0.00     0.035 A 
ATOM     16  C   UNL d   1     -55.091-101.466 -42.042  0.00  0.00     0.008 A 
ATOM     17 BR   UNL d   1     -54.780-102.873 -42.077  0.00  0.00    -0.049 Br
ATOM     18  C   UNL d   1     -55.272-100.751 -42.444  0.00  0.00     0.020 A 
ENDBRANCH   2  12
TORSDOF 3
ENDMDL
MODEL 2
REMARK VINA RESULT:      46.6      3.105      4.697
REMARK  3 active torsions:
REMARK  status: ('A' for Active; 'I' for Inactive)
REMARK    1  A    between atoms: C_5  and  N_1 
REMARK    2  A    between atoms: C_4  and  C_5 
REMARK       I    between atoms: N_6  and  C_4 
REMARK    3  A    between atoms: C_12  and  N_6 
ROOT
ATOM      1  C   UNL d   1     -55.342-102.303 -41.406  0.00  0.00     0.297 C 
ATOM      2  N   UNL d   1     -54.799-101.780 -41.767  0.00  0.00    -0.207 NA
ATOM      3  O   UNL d   1     -55.894-102.649 -41.920  0.00  0.00    -0.264 OA
ENDROOT
BRANCH   1   4
ATOM      4  C   UNL d   1     -55.358-102.490 -40.585  0.00  0.00     0.148 C 
BRANCH   4   5
ATOM      5  N   UNL d   1     -55.109-101.960 -40.034  0.00  0.00    -0.236 N 
ATOM      6  C   UNL d   1     -54.958-101.126 -40.132  0.00  0.00     0.267 A 
ATOM      7  C   UNL d   1     -54.725-100.859 -39.419  0.00  0.00     0.066 A 
ATOM      8  O   UNL d   1     -55.067-100.728 -40.905  0.00  0.00    -0.267 OA
ATOM      9  C   UNL d   1     -54.717-101.457 -38.881  0.00  0.00     0.066 A 
ATOM     10  C   UNL d   1     -54.947-102.128 -39.241  0.00  0.00     0.267 A 
ATOM     11  O   UNL d   1     -55.032-102.880 -38.947  0.00  0.00    -0.267 OA
ENDBRANCH   4   5
ENDBRANCH   1   4
BRANCH   2  12
ATOM     12  C   UNL d   1     -54.780-101.603 -42.534  0.00  0.00     0.085 A 
ATOM     13  C   UNL d   1     -54.804-102.157 -43.158  0.00  0.00     0.020 A 
ATOM     14  C   UNL d   1     -54.785-101.981 -43.926  0.00  0.00     0.008 A 
ATOM     15  C   UNL d   1     -54.739-101.188 -44.151  0.00  0.00     0.035 A 
ATOM     16  C   UNL d   1     -54.713-100.593 -43.582  0.00  0.00     0.008 A 
ATOM     17 BR   UNL d   1     -54.718-100.971 -44.973  0.00  0.00    -0.049 Br
ATOM     18  C   UNL d   1     -54.734-100.808 -42.770  0.00  0.00     0.020 A 
ENDBRANCH   2  12
TORSDOF 3
ENDMDL
