MODEL 1
REMARK VINA RESULT:      25.0      0.000      0.000
REMARK  4 active torsions:
REMARK  status: ('A' for Active; 'I' for Inactive)
REMARK    1  A    between atoms: C_3  and  S_1 
REMARK       I    between atoms: C_2  and  N_6 
REMARK    2  A    between atoms: C_11  and  C_2 
REMARK    3  A    between atoms: N_6  and  C_12 
REMARK    4  A    between atoms: C_15  and  C_11 
ROOT
ATOM      1  C   UNL d   1      13.318  12.482  -4.730  0.00  0.00     0.107 A 
ATOM      2  C   UNL d   1      13.349  11.783  -4.300  0.00  0.00     0.015 A 
ATOM      3  C   UNL d   1      13.360  13.209  -4.341  0.00  0.00     0.015 A 
ATOM      4  C   UNL d   1      13.465  12.528  -3.090  0.00  0.00     0.085 A 
ATOM      5  C   UNL d   1      13.434  13.232  -3.520  0.00  0.00     0.020 A 
ATOM      6  C   UNL d   1      13.423  11.806  -3.479  0.00  0.00     0.020 A 
ENDROOT
BRANCH   4   7
ATOM      7  N   UNL d   1      13.539  12.551  -2.268  0.00  0.00    -0.208 NA
ATOM      8  C   UNL d   1      14.285  12.496  -1.920  0.00  0.00     0.279 C 
ATOM      9  O   UNL d   1      14.955  12.417  -2.392  0.00  0.00    -0.265 OA
BRANCH   8  10
ATOM     10  C   UNL d   1      14.359  12.519  -1.093  0.00  0.00     0.062 C 
BRANCH  10  11
ATOM     11  C   UNL d   1      14.865  13.063  -0.733  0.00  0.00     0.005 A 
ATOM     12  C   UNL d   1      14.570  13.803  -0.518  0.00  0.00     0.000 A 
ATOM     13  C   UNL d   1      15.076  14.350  -0.158  0.00  0.00     0.000 A 
ATOM     14  C   UNL d   1      15.869  14.156  -0.015  0.00  0.00     0.000 A 
ATOM     15  C   UNL d   1      16.155  13.414  -0.233  0.00  0.00     0.000 A 
ATOM     16  C   UNL d   1      15.658  12.868  -0.590  0.00  0.00     0.000 A 
ENDBRANCH  10  11
ENDBRANCH   8  10
ENDBRANCH   4   7
BRANCH   1  17
ATOM     17  S   UNL d   1      13.244  12.459  -5.552  0.00  0.00     0.302 S 
ATOM     18  O   UNL d   1      12.779  11.779  -5.491  0.00  0.00    -0.197 OA
ATOM     19  O   UNL d   1      13.708  13.139  -5.612  0.00  0.00    -0.197 OA
ATOM     20  N   UNL d   1      13.170  12.436  -6.374  0.00  0.00    -0.043 N 
ENDBRANCH   1  17
TORSDOF 4
ENDMDL
