MODEL 1
REMARK VINA RESULT:      61.5      0.000      0.000
REMARK  7 active torsions:
REMARK  status: ('A' for Active; 'I' for Inactive)
REMARK    1  A    between atoms: N_9  and  C_1 
REMARK    2  A    between atoms: C_10  and  C_2 
REMARK    3  A    between atoms: C_5  and  S_14 
REMARK       I    between atoms: C_13  and  N_9 
REMARK    4  A    between atoms: O_18  and  C_10 
REMARK    5  A    between atoms: C_17  and  C_13 
REMARK    6  A    between atoms: S_14  and  C_17 
REMARK    7  A    between atoms: C_23  and  O_18 
ROOT
ATOM      1  N   UNL d   1     -50.172  26.387  33.541  0.00  0.00    -0.201 NA
ATOM      2  C   UNL d   1     -50.097  27.210  33.457  0.00  0.00     0.286 C 
ATOM      3  O   UNL d   1     -50.779  27.669  33.308  0.00  0.00    -0.265 OA
ENDROOT
BRANCH   1   4
ATOM      4  C   UNL d   1     -50.911  26.026  33.478  0.00  0.00     0.119 A 
ATOM      5  C   UNL d   1     -51.044  25.214  33.424  0.00  0.00     0.088 A 
ATOM      6  C   UNL d   1     -51.860  25.102  33.371  0.00  0.00     0.013 A 
ATOM      7  C   UNL d   1     -52.242  24.374  33.307  0.00  0.00     0.001 C 
ATOM      8  C   UNL d   1     -52.228  25.841  33.392  0.00  0.00     0.031 A 
ATOM      9  S   UNL d   1     -51.634  26.414  33.458  0.00  0.00    -0.068 SA
ATOM     10  C   UNL d   1     -53.032  25.981  33.353  0.00  0.00     0.007 C 
BRANCH   5  11
ATOM     11  C   UNL d   1     -50.469  24.618  33.423  0.00  0.00     0.302 C 
ATOM     12  O   UNL d   1     -50.697  23.834  33.397  0.00  0.00    -0.259 OA
BRANCH  11  13
ATOM     13  O   UNL d   1     -49.673  24.828  33.448  0.00  0.00    -0.271 OA
BRANCH  13  14
ATOM     14  C   UNL d   1     -49.087  24.267  33.308  0.00  0.00     0.126 C 
ATOM     15  C   UNL d   1     -48.286  24.474  33.364  0.00  0.00     0.029 C 
ENDBRANCH  13  14
ENDBRANCH  11  13
ENDBRANCH   5  11
ENDBRANCH   1   4
BRANCH   2  16
ATOM     16  C   UNL d   1     -49.358  27.571  33.520  0.00  0.00     0.100 C 
BRANCH  16  17
ATOM     17  S   UNL d   1     -49.303  28.391  33.624  0.00  0.00    -0.056 SA
BRANCH  17  18
ATOM     18  C   UNL d   1     -48.827  28.705  34.233  0.00  0.00     0.141 A 
ATOM     19  N   UNL d   1     -48.291  29.331  34.147  0.00  0.00    -0.232 NA
ATOM     20  C   UNL d   1     -47.935  29.462  34.891  0.00  0.00     0.088 A 
ATOM     21  C   UNL d   1     -47.368  30.002  35.145  0.00  0.00     0.020 A 
ATOM     22  C   UNL d   1     -48.259  28.914  35.428  0.00  0.00     0.049 A 
ATOM     23  C   UNL d   1     -47.122  29.999  35.931  0.00  0.00     0.002 A 
ATOM     24  C   UNL d   1     -47.446  29.451  36.468  0.00  0.00     0.001 A 
ATOM     25  C   UNL d   1     -48.013  28.910  36.214  0.00  0.00     0.008 A 
ATOM     26  S   UNL d   1     -48.813  28.447  35.011  0.00  0.00    -0.060 SA
ENDBRANCH  17  18
ENDBRANCH  16  17
ENDBRANCH   2  16
TORSDOF 7
ENDMDL
MODEL 2
REMARK VINA RESULT:      62.0      1.210      2.331
REMARK  7 active torsions:
REMARK  status: ('A' for Active; 'I' for Inactive)
REMARK    1  A    between atoms: N_9  and  C_1 
REMARK    2  A    between atoms: C_10  and  C_2 
REMARK    3  A    between atoms: C_5  and  S_14 
REMARK       I    between atoms: C_13  and  N_9 
REMARK    4  A    between atoms: O_18  and  C_10 
REMARK    5  A    between atoms: C_17  and  C_13 
REMARK    6  A    between atoms: S_14  and  C_17 
REMARK    7  A    between atoms: C_23  and  O_18 
ROOT
ATOM      1  N   UNL d   1     -49.416  26.862  33.480  0.00  0.00    -0.201 NA
ATOM      2  C   UNL d   1     -48.945  27.102  34.121  0.00  0.00     0.286 C 
ATOM      3  O   UNL d   1     -48.755  26.549  34.717  0.00  0.00    -0.265 OA
ENDROOT
BRANCH   1   4
ATOM      4  C   UNL d   1     -49.694  26.087  33.432  0.00  0.00     0.119 A 
ATOM      5  C   UNL d   1     -50.487  25.863  33.397  0.00  0.00     0.088 A 
ATOM      6  C   UNL d   1     -50.507  25.039  33.354  0.00  0.00     0.013 A 
ATOM      7  C   UNL d   1     -51.190  24.577  33.310  0.00  0.00     0.001 C 
ATOM      8  C   UNL d   1     -49.732  24.757  33.362  0.00  0.00     0.031 A 
ATOM      9  S   UNL d   1     -49.228  25.412  33.411  0.00  0.00    -0.068 SA
ATOM     10  C   UNL d   1     -49.504  23.973  33.328  0.00  0.00     0.007 C 
BRANCH   5  11
ATOM     11  C   UNL d   1     -51.143  26.367  33.404  0.00  0.00     0.302 C 
ATOM     12  O   UNL d   1     -51.036  27.174  33.334  0.00  0.00    -0.259 OA
BRANCH  11  13
ATOM     13  O   UNL d   1     -51.897  26.045  33.482  0.00  0.00    -0.271 OA
BRANCH  13  14
ATOM     14  C   UNL d   1     -52.565  26.500  33.328  0.00  0.00     0.126 C 
ATOM     15  C   UNL d   1     -52.583  27.303  33.535  0.00  0.00     0.029 C 
ENDBRANCH  13  14
ENDBRANCH  11  13
ENDBRANCH   5  11
ENDBRANCH   1   4
BRANCH   2  16
ATOM     16  C   UNL d   1     -48.668  27.877  34.169  0.00  0.00     0.100 C 
BRANCH  16  17
ATOM     17  S   UNL d   1     -48.591  28.246  34.907  0.00  0.00    -0.056 SA
BRANCH  17  18
ATOM     18  C   UNL d   1     -48.324  29.035  34.954  0.00  0.00     0.141 A 
ATOM     19  N   UNL d   1     -47.794  29.328  35.519  0.00  0.00    -0.232 NA
ATOM     20  C   UNL d   1     -47.682  30.141  35.362  0.00  0.00     0.088 A 
ATOM     21  C   UNL d   1     -47.224  30.717  35.731  0.00  0.00     0.020 A 
ATOM     22  C   UNL d   1     -48.147  30.338  34.700  0.00  0.00     0.049 A 
ATOM     23  C   UNL d   1     -47.226  31.489  35.444  0.00  0.00     0.002 A 
ATOM     24  C   UNL d   1     -47.692  31.686  34.781  0.00  0.00     0.001 A 
ATOM     25  C   UNL d   1     -48.150  31.110  34.412  0.00  0.00     0.008 A 
ATOM     26  S   UNL d   1     -48.543  29.646  34.452  0.00  0.00    -0.060 SA
ENDBRANCH  17  18
ENDBRANCH  16  17
ENDBRANCH   2  16
TORSDOF 7
ENDMDL
