MODEL 1
REMARK VINA RESULT:      53.2      0.000      0.000
REMARK  4 active torsions:
REMARK  status: ('A' for Active; 'I' for Inactive)
REMARK    1  A    between atoms: N_10  and  C_3 
REMARK    2  A    between atoms: C_12  and  C_5 
REMARK    3  A    between atoms: C_15  and  C_9 
REMARK    4  A    between atoms: C_19  and  N_11 
ROOT
ATOM      1  N   UNL d   1      14.246  14.420  -2.454  0.00  0.00    -0.196 N 
ATOM      2  C   UNL d   1      13.985  13.739  -2.849  0.00  0.00     0.167 A 
ATOM      3  C   UNL d   1      14.614  14.342  -1.730  0.00  0.00     0.152 A 
ATOM      4  N   UNL d   1      13.763  15.224  -3.520  0.00  0.00    -0.163 NA
ATOM      5  C   UNL d   1      13.621  13.806  -3.565  0.00  0.00     0.055 A 
ATOM      6  N   UNL d   1      14.101  13.007  -2.505  0.00  0.00    -0.227 NA
ATOM      7  C   UNL d   1      14.729  13.582  -1.385  0.00  0.00     0.057 A 
ATOM      8  C   UNL d   1      13.501  14.543  -3.915  0.00  0.00     0.104 A 
ATOM      9  C   UNL d   1      14.467  12.937  -1.786  0.00  0.00     0.086 A 
ATOM     10  C   UNL d   1      13.138  14.608  -4.627  0.00  0.00     0.023 C 
ENDROOT
BRANCH   3  11
ATOM     11  N   UNL d   1      14.883  15.038  -1.323  0.00  0.00    -0.286 N 
ATOM     12  C   UNL d   1      15.046  15.065  -0.488  0.00  0.00     0.101 A 
ATOM     13  C   UNL d   1      15.311  15.783  -0.133  0.00  0.00     0.100 A 
ATOM     14  N   UNL d   1      15.418  16.483  -0.604  0.00  0.00    -0.300 N 
ATOM     15  C   UNL d   1      15.254  16.454  -1.443  0.00  0.00     0.100 A 
ATOM     16  C   UNL d   1      14.988  15.737  -1.800  0.00  0.00     0.101 A 
BRANCH  14  17
ATOM     17  C   UNL d   1      15.685  17.203  -0.246  0.00  0.00     0.080 C 
ATOM     18  C   UNL d   1      15.754  17.903  -0.706  0.00  0.00     0.021 C 
ENDBRANCH  14  17
ENDBRANCH   3  11
BRANCH   9  19
ATOM     19  C   UNL d   1      14.587  12.165  -1.429  0.00  0.00     0.018 C 
ATOM     20  C   UNL d   1      13.929  11.781  -1.024  0.00  0.00     0.002 C 
ATOM     21  C   UNL d   1      15.351  11.780  -1.477  0.00  0.00     0.002 C 
ENDBRANCH   9  19
BRANCH   5  22
ATOM     22  C   UNL d   1      13.357  13.119  -3.963  0.00  0.00     0.004 A 
ATOM     23  C   UNL d   1      13.028  12.504  -3.539  0.00  0.00     0.000 A 
ATOM     24  C   UNL d   1      12.769  11.827  -3.932  0.00  0.00     0.000 A 
ATOM     25  C   UNL d   1      12.843  11.779  -4.741  0.00  0.00     0.000 A 
ATOM     26  C   UNL d   1      13.175  12.402  -5.165  0.00  0.00     0.000 A 
ATOM     27  C   UNL d   1      13.428  13.065  -4.770  0.00  0.00     0.000 A 
ENDBRANCH   5  22
TORSDOF 4
ENDMDL
MODEL 2
REMARK VINA RESULT:      55.1      0.897      4.359
REMARK  4 active torsions:
REMARK  status: ('A' for Active; 'I' for Inactive)
REMARK    1  A    between atoms: N_10  and  C_3 
REMARK    2  A    between atoms: C_12  and  C_5 
REMARK    3  A    between atoms: C_15  and  C_9 
REMARK    4  A    between atoms: C_19  and  N_11 
ROOT
ATOM      1  N   UNL d   1      14.257  14.154  -2.549  0.00  0.00    -0.196 N 
ATOM      2  C   UNL d   1      14.589  14.567  -1.911  0.00  0.00     0.167 A 
ATOM      3  C   UNL d   1      14.089  13.361  -2.464  0.00  0.00     0.152 A 
ATOM      4  N   UNL d   1      14.278  15.341  -3.327  0.00  0.00    -0.163 NA
ATOM      5  C   UNL d   1      14.759  15.351  -1.985  0.00  0.00     0.055 A 
ATOM      6  N   UNL d   1      14.739  14.171  -1.212  0.00  0.00    -0.227 NA
ATOM      7  C   UNL d   1      14.247  12.962  -1.738  0.00  0.00     0.057 A 
ATOM      8  C   UNL d   1      14.609  15.754  -2.689  0.00  0.00     0.104 A 
ATOM      9  C   UNL d   1      14.568  13.383  -1.134  0.00  0.00     0.086 A 
ATOM     10  C   UNL d   1      14.779  16.535  -2.762  0.00  0.00     0.023 C 
ENDROOT
BRANCH   3  11
ATOM     11  N   UNL d   1      13.749  12.934  -3.116  0.00  0.00    -0.286 N 
ATOM     12  C   UNL d   1      13.406  12.159  -3.048  0.00  0.00     0.101 A 
ATOM     13  C   UNL d   1      13.081  11.779  -3.728  0.00  0.00     0.100 A 
ATOM     14  N   UNL d   1      13.095  12.167  -4.485  0.00  0.00    -0.300 N 
ATOM     15  C   UNL d   1      13.440  12.947  -4.552  0.00  0.00     0.100 A 
ATOM     16  C   UNL d   1      13.765  13.328  -3.873  0.00  0.00     0.101 A 
BRANCH  14  17
ATOM     17  C   UNL d   1      12.769  11.785  -5.168  0.00  0.00     0.080 C 
ATOM     18  C   UNL d   1      13.149  11.858  -5.914  0.00  0.00     0.021 C 
ENDBRANCH  14  17
ENDBRANCH   3  11
BRANCH   9  19
ATOM     19  C   UNL d   1      14.728  12.972  -0.396  0.00  0.00     0.018 C 
ATOM     20  C   UNL d   1      15.513  13.030  -0.042  0.00  0.00     0.002 C 
ATOM     21  C   UNL d   1      14.115  12.509  -0.017  0.00  0.00     0.002 C 
ENDBRANCH   9  19
BRANCH   5  22
ATOM     22  C   UNL d   1      15.094  15.767  -1.341  0.00  0.00     0.004 A 
ATOM     23  C   UNL d   1      15.416  15.356  -0.715  0.00  0.00     0.000 A 
ATOM     24  C   UNL d   1      15.746  15.766  -0.080  0.00  0.00     0.000 A 
ATOM     25  C   UNL d   1      15.746  16.580  -0.085  0.00  0.00     0.000 A 
ATOM     26  C   UNL d   1      15.419  16.991  -0.719  0.00  0.00     0.000 A 
ATOM     27  C   UNL d   1      15.096  16.579  -1.340  0.00  0.00     0.000 A 
ENDBRANCH   5  22
TORSDOF 4
ENDMDL
