MODEL 1
REMARK VINA RESULT:      97.1      0.000      0.000
REMARK  6 active torsions:
REMARK  status: ('A' for Active; 'I' for Inactive)
REMARK    1  A    between atoms: N_3  and  C_1 
REMARK       I    between atoms: C_5  and  N_3 
REMARK    2  A    between atoms: C_19  and  N_3 
REMARK    3  A    between atoms: C_8  and  C_5 
REMARK    4  A    between atoms: C_20  and  C_19 
REMARK    5  A    between atoms: C_23  and  C_20 
REMARK    6  A    between atoms: N_21  and  C_23 
ROOT
ATOM      1  N   UNL d   1      59.184  49.138  52.091  0.00  0.00    -0.253 N 
ATOM      2  C   UNL d   1      59.379  49.378  52.857  0.00  0.00     0.266 C 
ATOM      3  O   UNL d   1      60.152  49.543  53.056  0.00  0.00    -0.267 OA
ENDROOT
BRANCH   1   4
ATOM      4  C   UNL d   1      59.788  49.066  51.522  0.00  0.00     0.182 A 
ATOM      5  N   UNL d   1      60.289  48.416  51.433  0.00  0.00    -0.222 NA
ATOM      6  C   UNL d   1      60.805  48.565  50.811  0.00  0.00     0.089 A 
ATOM      7  C   UNL d   1      61.409  48.132  50.477  0.00  0.00     0.018 A 
ATOM      8  C   UNL d   1      60.622  49.316  50.511  0.00  0.00     0.050 A 
ATOM      9  C   UNL d   1      61.840  48.431  49.844  0.00  0.00     0.002 A 
ATOM     10  C   UNL d   1      61.598  47.379  50.771  0.00  0.00     0.002 C 
ATOM     11  C   UNL d   1      61.655  49.173  49.551  0.00  0.00     0.001 A 
ATOM     12  C   UNL d   1      61.045  49.611  49.889  0.00  0.00     0.008 A 
ATOM     13  S   UNL d   1      59.993  49.627  50.949  0.00  0.00    -0.048 SA
ENDBRANCH   1   4
BRANCH   1  14
ATOM     14  C   UNL d   1      58.403  48.971  51.890  0.00  0.00     0.086 C 
BRANCH  14  15
ATOM     15  C   UNL d   1      58.103  49.219  51.159  0.00  0.00     0.038 C 
BRANCH  15  16
ATOM     16  C   UNL d   1      57.290  49.219  51.027  0.00  0.00     0.082 C 
BRANCH  16  17
ATOM     17  N   UNL d   1      56.995  49.118  50.266  0.00  0.00    -0.300 N 
ATOM     18  C   UNL d   1      56.252  48.782  50.152  0.00  0.00     0.100 C 
ATOM     19  C   UNL d   1      57.444  49.353  49.619  0.00  0.00     0.100 C 
ENDBRANCH  16  17
ENDBRANCH  15  16
ENDBRANCH  14  15
ENDBRANCH   1  14
BRANCH   2  20
ATOM     20  C   UNL d   1      58.778  49.449  53.419  0.00  0.00     0.057 A 
ATOM     21  C   UNL d   1      58.938  49.345  54.220  0.00  0.00     0.013 A 
ATOM     22  C   UNL d   1      58.321  49.420  54.769  0.00  0.00     0.049 A 
ATOM     23  S   UNL d   1      58.319  49.347  55.593  0.00  0.00    -0.064 SA
ATOM     24  C   UNL d   1      57.553  49.595  54.521  0.00  0.00     0.088 A 
ATOM     25  C   UNL d   1      57.543  49.479  55.851  0.00  0.00     0.135 A 
ATOM     26  N   UNL d   1      57.072  49.632  55.187  0.00  0.00    -0.236 NA
ATOM     27  C   UNL d   1      57.393  49.699  53.720  0.00  0.00     0.020 A 
ATOM     28  C   UNL d   1      58.000  49.627  53.165  0.00  0.00     0.006 A 
ENDBRANCH   2  20
TORSDOF 6
ENDMDL
