MODEL 1
REMARK VINA RESULT:      -7.8      0.000      0.000
REMARK  7 active torsions:
REMARK  status: ('A' for Active; 'I' for Inactive)
REMARK    1  A    between atoms: N_2  and  C_1 
REMARK    2  A    between atoms: C_5  and  C_1 
REMARK    3  A    between atoms: O_4  and  N_2 
REMARK    4  A    between atoms: C_3  and  O_4 
REMARK    5  A    between atoms: C_6  and  C_3 
REMARK    6  A    between atoms: C_17  and  C_14 
REMARK    7  A    between atoms: C_18  and  C_17 
ROOT
ATOM      1  C   UNL d   1      53.553  32.648  53.301  0.00  0.00     0.319 C 
ATOM      2  O   UNL d   1      54.243  32.932  52.939  0.00  0.00    -0.257 OA
ENDROOT
BRANCH   1   3
ATOM      3  O   UNL d   1      52.944  33.167  53.494  0.00  0.00    -0.168 OA
BRANCH   3   4
ATOM      4  N   UNL d   1      52.705  33.744  52.955  0.00  0.00    -0.100 NA
BRANCH   4   5
ATOM      5  C   UNL d   1      52.140  34.302  53.173  0.00  0.00     0.228 C 
ATOM      6  N   UNL d   1      52.299  34.830  53.783  0.00  0.00    -0.123 N 
BRANCH   5   7
ATOM      7  C   UNL d   1      51.416  34.332  52.779  0.00  0.00     0.121 A 
ATOM      8  N   UNL d   1      51.397  34.316  51.948  0.00  0.00    -0.241 NA
ATOM      9  C   UNL d   1      50.666  34.345  51.551  0.00  0.00     0.099 A 
ATOM     10  C   UNL d   1      49.961  34.391  51.987  0.00  0.00     0.021 A 
ATOM     11  C   UNL d   1      49.983  34.406  52.809  0.00  0.00     0.003 A 
ATOM     12  C   UNL d   1      50.708  34.377  53.203  0.00  0.00     0.022 A 
ENDBRANCH   5   7
ENDBRANCH   4   5
ENDBRANCH   3   4
ENDBRANCH   1   3
BRANCH   1  13
ATOM     13  C   UNL d   1      53.479  31.838  53.468  0.00  0.00     0.065 A 
ATOM     14  C   UNL d   1      53.132  31.341  52.908  0.00  0.00     0.005 A 
ATOM     15  C   UNL d   1      53.056  30.538  53.070  0.00  0.00     0.000 A 
ATOM     16  C   UNL d   1      53.327  30.230  53.793  0.00  0.00     0.000 A 
ATOM     17  C   UNL d   1      53.673  30.733  54.348  0.00  0.00     0.000 A 
ATOM     18  C   UNL d   1      53.748  31.544  54.181  0.00  0.00     0.005 A 
BRANCH  16  19
ATOM     19  C   UNL d   1      53.249  29.423  53.949  0.00  0.00     0.000 C 
BRANCH  19  20
ATOM     20  C   UNL d   1      53.368  29.137  54.714  0.00  0.00     0.000 C 
ATOM     21  C   UNL d   1      53.405  28.328  54.860  0.00  0.00     0.000 C 
ENDBRANCH  19  20
ENDBRANCH  16  19
ENDBRANCH   1  13
TORSDOF 7
ENDMDL
MODEL 2
REMARK VINA RESULT:      -7.7      1.199      4.711
REMARK  7 active torsions:
REMARK  status: ('A' for Active; 'I' for Inactive)
REMARK    1  A    between atoms: N_2  and  C_1 
REMARK    2  A    between atoms: C_5  and  C_1 
REMARK    3  A    between atoms: O_4  and  N_2 
REMARK    4  A    between atoms: C_3  and  O_4 
REMARK    5  A    between atoms: C_6  and  C_3 
REMARK    6  A    between atoms: C_17  and  C_14 
REMARK    7  A    between atoms: C_18  and  C_17 
ROOT
ATOM      1  C   UNL d   1      52.419  33.629  53.625  0.00  0.00     0.319 C 
ATOM      2  O   UNL d   1      52.616  33.993  54.343  0.00  0.00    -0.257 OA
ENDROOT
BRANCH   1   3
ATOM      3  O   UNL d   1      52.897  33.033  53.319  0.00  0.00    -0.168 OA
BRANCH   3   4
ATOM      4  N   UNL d   1      53.172  32.430  53.810  0.00  0.00    -0.100 NA
BRANCH   4   5
ATOM      5  C   UNL d   1      53.667  31.846  53.506  0.00  0.00     0.228 C 
ATOM      6  N   UNL d   1      54.384  32.054  53.160  0.00  0.00    -0.123 N 
BRANCH   5   7
ATOM      7  C   UNL d   1      53.445  31.052  53.550  0.00  0.00     0.121 A 
ATOM      8  N   UNL d   1      53.562  30.629  54.256  0.00  0.00    -0.241 NA
ATOM      9  C   UNL d   1      53.337  29.828  54.300  0.00  0.00     0.099 A 
ATOM     10  C   UNL d   1      52.998  29.458  53.639  0.00  0.00     0.021 A 
ATOM     11  C   UNL d   1      52.884  29.880  52.942  0.00  0.00     0.003 A 
ATOM     12  C   UNL d   1      53.106  30.673  52.898  0.00  0.00     0.022 A 
ENDBRANCH   5   7
ENDBRANCH   4   5
ENDBRANCH   3   4
ENDBRANCH   1   3
BRANCH   1  13
ATOM     13  C   UNL d   1      51.736  33.867  53.215  0.00  0.00     0.065 A 
ATOM     14  C   UNL d   1      50.995  33.721  53.547  0.00  0.00     0.005 A 
ATOM     15  C   UNL d   1      50.317  33.955  53.144  0.00  0.00     0.000 A 
ATOM     16  C   UNL d   1      50.379  34.335  52.409  0.00  0.00     0.000 A 
ATOM     17  C   UNL d   1      51.124  34.478  52.083  0.00  0.00     0.000 A 
ATOM     18  C   UNL d   1      51.806  34.240  52.493  0.00  0.00     0.005 A 
BRANCH  16  19
ATOM     19  C   UNL d   1      49.694  34.568  52.009  0.00  0.00     0.000 C 
BRANCH  19  20
ATOM     20  C   UNL d   1      49.559  34.309  51.237  0.00  0.00     0.000 C 
ATOM     21  C   UNL d   1      48.870  34.519  50.839  0.00  0.00     0.000 C 
ENDBRANCH  19  20
ENDBRANCH  16  19
ENDBRANCH   1  13
TORSDOF 7
ENDMDL
MODEL 3
REMARK VINA RESULT:      -7.7      2.255      5.283
REMARK  7 active torsions:
REMARK  status: ('A' for Active; 'I' for Inactive)
REMARK    1  A    between atoms: N_2  and  C_1 
REMARK    2  A    between atoms: C_5  and  C_1 
REMARK    3  A    between atoms: O_4  and  N_2 
REMARK    4  A    between atoms: C_3  and  O_4 
REMARK    5  A    between atoms: C_6  and  C_3 
REMARK    6  A    between atoms: C_17  and  C_14 
REMARK    7  A    between atoms: C_18  and  C_17 
ROOT
ATOM      1  C   UNL d   1      50.741  33.905  53.052  0.00  0.00     0.319 C 
ATOM      2  O   UNL d   1      50.643  33.119  53.298  0.00  0.00    -0.257 OA
ENDROOT
BRANCH   1   3
ATOM      3  O   UNL d   1      51.466  34.281  53.152  0.00  0.00    -0.168 OA
BRANCH   3   4
ATOM      4  N   UNL d   1      52.100  33.876  53.489  0.00  0.00    -0.100 NA
BRANCH   4   5
ATOM      5  C   UNL d   1      52.817  34.262  53.614  0.00  0.00     0.228 C 
ATOM      6  N   UNL d   1      52.914  35.039  53.360  0.00  0.00    -0.123 N 
BRANCH   5   7
ATOM      7  C   UNL d   1      53.436  33.871  53.993  0.00  0.00     0.121 A 
ATOM      8  N   UNL d   1      53.875  33.297  53.582  0.00  0.00    -0.241 NA
ATOM      9  C   UNL d   1      54.501  32.902  53.964  0.00  0.00     0.099 A 
ATOM     10  C   UNL d   1      54.682  33.085  54.754  0.00  0.00     0.021 A 
ATOM     11  C   UNL d   1      54.245  33.653  55.158  0.00  0.00     0.003 A 
ATOM     12  C   UNL d   1      53.626  34.045  54.779  0.00  0.00     0.022 A 
ENDBRANCH   5   7
ENDBRANCH   4   5
ENDBRANCH   3   4
ENDBRANCH   1   3
BRANCH   1  13
ATOM     13  C   UNL d   1      50.105  34.311  52.705  0.00  0.00     0.065 A 
ATOM     14  C   UNL d   1      49.923  34.173  51.912  0.00  0.00     0.005 A 
ATOM     15  C   UNL d   1      49.294  34.574  51.565  0.00  0.00     0.000 A 
ATOM     16  C   UNL d   1      48.845  35.112  52.010  0.00  0.00     0.000 A 
ATOM     17  C   UNL d   1      49.032  35.244  52.803  0.00  0.00     0.000 A 
ATOM     18  C   UNL d   1      49.669  34.838  53.150  0.00  0.00     0.005 A 
BRANCH  16  19
ATOM     19  C   UNL d   1      48.214  35.511  51.656  0.00  0.00     0.000 C 
BRANCH  19  20
ATOM     20  C   UNL d   1      47.526  35.659  52.086  0.00  0.00     0.000 C 
ATOM     21  C   UNL d   1      46.876  36.016  51.728  0.00  0.00     0.000 C 
ENDBRANCH  19  20
ENDBRANCH  16  19
ENDBRANCH   1  13
TORSDOF 7
ENDMDL
MODEL 4
REMARK VINA RESULT:      -7.6      2.533      3.964
REMARK  7 active torsions:
REMARK  status: ('A' for Active; 'I' for Inactive)
REMARK    1  A    between atoms: N_2  and  C_1 
REMARK    2  A    between atoms: C_5  and  C_1 
REMARK    3  A    between atoms: O_4  and  N_2 
REMARK    4  A    between atoms: C_3  and  O_4 
REMARK    5  A    between atoms: C_6  and  C_3 
REMARK    6  A    between atoms: C_17  and  C_14 
REMARK    7  A    between atoms: C_18  and  C_17 
ROOT
ATOM      1  C   UNL d   1      50.119  34.624  52.811  0.00  0.00     0.319 C 
ATOM      2  O   UNL d   1      49.976  35.170  53.418  0.00  0.00    -0.257 OA
ENDROOT
BRANCH   1   3
ATOM      3  O   UNL d   1      49.604  34.574  52.170  0.00  0.00    -0.168 OA
BRANCH   3   4
ATOM      4  N   UNL d   1      48.904  35.011  52.167  0.00  0.00    -0.100 NA
BRANCH   4   5
ATOM      5  C   UNL d   1      48.416  35.002  51.503  0.00  0.00     0.228 C 
ATOM      6  N   UNL d   1      48.678  34.653  50.806  0.00  0.00    -0.123 N 
BRANCH   5   7
ATOM      7  C   UNL d   1      47.667  35.345  51.538  0.00  0.00     0.121 A 
ATOM      8  N   UNL d   1      47.031  34.987  51.140  0.00  0.00    -0.241 NA
ATOM      9  C   UNL d   1      46.274  35.333  51.175  0.00  0.00     0.099 A 
ATOM     10  C   UNL d   1      46.160  36.033  51.607  0.00  0.00     0.021 A 
ATOM     11  C   UNL d   1      46.791  36.384  52.000  0.00  0.00     0.003 A 
ATOM     12  C   UNL d   1      47.541  36.042  51.965  0.00  0.00     0.022 A 
ENDBRANCH   5   7
ENDBRANCH   4   5
ENDBRANCH   3   4
ENDBRANCH   1   3
BRANCH   1  13
ATOM     13  C   UNL d   1      50.783  34.126  52.851  0.00  0.00     0.065 A 
ATOM     14  C   UNL d   1      50.730  33.415  53.265  0.00  0.00     0.005 A 
ATOM     15  C   UNL d   1      51.386  32.921  53.307  0.00  0.00     0.000 A 
ATOM     16  C   UNL d   1      52.096  33.136  52.934  0.00  0.00     0.000 A 
ATOM     17  C   UNL d   1      52.141  33.849  52.521  0.00  0.00     0.000 A 
ATOM     18  C   UNL d   1      51.477  34.346  52.481  0.00  0.00     0.005 A 
BRANCH  16  19
ATOM     19  C   UNL d   1      52.751  32.634  52.979  0.00  0.00     0.000 C 
BRANCH  19  20
ATOM     20  C   UNL d   1      53.297  32.723  53.592  0.00  0.00     0.000 C 
ATOM     21  C   UNL d   1      53.954  32.231  53.643  0.00  0.00     0.000 C 
ENDBRANCH  19  20
ENDBRANCH  16  19
ENDBRANCH   1  13
TORSDOF 7
ENDMDL
MODEL 5
REMARK VINA RESULT:      -7.4      1.351      1.985
REMARK  7 active torsions:
REMARK  status: ('A' for Active; 'I' for Inactive)
REMARK    1  A    between atoms: N_2  and  C_1 
REMARK    2  A    between atoms: C_5  and  C_1 
REMARK    3  A    between atoms: O_4  and  N_2 
REMARK    4  A    between atoms: C_3  and  O_4 
REMARK    5  A    between atoms: C_6  and  C_3 
REMARK    6  A    between atoms: C_17  and  C_14 
REMARK    7  A    between atoms: C_18  and  C_17 
ROOT
ATOM      1  C   UNL d   1      52.641  31.721  52.793  0.00  0.00     0.319 C 
ATOM      2  O   UNL d   1      52.838  31.856  52.000  0.00  0.00    -0.257 OA
ENDROOT
BRANCH   1   3
ATOM      3  O   UNL d   1      52.243  32.298  53.224  0.00  0.00    -0.168 OA
BRANCH   3   4
ATOM      4  N   UNL d   1      52.389  33.097  53.080  0.00  0.00    -0.100 NA
BRANCH   4   5
ATOM      5  C   UNL d   1      52.003  33.674  53.523  0.00  0.00     0.228 C 
ATOM      6  N   UNL d   1      51.185  33.648  53.606  0.00  0.00    -0.123 N 
BRANCH   5   7
ATOM      7  C   UNL d   1      52.436  34.276  53.884  0.00  0.00     0.121 A 
ATOM      8  N   UNL d   1      52.723  34.173  54.657  0.00  0.00    -0.241 NA
ATOM      9  C   UNL d   1      53.160  34.781  55.021  0.00  0.00     0.099 A 
ATOM     10  C   UNL d   1      53.306  35.487  54.609  0.00  0.00     0.021 A 
ATOM     11  C   UNL d   1      53.021  35.586  53.844  0.00  0.00     0.003 A 
ATOM     12  C   UNL d   1      52.588  34.984  53.483  0.00  0.00     0.022 A 
ENDBRANCH   5   7
ENDBRANCH   4   5
ENDBRANCH   3   4
ENDBRANCH   1   3
BRANCH   1  13
ATOM     13  C   UNL d   1      52.847  31.001  53.153  0.00  0.00     0.065 A 
ATOM     14  C   UNL d   1      52.313  30.373  53.133  0.00  0.00     0.005 A 
ATOM     15  C   UNL d   1      52.513  29.658  53.488  0.00  0.00     0.000 A 
ATOM     16  C   UNL d   1      53.248  29.571  53.864  0.00  0.00     0.000 A 
ATOM     17  C   UNL d   1      53.778  30.204  53.881  0.00  0.00     0.000 A 
ATOM     18  C   UNL d   1      53.572  30.924  53.521  0.00  0.00     0.005 A 
BRANCH  16  19
ATOM     19  C   UNL d   1      53.444  28.851  54.219  0.00  0.00     0.000 C 
BRANCH  19  20
ATOM     20  C   UNL d   1      53.364  28.758  55.035  0.00  0.00     0.000 C 
ATOM     21  C   UNL d   1      53.571  28.050  55.400  0.00  0.00     0.000 C 
ENDBRANCH  19  20
ENDBRANCH  16  19
ENDBRANCH   1  13
TORSDOF 7
ENDMDL
MODEL 6
REMARK VINA RESULT:      -5.4      9.741     11.037
REMARK  7 active torsions:
REMARK  status: ('A' for Active; 'I' for Inactive)
REMARK    1  A    between atoms: N_2  and  C_1 
REMARK    2  A    between atoms: C_5  and  C_1 
REMARK    3  A    between atoms: O_4  and  N_2 
REMARK    4  A    between atoms: C_3  and  O_4 
REMARK    5  A    between atoms: C_6  and  C_3 
REMARK    6  A    between atoms: C_17  and  C_14 
REMARK    7  A    between atoms: C_18  and  C_17 
ROOT
ATOM      1  C   UNL d   1      45.435  27.107  56.907  0.00  0.00     0.319 C 
ATOM      2  O   UNL d   1      46.226  27.030  56.671  0.00  0.00    -0.257 OA
ENDROOT
BRANCH   1   3
ATOM      3  O   UNL d   1      44.922  26.466  56.848  0.00  0.00    -0.168 OA
BRANCH   3   4
ATOM      4  N   UNL d   1      45.066  25.870  56.297  0.00  0.00    -0.100 NA
BRANCH   4   5
ATOM      5  C   UNL d   1      44.679  25.146  56.363  0.00  0.00     0.228 C 
ATOM      6  N   UNL d   1      44.314  24.938  57.070  0.00  0.00    -0.123 N 
BRANCH   5   7
ATOM      7  C   UNL d   1      44.659  24.629  55.720  0.00  0.00     0.121 A 
ATOM      8  N   UNL d   1      44.965  23.861  55.798  0.00  0.00    -0.241 NA
ATOM      9  C   UNL d   1      44.944  23.339  55.149  0.00  0.00     0.099 A 
ATOM     10  C   UNL d   1      44.616  23.590  54.429  0.00  0.00     0.021 A 
ATOM     11  C   UNL d   1      44.314  24.352  54.355  0.00  0.00     0.003 A 
ATOM     12  C   UNL d   1      44.335  24.869  54.998  0.00  0.00     0.022 A 
ENDBRANCH   5   7
ENDBRANCH   4   5
ENDBRANCH   3   4
ENDBRANCH   1   3
BRANCH   1  13
ATOM     13  C   UNL d   1      45.162  27.834  57.204  0.00  0.00     0.065 A 
ATOM     14  C   UNL d   1      45.271  28.009  58.003  0.00  0.00     0.005 A 
ATOM     15  C   UNL d   1      45.002  28.728  58.300  0.00  0.00     0.000 A 
ATOM     16  C   UNL d   1      44.623  29.271  57.799  0.00  0.00     0.000 A 
ATOM     17  C   UNL d   1      44.518  29.089  57.002  0.00  0.00     0.000 A 
ATOM     18  C   UNL d   1      44.791  28.362  56.705  0.00  0.00     0.005 A 
BRANCH  16  19
ATOM     19  C   UNL d   1      44.355  29.991  58.104  0.00  0.00     0.000 C 
BRANCH  19  20
ATOM     20  C   UNL d   1      44.771  30.686  57.945  0.00  0.00     0.000 C 
ATOM     21  C   UNL d   1      44.558  31.394  58.308  0.00  0.00     0.000 C 
ENDBRANCH  19  20
ENDBRANCH  16  19
ENDBRANCH   1  13
TORSDOF 7
ENDMDL
MODEL 7
REMARK VINA RESULT:      -5.1      9.922     10.659
REMARK  7 active torsions:
REMARK  status: ('A' for Active; 'I' for Inactive)
REMARK    1  A    between atoms: N_2  and  C_1 
REMARK    2  A    between atoms: C_5  and  C_1 
REMARK    3  A    between atoms: O_4  and  N_2 
REMARK    4  A    between atoms: C_3  and  O_4 
REMARK    5  A    between atoms: C_6  and  C_3 
REMARK    6  A    between atoms: C_17  and  C_14 
REMARK    7  A    between atoms: C_18  and  C_17 
ROOT
ATOM      1  C   UNL d   1      45.205  27.026  58.264  0.00  0.00     0.319 C 
ATOM      2  O   UNL d   1      45.544  26.717  58.954  0.00  0.00    -0.257 OA
ENDROOT
BRANCH   1   3
ATOM      3  O   UNL d   1      45.071  27.836  58.196  0.00  0.00    -0.168 OA
BRANCH   3   4
ATOM      4  N   UNL d   1      45.077  28.314  58.869  0.00  0.00    -0.100 NA
BRANCH   4   5
ATOM      5  C   UNL d   1      44.983  29.129  58.796  0.00  0.00     0.228 C 
ATOM      6  N   UNL d   1      45.044  29.484  58.056  0.00  0.00    -0.123 N 
BRANCH   5   7
ATOM      7  C   UNL d   1      44.829  29.588  59.463  0.00  0.00     0.121 A 
ATOM      8  N   UNL d   1      44.470  29.243  60.128  0.00  0.00    -0.241 NA
ATOM      9  C   UNL d   1      44.314  29.706  60.802  0.00  0.00     0.099 A 
ATOM     10  C   UNL d   1      44.519  30.511  60.805  0.00  0.00     0.021 A 
ATOM     11  C   UNL d   1      44.875  30.850  60.146  0.00  0.00     0.003 A 
ATOM     12  C   UNL d   1      45.029  30.391  59.478  0.00  0.00     0.022 A 
ENDBRANCH   5   7
ENDBRANCH   4   5
ENDBRANCH   3   4
ENDBRANCH   1   3
BRANCH   1  13
ATOM     13  C   UNL d   1      45.001  26.517  57.640  0.00  0.00     0.065 A 
ATOM     14  C   UNL d   1      44.568  25.834  57.802  0.00  0.00     0.005 A 
ATOM     15  C   UNL d   1      44.364  25.328  57.187  0.00  0.00     0.000 A 
ATOM     16  C   UNL d   1      44.593  25.503  56.408  0.00  0.00     0.000 A 
ATOM     17  C   UNL d   1      45.026  26.188  56.253  0.00  0.00     0.000 A 
ATOM     18  C   UNL d   1      45.230  26.698  56.877  0.00  0.00     0.005 A 
BRANCH  16  19
ATOM     19  C   UNL d   1      44.386  24.990  55.794  0.00  0.00     0.000 C 
BRANCH  19  20
ATOM     20  C   UNL d   1      44.902  24.389  55.567  0.00  0.00     0.000 C 
ATOM     21  C   UNL d   1      44.726  23.904  54.925  0.00  0.00     0.000 C 
ENDBRANCH  19  20
ENDBRANCH  16  19
ENDBRANCH   1  13
TORSDOF 7
ENDMDL
