MODEL 1
REMARK VINA RESULT:      -9.2      0.000      0.000
REMARK  2 active torsions:
REMARK  status: ('A' for Active; 'I' for Inactive)
REMARK       I    between atoms: C_3  and  N_1 
REMARK    1  A    between atoms: C_7  and  C_3 
REMARK    2  A    between atoms: O_15  and  C_11 
ROOT
ATOM      1  N   UNL d   1      53.222  32.717  53.610  0.00  0.00    -0.195 N 
ATOM      2  N   UNL d   1      53.305  33.350  54.145  0.00  0.00    -0.163 NA
ATOM      3  C   UNL d   1      52.624  32.596  53.059  0.00  0.00     0.280 C 
ATOM      4  C   UNL d   1      53.826  32.218  53.705  0.00  0.00     0.088 A 
ATOM      5  C   UNL d   1      54.324  32.509  54.306  0.00  0.00     0.040 A 
ATOM      6  C   UNL d   1      53.996  33.207  54.572  0.00  0.00     0.103 A 
ATOM      7  O   UNL d   1      52.646  31.935  52.585  0.00  0.00    -0.265 OA
ATOM      8  C   UNL d   1      53.947  31.501  53.264  0.00  0.00     0.021 C 
ATOM      9  C   UNL d   1      54.322  33.689  55.182  0.00  0.00     0.022 C 
ENDROOT
BRANCH   3  10
ATOM     10  C   UNL d   1      51.995  33.135  52.976  0.00  0.00     0.058 A 
ATOM     11  C   UNL d   1      51.300  33.020  53.403  0.00  0.00     0.007 A 
ATOM     12  C   UNL d   1      50.672  33.545  53.329  0.00  0.00     0.024 A 
ATOM     13  C   UNL d   1      50.737  34.190  52.826  0.00  0.00     0.094 A 
ATOM     14  C   UNL d   1      51.430  34.312  52.395  0.00  0.00     0.024 A 
ATOM     15  C   UNL d   1      52.061  33.794  52.462  0.00  0.00     0.007 A 
BRANCH  13  16
ATOM     16  O   UNL d   1      50.093  34.715  52.761  0.00  0.00    -0.328 OA
ATOM     17  C   UNL d   1      49.513  34.595  52.169  0.00  0.00     0.181 C 
ENDBRANCH  13  16
ENDBRANCH   3  10
TORSDOF 2
ENDMDL
MODEL 2
REMARK VINA RESULT:      -8.3      2.298      3.405
REMARK  2 active torsions:
REMARK  status: ('A' for Active; 'I' for Inactive)
REMARK       I    between atoms: C_3  and  N_1 
REMARK    1  A    between atoms: C_7  and  C_3 
REMARK    2  A    between atoms: O_15  and  C_11 
ROOT
ATOM      1  N   UNL d   1      53.236  30.863  53.507  0.00  0.00    -0.195 N 
ATOM      2  N   UNL d   1      53.494  30.552  54.234  0.00  0.00    -0.163 NA
ATOM      3  C   UNL d   1      53.284  31.641  53.245  0.00  0.00     0.280 C 
ATOM      4  C   UNL d   1      52.920  30.283  53.075  0.00  0.00     0.088 A 
ATOM      5  C   UNL d   1      52.962  29.573  53.507  0.00  0.00     0.040 A 
ATOM      6  C   UNL d   1      53.316  29.746  54.221  0.00  0.00     0.103 A 
ATOM      7  O   UNL d   1      52.997  31.832  52.507  0.00  0.00    -0.265 OA
ATOM      8  C   UNL d   1      52.592  30.372  52.296  0.00  0.00     0.021 C 
ATOM      9  C   UNL d   1      53.469  29.185  54.830  0.00  0.00     0.022 C 
ENDROOT
BRANCH   3  10
ATOM     10  C   UNL d   1      53.621  32.238  53.717  0.00  0.00     0.058 A 
ATOM     11  C   UNL d   1      53.139  32.687  54.212  0.00  0.00     0.007 A 
ATOM     12  C   UNL d   1      53.459  33.279  54.683  0.00  0.00     0.024 A 
ATOM     13  C   UNL d   1      54.266  33.425  54.660  0.00  0.00     0.094 A 
ATOM     14  C   UNL d   1      54.756  32.981  54.167  0.00  0.00     0.024 A 
ATOM     15  C   UNL d   1      54.445  32.388  53.694  0.00  0.00     0.007 A 
BRANCH  13  16
ATOM     16  O   UNL d   1      54.579  34.030  55.143  0.00  0.00    -0.328 OA
ATOM     17  C   UNL d   1      55.396  34.043  55.321  0.00  0.00     0.181 C 
ENDBRANCH  13  16
ENDBRANCH   3  10
TORSDOF 2
ENDMDL
MODEL 3
REMARK VINA RESULT:      -8.2      1.592      3.334
REMARK  2 active torsions:
REMARK  status: ('A' for Active; 'I' for Inactive)
REMARK       I    between atoms: C_3  and  N_1 
REMARK    1  A    between atoms: C_7  and  C_3 
REMARK    2  A    between atoms: O_15  and  C_11 
ROOT
ATOM      1  N   UNL d   1      53.212  32.885  53.591  0.00  0.00    -0.195 N 
ATOM      2  N   UNL d   1      53.608  32.756  54.312  0.00  0.00    -0.163 NA
ATOM      3  C   UNL d   1      52.907  32.323  53.075  0.00  0.00     0.280 C 
ATOM      4  C   UNL d   1      53.164  33.661  53.459  0.00  0.00     0.088 A 
ATOM      5  C   UNL d   1      53.528  34.065  54.090  0.00  0.00     0.040 A 
ATOM      6  C   UNL d   1      53.799  33.500  54.612  0.00  0.00     0.103 A 
ATOM      7  O   UNL d   1      52.536  32.568  52.392  0.00  0.00    -0.265 OA
ATOM      8  C   UNL d   1      52.800  34.024  52.782  0.00  0.00     0.021 C 
ATOM      9  C   UNL d   1      54.204  33.666  55.332  0.00  0.00     0.022 C 
ENDROOT
BRANCH   3  10
ATOM     10  C   UNL d   1      52.968  31.508  53.234  0.00  0.00     0.058 A 
ATOM     11  C   UNL d   1      52.291  31.078  53.422  0.00  0.00     0.007 A 
ATOM     12  C   UNL d   1      52.339  30.273  53.581  0.00  0.00     0.024 A 
ATOM     13  C   UNL d   1      53.066  29.895  53.552  0.00  0.00     0.094 A 
ATOM     14  C   UNL d   1      53.748  30.319  53.364  0.00  0.00     0.024 A 
ATOM     15  C   UNL d   1      53.711  31.121  53.204  0.00  0.00     0.007 A 
BRANCH  13  16
ATOM     16  O   UNL d   1      53.100  29.077  53.715  0.00  0.00    -0.328 OA
ATOM     17  C   UNL d   1      53.330  28.811  54.475  0.00  0.00     0.181 C 
ENDBRANCH  13  16
ENDBRANCH   3  10
TORSDOF 2
ENDMDL
MODEL 4
REMARK VINA RESULT:      -8.1      1.502      3.515
REMARK  2 active torsions:
REMARK  status: ('A' for Active; 'I' for Inactive)
REMARK       I    between atoms: C_3  and  N_1 
REMARK    1  A    between atoms: C_7  and  C_3 
REMARK    2  A    between atoms: O_15  and  C_11 
ROOT
ATOM      1  N   UNL d   1      52.632  33.829  53.571  0.00  0.00    -0.195 N 
ATOM      2  N   UNL d   1      51.931  33.474  53.294  0.00  0.00    -0.163 NA
ATOM      3  C   UNL d   1      53.334  33.459  53.785  0.00  0.00     0.280 C 
ATOM      4  C   UNL d   1      52.530  34.611  53.603  0.00  0.00     0.088 A 
ATOM      5  C   UNL d   1      51.759  34.793  53.348  0.00  0.00     0.040 A 
ATOM      6  C   UNL d   1      51.395  34.088  53.159  0.00  0.00     0.103 A 
ATOM      7  O   UNL d   1      53.960  33.911  54.044  0.00  0.00    -0.265 OA
ATOM      8  C   UNL d   1      53.115  35.173  53.856  0.00  0.00     0.021 C 
ATOM      9  C   UNL d   1      50.605  34.015  52.876  0.00  0.00     0.022 C 
ENDROOT
BRANCH   3  10
ATOM     10  C   UNL d   1      53.420  32.632  53.744  0.00  0.00     0.058 A 
ATOM     11  C   UNL d   1      53.425  32.188  54.438  0.00  0.00     0.007 A 
ATOM     12  C   UNL d   1      53.509  31.371  54.410  0.00  0.00     0.024 A 
ATOM     13  C   UNL d   1      53.588  30.994  53.686  0.00  0.00     0.094 A 
ATOM     14  C   UNL d   1      53.583  31.432  52.987  0.00  0.00     0.024 A 
ATOM     15  C   UNL d   1      53.500  32.247  53.004  0.00  0.00     0.007 A 
BRANCH  13  16
ATOM     16  O   UNL d   1      53.672  30.164  53.673  0.00  0.00    -0.328 OA
ATOM     17  C   UNL d   1      53.006  29.678  53.536  0.00  0.00     0.181 C 
ENDBRANCH  13  16
ENDBRANCH   3  10
TORSDOF 2
ENDMDL
MODEL 5
REMARK VINA RESULT:      -7.7      1.545      3.547
REMARK  2 active torsions:
REMARK  status: ('A' for Active; 'I' for Inactive)
REMARK       I    between atoms: C_3  and  N_1 
REMARK    1  A    between atoms: C_7  and  C_3 
REMARK    2  A    between atoms: O_15  and  C_11 
ROOT
ATOM      1  N   UNL d   1      52.802  32.272  53.401  0.00  0.00    -0.195 N 
ATOM      2  N   UNL d   1      52.494  33.045  53.415  0.00  0.00    -0.163 NA
ATOM      3  C   UNL d   1      53.499  31.999  53.742  0.00  0.00     0.280 C 
ATOM      4  C   UNL d   1      52.312  31.806  52.994  0.00  0.00     0.088 A 
ATOM      5  C   UNL d   1      51.667  32.261  52.728  0.00  0.00     0.040 A 
ATOM      6  C   UNL d   1      51.786  33.024  52.992  0.00  0.00     0.103 A 
ATOM      7  O   UNL d   1      53.701  31.215  53.663  0.00  0.00    -0.265 OA
ATOM      8  C   UNL d   1      52.426  30.976  52.851  0.00  0.00     0.021 C 
ATOM      9  C   UNL d   1      51.264  33.669  52.847  0.00  0.00     0.022 C 
ENDROOT
BRANCH   3  10
ATOM     10  C   UNL d   1      54.002  32.508  54.168  0.00  0.00     0.058 A 
ATOM     11  C   UNL d   1      53.878  32.623  54.974  0.00  0.00     0.007 A 
ATOM     12  C   UNL d   1      54.367  33.122  55.405  0.00  0.00     0.024 A 
ATOM     13  C   UNL d   1      54.985  33.510  55.030  0.00  0.00     0.094 A 
ATOM     14  C   UNL d   1      55.116  33.400  54.223  0.00  0.00     0.024 A 
ATOM     15  C   UNL d   1      54.633  32.904  53.785  0.00  0.00     0.007 A 
BRANCH  13  16
ATOM     16  O   UNL d   1      55.475  34.014  55.479  0.00  0.00    -0.328 OA
ATOM     17  C   UNL d   1      55.936  34.599  55.098  0.00  0.00     0.181 C 
ENDBRANCH  13  16
ENDBRANCH   3  10
TORSDOF 2
ENDMDL
MODEL 6
REMARK VINA RESULT:      -6.5      2.154      2.794
REMARK  2 active torsions:
REMARK  status: ('A' for Active; 'I' for Inactive)
REMARK       I    between atoms: C_3  and  N_1 
REMARK    1  A    between atoms: C_7  and  C_3 
REMARK    2  A    between atoms: O_15  and  C_11 
ROOT
ATOM      1  N   UNL d   1      53.404  31.558  53.497  0.00  0.00    -0.195 N 
ATOM      2  N   UNL d   1      52.585  31.634  53.624  0.00  0.00    -0.163 NA
ATOM      3  C   UNL d   1      53.992  32.112  53.650  0.00  0.00     0.280 C 
ATOM      4  C   UNL d   1      53.553  30.845  53.194  0.00  0.00     0.088 A 
ATOM      5  C   UNL d   1      52.835  30.431  53.113  0.00  0.00     0.040 A 
ATOM      6  C   UNL d   1      52.242  30.924  53.380  0.00  0.00     0.103 A 
ATOM      7  O   UNL d   1      54.767  31.926  53.484  0.00  0.00    -0.265 OA
ATOM      8  C   UNL d   1      54.322  30.550  52.985  0.00  0.00     0.021 C 
ATOM      9  C   UNL d   1      51.424  30.725  53.397  0.00  0.00     0.022 C 
ENDROOT
BRANCH   3  10
ATOM     10  C   UNL d   1      53.813  32.859  53.971  0.00  0.00     0.058 A 
ATOM     11  C   UNL d   1      53.925  32.995  54.776  0.00  0.00     0.007 A 
ATOM     12  C   UNL d   1      53.751  33.728  55.104  0.00  0.00     0.024 A 
ATOM     13  C   UNL d   1      53.464  34.330  54.627  0.00  0.00     0.094 A 
ATOM     14  C   UNL d   1      53.349  34.202  53.820  0.00  0.00     0.024 A 
ATOM     15  C   UNL d   1      53.519  33.474  53.483  0.00  0.00     0.007 A 
BRANCH  13  16
ATOM     16  O   UNL d   1      53.292  35.069  54.973  0.00  0.00    -0.328 OA
ATOM     17  C   UNL d   1      52.810  35.619  54.567  0.00  0.00     0.181 C 
ENDBRANCH  13  16
ENDBRANCH   3  10
TORSDOF 2
ENDMDL
