MODEL 1
REMARK VINA RESULT:      18.6      0.000      0.000
REMARK  0 active torsions:
REMARK  status: ('A' for Active; 'I' for Inactive)
ROOT
ATOM      1  N   UNL d   1      59.674  49.705  51.260  0.00  0.00    -0.300 N 
ATOM      2  C   UNL d   1      60.316  49.705  49.990  0.00  0.00     0.295 A 
ATOM      3  N   UNL d   1      59.567  49.705  49.626  0.00  0.00    -0.205 NA
ATOM      4  C   UNL d   1      60.371  49.705  50.813  0.00  0.00     0.123 A 
ATOM      5  C   UNL d   1      58.945  49.705  50.906  0.00  0.00     0.082 A 
ATOM      6  C   UNL d   1      58.885  49.705  50.091  0.00  0.00     0.101 A 
ATOM      7  O   UNL d   1      60.998  49.705  49.555  0.00  0.00    -0.264 OA
ATOM      8  C   UNL d   1      59.890  49.706  52.041  0.00  0.00     0.080 A 
ATOM      9  C   UNL d   1      61.014  49.706  51.336  0.00  0.00     0.024 A 
ATOM     10  C   UNL d   1      58.259  49.705  51.379  0.00  0.00     0.019 A 
ATOM     11  C   UNL d   1      58.136  49.704  49.727  0.00  0.00     0.021 A 
ATOM     12  C   UNL d   1      60.700  49.706  52.115  0.00  0.00     0.021 A 
ATOM     13  C   UNL d   1      57.510  49.705  51.015  0.00  0.00     0.002 A 
ATOM     14  C   UNL d   1      57.464  49.704  50.202  0.00  0.00     0.002 A 
ENDROOT
TORSDOF 0
ENDMDL
MODEL 2
REMARK VINA RESULT:      20.8      1.562      2.341
REMARK  0 active torsions:
REMARK  status: ('A' for Active; 'I' for Inactive)
ROOT
ATOM      1  N   UNL d   1      58.355  49.706  50.237  0.00  0.00    -0.300 N 
ATOM      2  C   UNL d   1      57.893  49.704  51.583  0.00  0.00     0.295 A 
ATOM      3  N   UNL d   1      57.110  49.704  51.300  0.00  0.00    -0.205 NA
ATOM      4  C   UNL d   1      58.521  49.705  51.049  0.00  0.00     0.123 A 
ATOM      5  C   UNL d   1      57.594  49.706  49.962  0.00  0.00     0.082 A 
ATOM      6  C   UNL d   1      56.968  49.705  50.487  0.00  0.00     0.101 A 
ATOM      7  O   UNL d   1      58.056  49.703  52.375  0.00  0.00    -0.264 OA
ATOM      8  C   UNL d   1      59.066  49.707  49.848  0.00  0.00     0.080 A 
ATOM      9  C   UNL d   1      59.344  49.706  51.146  0.00  0.00     0.024 A 
ATOM     10  C   UNL d   1      57.455  49.707  49.140  0.00  0.00     0.019 A 
ATOM     11  C   UNL d   1      56.184  49.704  50.203  0.00  0.00     0.021 A 
ATOM     12  C   UNL d   1      59.684  49.707  50.378  0.00  0.00     0.021 A 
ATOM     13  C   UNL d   1      56.672  49.707  48.857  0.00  0.00     0.002 A 
ATOM     14  C   UNL d   1      56.057  49.705  49.390  0.00  0.00     0.002 A 
ENDROOT
TORSDOF 0
ENDMDL
