MODEL 1
REMARK VINA RESULT:      20.9      0.000      0.000
REMARK  3 active torsions:
REMARK  status: ('A' for Active; 'I' for Inactive)
REMARK    1  A    between atoms: N_2  and  S_1 
REMARK    2  A    between atoms: N_3  and  S_1 
REMARK    3  A    between atoms: C_6  and  N_3 
ROOT
ATOM      1  S   UNL d   1     -52.155  23.964  33.599  0.00  0.00     0.351 S 
ATOM      2  O   UNL d   1     -51.908  23.189  33.466  0.00  0.00    -0.180 OA
ATOM      3  O   UNL d   1     -52.402  24.737  33.731  0.00  0.00    -0.180 OA
ENDROOT
BRANCH   1   4
ATOM      4  N   UNL d   1     -52.887  23.686  33.853  0.00  0.00    -0.215 N 
ATOM      5  C   UNL d   1     -53.515  23.632  33.312  0.00  0.00     0.093 C 
ATOM      6  C   UNL d   1     -54.240  23.357  33.568  0.00  0.00     0.020 C 
ATOM      7  C   UNL d   1     -54.386  23.238  34.363  0.00  0.00     0.003 C 
ATOM      8  C   UNL d   1     -53.796  23.398  34.913  0.00  0.00     0.020 C 
ATOM      9  C   UNL d   1     -53.057  23.677  34.668  0.00  0.00     0.093 C 
ENDBRANCH   1   4
BRANCH   1  10
ATOM     10  N   UNL d   1     -51.446  24.307  33.357  0.00  0.00    -0.144 NA
BRANCH  10  11
ATOM     11  C   UNL d   1     -51.351  25.142  33.374  0.00  0.00     0.095 A 
ATOM     12  C   UNL d   1     -52.022  25.636  33.397  0.00  0.00     0.020 A 
ATOM     13  C   UNL d   1     -51.928  26.458  33.427  0.00  0.00     0.002 A 
ATOM     14  C   UNL d   1     -51.163  26.787  33.427  0.00  0.00     0.000 A 
ATOM     15  C   UNL d   1     -50.482  26.304  33.406  0.00  0.00     0.002 A 
ATOM     16  C   UNL d   1     -51.079  27.612  33.439  0.00  0.00     0.000 C 
ATOM     17  C   UNL d   1     -50.583  25.471  33.382  0.00  0.00     0.020 A 
ENDBRANCH  10  11
ENDBRANCH   1  10
TORSDOF 3
ENDMDL
