MODEL 1
REMARK VINA RESULT:      54.6      0.000      0.000
REMARK  5 active torsions:
REMARK  status: ('A' for Active; 'I' for Inactive)
REMARK    1  A    between atoms: C_2  and  S_1 
REMARK    2  A    between atoms: N_3  and  S_1 
REMARK    3  A    between atoms: C_10  and  N_3 
REMARK    4  A    between atoms: C_9  and  C_5 
REMARK    5  A    between atoms: O_14  and  C_8 
ROOT
ATOM      1  C   UNL d   1      59.696  49.244  50.925  0.00  0.00     0.127 A 
ATOM      2  C   UNL d   1      59.044  49.221  50.420  0.00  0.00     0.011 A 
ATOM      3  C   UNL d   1      58.300  49.442  50.697  0.00  0.00    -0.022 A 
ATOM      4  C   UNL d   1      59.597  49.487  51.701  0.00  0.00     0.106 A 
ATOM      5  C   UNL d   1      58.209  49.685  51.477  0.00  0.00    -0.002 A 
ATOM      6  C   UNL d   1      58.861  49.707  51.982  0.00  0.00     0.025 A 
ENDROOT
BRANCH   1   7
ATOM      7  S   UNL d   1      60.433  49.024  50.643  0.00  0.00     0.287 S 
ATOM      8  O   UNL d   1      60.314  49.497  49.980  0.00  0.00    -0.198 OA
ATOM      9  O   UNL d   1      60.555  48.553  51.299  0.00  0.00    -0.198 OA
BRANCH   7  10
ATOM     10  N   UNL d   1      61.173  48.806  50.355  0.00  0.00    -0.157 NA
BRANCH  10  11
ATOM     11  C   UNL d   1      61.348  48.011  50.235  0.00  0.00     0.113 A 
ATOM     12  C   UNL d   1      60.926  47.435  50.630  0.00  0.00     0.119 A 
ATOM     13  N   UNL d   1      61.101  46.639  50.510  0.00  0.00    -0.241 NA
ATOM     14  C   UNL d   1      61.708  46.420  49.987  0.00  0.00     0.099 A 
ATOM     15  C   UNL d   1      62.130  47.008  49.592  0.00  0.00     0.022 A 
ATOM     16  C   UNL d   1      61.955  47.803  49.712  0.00  0.00     0.023 A 
ENDBRANCH  10  11
ENDBRANCH   7  10
ENDBRANCH   1   7
BRANCH   4  17
ATOM     17  O   UNL d   1      60.249  49.510  52.206  0.00  0.00    -0.327 OA
ATOM     18  C   UNL d   1      60.143  49.639  53.013  0.00  0.00     0.181 C 
ENDBRANCH   4  17
BRANCH   3  19
ATOM     19  C   UNL d   1      57.648  49.419  50.192  0.00  0.00     0.019 C 
ATOM     20  C   UNL d   1      56.996  49.396  49.687  0.00  0.00     0.004 C 
ATOM     21  C   UNL d   1      57.181  49.130  50.808  0.00  0.00     0.004 C 
ATOM     22  C   UNL d   1      58.115  49.707  49.576  0.00  0.00     0.004 C 
ENDBRANCH   3  19
TORSDOF 5
ENDMDL
