MODEL 1
REMARK VINA RESULT:      -4.3      0.000      0.000
REMARK  5 active torsions:
REMARK  status: ('A' for Active; 'I' for Inactive)
REMARK    1  A    between atoms: N_2  and  C_1 
REMARK    2  A    between atoms: N_3  and  C_1 
REMARK       I    between atoms: C_4  and  N_3 
REMARK    3  A    between atoms: C_11  and  C_4 
REMARK    4  A    between atoms: O_7  and  C_11 
REMARK    5  A    between atoms: C_8  and  O_7 
ROOT
ATOM      1  N   UNL d   1     -42.532-122.041 -51.931  0.00  0.00    -0.178 NA
ATOM      2  C   UNL d   1     -42.764-122.124 -51.137  0.00  0.00     0.304 C 
ATOM      3  O   UNL d   1     -43.530-121.936 -50.909  0.00  0.00    -0.263 OA
ENDROOT
BRANCH   2   4
ATOM      4  C   UNL d   1     -42.224-122.398 -50.574  0.00  0.00     0.158 C 
ATOM      5  C   UNL d   1     -41.583-121.930 -50.364  0.00  0.00     0.032 C 
BRANCH   4   6
ATOM      6  O   UNL d   1     -42.328-123.137 -50.226  0.00  0.00    -0.301 OA
BRANCH   6   7
ATOM      7  C   UNL d   1     -42.182-123.247 -49.427  0.00  0.00     0.111 A 
ATOM      8  C   UNL d   1     -42.749-123.584 -48.931  0.00  0.00     0.081 A 
ATOM      9  C   UNL d   1     -42.594-123.691 -48.128  0.00  0.00     0.025 A 
ATOM     10 CL   UNL d   1     -43.478-123.817 -49.240  0.00  0.00    -0.080 Cl
ATOM     11  C   UNL d   1     -41.873-123.462 -47.817  0.00  0.00     0.059 A 
ATOM     12  C   UNL d   1     -41.297-123.121 -48.311  0.00  0.00     0.013 A 
ATOM     13 CL   UNL d   1     -41.710-123.569 -46.998  0.00  0.00    -0.082 Cl
ATOM     14  C   UNL d   1     -41.451-123.015 -49.111  0.00  0.00     0.026 A 
ENDBRANCH   6   7
ENDBRANCH   4   6
ENDBRANCH   2   4
BRANCH   1  15
ATOM     15  C   UNL d   1     -41.766-122.229 -52.160  0.00  0.00     0.209 C 
ATOM     16  S   UNL d   1     -41.123-121.960 -51.711  0.00  0.00    -0.038 SA
BRANCH  15  17
ATOM     17  N   UNL d   1     -41.629-122.686 -52.834  0.00  0.00    -0.282 N 
ATOM     18  C   UNL d   1     -41.763-122.466 -53.608  0.00  0.00     0.066 A 
ATOM     19  C   UNL d   1     -41.548-123.093 -54.097  0.00  0.00     0.018 A 
ATOM     20  C   UNL d   1     -42.058-121.763 -53.933  0.00  0.00     0.018 A 
ATOM     21  C   UNL d   1     -41.626-123.022 -54.916  0.00  0.00     0.002 A 
ATOM     22  C   UNL d   1     -41.281-123.701 -53.626  0.00  0.00     0.021 A 
ATOM     23  C   UNL d   1     -41.921-122.321 -55.251  0.00  0.00     0.000 A 
ATOM     24  C   UNL d   1     -42.137-121.693 -54.762  0.00  0.00     0.002 A 
ATOM     25  C   UNL d   1     -41.327-123.457 -52.840  0.00  0.00     0.082 A 
ENDBRANCH  15  17
ENDBRANCH   1  15
TORSDOF 5
ENDMDL
