MODEL 1
REMARK VINA RESULT:      -7.7      0.000      0.000
REMARK  5 active torsions:
REMARK  status: ('A' for Active; 'I' for Inactive)
REMARK    1  A    between atoms: C_2  and  N_1 
REMARK    2  A    between atoms: C_4  and  C_7 
REMARK    3  A    between atoms: N_17  and  C_10 
REMARK    4  A    between atoms: C_20  and  N_17 
REMARK    5  A    between atoms: C_21  and  C_20 
ROOT
ATOM      1  C   UNL d   1     -46.803  13.355  22.908  0.00  0.00     0.144 A 
ATOM      2  C   UNL d   1     -47.497  13.775  22.732  0.00  0.00     0.027 A 
ATOM      3  C   UNL d   1     -48.238  13.405  22.817  0.00  0.00     0.021 A 
ATOM      4  C   UNL d   1     -46.847  12.574  23.165  0.00  0.00     0.103 A 
ATOM      5  C   UNL d   1     -48.278  12.617  23.077  0.00  0.00     0.003 A 
ATOM      6  C   UNL d   1     -47.580  12.208  23.249  0.00  0.00     0.021 A 
ENDROOT
BRANCH   3   7
ATOM      7  C   UNL d   1     -48.928  13.818  22.644  0.00  0.00     0.103 A 
ATOM      8  N   UNL d   1     -49.224  14.374  23.181  0.00  0.00    -0.145 NA
ATOM      9  N   UNL d   1     -49.914  14.788  23.008  0.00  0.00    -0.106 NA
ATOM     10  C   UNL d   1     -50.312  14.649  22.299  0.00  0.00     0.297 A 
ATOM     11  C   UNL d   1     -50.017  14.094  21.761  0.00  0.00     0.066 A 
ATOM     12  O   UNL d   1     -51.002  15.063  22.125  0.00  0.00    -0.264 OA
ATOM     13  C   UNL d   1     -49.321  13.674  21.933  0.00  0.00     0.024 A 
ATOM     14  C   UNL d   1     -49.029  13.122  21.397  0.00  0.00     0.002 C 
ENDBRANCH   3   7
BRANCH   1  15
ATOM     15  N   UNL d   1     -46.069  13.730  22.820  0.00  0.00    -0.112 N 
ATOM     16  O   UNL d   1     -45.811  14.259  23.406  0.00  0.00    -0.532 OA
ATOM     17  O   UNL d   1     -45.597  13.582  22.161  0.00  0.00    -0.532 OA
ENDBRANCH   1  15
BRANCH   4  18
ATOM     18  N   UNL d   1     -46.156  12.160  23.338  0.00  0.00    -0.239 NA
BRANCH  18  19
ATOM     19  C   UNL d   1     -46.194  11.360  23.545  0.00  0.00     0.144 C 
BRANCH  19  20
ATOM     20  C   UNL d   1     -45.506  10.934  23.697  0.00  0.00     0.255 C 
ATOM     21  O   UNL d   1     -45.510  10.111  23.687  0.00  0.00    -0.281 OA
ENDBRANCH  19  20
ENDBRANCH  18  19
ENDBRANCH   4  18
TORSDOF 5
ENDMDL
MODEL 2
REMARK VINA RESULT:      -7.1      1.341      4.390
REMARK  5 active torsions:
REMARK  status: ('A' for Active; 'I' for Inactive)
REMARK    1  A    between atoms: C_2  and  N_1 
REMARK    2  A    between atoms: C_4  and  C_7 
REMARK    3  A    between atoms: N_17  and  C_10 
REMARK    4  A    between atoms: C_20  and  N_17 
REMARK    5  A    between atoms: C_21  and  C_20 
ROOT
ATOM      1  C   UNL d   1     -48.983  12.893  22.625  0.00  0.00     0.144 A 
ATOM      2  C   UNL d   1     -48.249  12.509  22.697  0.00  0.00     0.027 A 
ATOM      3  C   UNL d   1     -47.606  12.907  23.046  0.00  0.00     0.021 A 
ATOM      4  C   UNL d   1     -49.073  13.664  22.898  0.00  0.00     0.103 A 
ATOM      5  C   UNL d   1     -47.703  13.685  23.320  0.00  0.00     0.003 A 
ATOM      6  C   UNL d   1     -48.437  14.057  23.244  0.00  0.00     0.021 A 
ENDROOT
BRANCH   3   7
ATOM      7  C   UNL d   1     -46.879  12.530  23.119  0.00  0.00     0.103 A 
ATOM      8  N   UNL d   1     -46.797  11.881  23.625  0.00  0.00    -0.145 NA
ATOM      9  N   UNL d   1     -46.069  11.503  23.698  0.00  0.00    -0.106 NA
ATOM     10  C   UNL d   1     -45.419  11.772  23.266  0.00  0.00     0.297 A 
ATOM     11  C   UNL d   1     -45.500  12.421  22.759  0.00  0.00     0.066 A 
ATOM     12  O   UNL d   1     -44.691  11.395  23.338  0.00  0.00    -0.264 OA
ATOM     13  C   UNL d   1     -46.234  12.804  22.683  0.00  0.00     0.024 A 
ATOM     14  C   UNL d   1     -46.312  13.450  22.179  0.00  0.00     0.002 C 
ENDBRANCH   3   7
BRANCH   1  15
ATOM     15  N   UNL d   1     -49.618  12.490  22.276  0.00  0.00    -0.112 N 
ATOM     16  O   UNL d   1     -49.738  12.553  21.457  0.00  0.00    -0.532 OA
ATOM     17  O   UNL d   1     -50.127  12.032  22.734  0.00  0.00    -0.532 OA
ENDBRANCH   1  15
BRANCH   4  18
ATOM     18  N   UNL d   1     -49.802  14.041  22.825  0.00  0.00    -0.239 NA
BRANCH  18  19
ATOM     19  C   UNL d   1     -49.893  14.819  23.091  0.00  0.00     0.144 C 
BRANCH  19  20
ATOM     20  C   UNL d   1     -50.645  15.140  23.197  0.00  0.00     0.255 C 
ATOM     21  O   UNL d   1     -50.804  15.918  22.983  0.00  0.00    -0.281 OA
ENDBRANCH  19  20
ENDBRANCH  18  19
ENDBRANCH   4  18
TORSDOF 5
ENDMDL
MODEL 3
REMARK VINA RESULT:      -6.3      1.173      4.151
REMARK  5 active torsions:
REMARK  status: ('A' for Active; 'I' for Inactive)
REMARK    1  A    between atoms: C_2  and  N_1 
REMARK    2  A    between atoms: C_4  and  C_7 
REMARK    3  A    between atoms: N_17  and  C_10 
REMARK    4  A    between atoms: C_20  and  N_17 
REMARK    5  A    between atoms: C_21  and  C_20 
ROOT
ATOM      1  C   UNL d   1     -48.353  14.027  22.549  0.00  0.00     0.144 A 
ATOM      2  C   UNL d   1     -47.695  13.580  22.790  0.00  0.00     0.027 A 
ATOM      3  C   UNL d   1     -47.720  12.749  22.744  0.00  0.00     0.021 A 
ATOM      4  C   UNL d   1     -49.026  13.649  22.264  0.00  0.00     0.103 A 
ATOM      5  C   UNL d   1     -48.401  12.372  22.456  0.00  0.00     0.003 A 
ATOM      6  C   UNL d   1     -49.051  12.826  22.218  0.00  0.00     0.021 A 
ENDROOT
BRANCH   3   7
ATOM      7  C   UNL d   1     -47.070  12.304  22.982  0.00  0.00     0.103 A 
ATOM      8  N   UNL d   1     -46.308  12.524  22.748  0.00  0.00    -0.145 NA
ATOM      9  N   UNL d   1     -45.658  12.079  22.986  0.00  0.00    -0.106 NA
ATOM     10  C   UNL d   1     -45.766  11.411  23.459  0.00  0.00     0.297 A 
ATOM     11  C   UNL d   1     -46.528  11.190  23.694  0.00  0.00     0.066 A 
ATOM     12  O   UNL d   1     -45.117  10.965  23.698  0.00  0.00    -0.264 OA
ATOM     13  C   UNL d   1     -47.186  11.638  23.455  0.00  0.00     0.024 A 
ATOM     14  C   UNL d   1     -47.943  11.415  23.689  0.00  0.00     0.002 C 
ENDBRANCH   3   7
BRANCH   1  15
ATOM     15  N   UNL d   1     -48.321  14.854  22.598  0.00  0.00    -0.112 N 
ATOM     16  O   UNL d   1     -48.583  15.230  23.290  0.00  0.00    -0.532 OA
ATOM     17  O   UNL d   1     -48.033  15.301  21.969  0.00  0.00    -0.532 OA
ENDBRANCH   1  15
BRANCH   4  18
ATOM     18  N   UNL d   1     -49.677  14.095  22.026  0.00  0.00    -0.239 NA
BRANCH  18  19
ATOM     19  C   UNL d   1     -50.343  13.719  21.711  0.00  0.00     0.144 C 
BRANCH  19  20
ATOM     20  C   UNL d   1     -51.049  14.133  21.613  0.00  0.00     0.255 C 
ATOM     21  O   UNL d   1     -51.063  14.850  21.209  0.00  0.00    -0.281 OA
ENDBRANCH  19  20
ENDBRANCH  18  19
ENDBRANCH   4  18
TORSDOF 5
ENDMDL
