MODEL 1
REMARK VINA RESULT:      10.5      0.000      0.000
REMARK  7 active torsions:
REMARK  status: ('A' for Active; 'I' for Inactive)
REMARK    1  A    between atoms: C_7  and  C_1 
REMARK    2  A    between atoms: N_5  and  C_2 
REMARK       I    between atoms: C_8  and  N_5 
REMARK    3  A    between atoms: N_9  and  C_7 
REMARK    4  A    between atoms: C_11  and  C_7 
REMARK    5  A    between atoms: C_15  and  C_8 
REMARK    6  A    between atoms: O_25  and  C_20 
REMARK    7  A    between atoms: C_29  and  O_25 
ROOT
ATOM      1  C   UNL d   1      32.332  19.051 -23.721  0.00  0.00     0.066 C 
ENDROOT
BRANCH   1   2
ATOM      2  C   UNL d   1      31.984  18.440 -24.146  0.00  0.00     0.041 A 
ATOM      3  C   UNL d   1      31.220  18.350 -24.438  0.00  0.00     0.115 A 
ATOM      4  S   UNL d   1      31.185  17.620 -24.824  0.00  0.00    -0.068 SA
ATOM      5  C   UNL d   1      31.928  17.274 -24.762  0.00  0.00     0.031 A 
ATOM      6  C   UNL d   1      32.426  17.778 -24.343  0.00  0.00     0.009 A 
ATOM      7  C   UNL d   1      32.112  16.506 -25.096  0.00  0.00     0.007 C 
ATOM      8  C   UNL d   1      33.239  17.663 -24.140  0.00  0.00     0.001 C 
BRANCH   3   9
ATOM      9  N   UNL d   1      30.585  18.873 -24.375  0.00  0.00    -0.201 NA
ATOM     10  C   UNL d   1      29.817  18.595 -24.248  0.00  0.00     0.280 C 
ATOM     11  O   UNL d   1      29.182  19.140 -24.186  0.00  0.00    -0.265 OA
BRANCH  10  12
ATOM     12  C   UNL d   1      29.687  17.791 -24.186  0.00  0.00     0.058 A 
ATOM     13  C   UNL d   1      29.363  17.383 -24.812  0.00  0.00     0.005 A 
ATOM     14  C   UNL d   1      29.232  16.583 -24.753  0.00  0.00     0.000 A 
ATOM     15  C   UNL d   1      29.423  16.186 -24.072  0.00  0.00     0.000 A 
ATOM     16  C   UNL d   1      29.750  16.591 -23.435  0.00  0.00     0.000 A 
ATOM     17  C   UNL d   1      29.885  17.398 -23.488  0.00  0.00     0.005 A 
ENDBRANCH  10  12
ENDBRANCH   3   9
ENDBRANCH   1   2
BRANCH   1  18
ATOM     18  N   UNL d   1      32.556  18.934 -22.931  0.00  0.00    -0.301 N 
ATOM     19  C   UNL d   1      32.486  19.560 -22.367  0.00  0.00     0.100 A 
ATOM     20  C   UNL d   1      32.721  19.413 -21.573  0.00  0.00     0.100 A 
ATOM     21  N   UNL d   1      33.014  18.682 -21.326  0.00  0.00    -0.299 N 
ATOM     22  C   UNL d   1      33.083  18.056 -21.889  0.00  0.00     0.100 A 
ATOM     23  C   UNL d   1      33.239  18.563 -20.531  0.00  0.00     0.100 C 
ATOM     24  C   UNL d   1      32.856  18.190 -22.672  0.00  0.00     0.100 A 
ENDBRANCH   1  18
BRANCH   1  25
ATOM     25  C   UNL d   1      32.467  19.789 -24.070  0.00  0.00     0.016 A 
ATOM     26  C   UNL d   1      31.971  20.415 -23.892  0.00  0.00     0.004 A 
ATOM     27  C   UNL d   1      32.085  21.152 -24.225  0.00  0.00     0.025 A 
ATOM     28  C   UNL d   1      32.712  21.284 -24.757  0.00  0.00     0.100 A 
ATOM     29  C   UNL d   1      33.239  20.644 -24.954  0.00  0.00     0.025 A 
ATOM     30  C   UNL d   1      33.107  19.888 -24.602  0.00  0.00     0.004 A 
BRANCH  28  31
ATOM     31  O   UNL d   1      32.827  22.026 -25.092  0.00  0.00    -0.305 OA
BRANCH  31  32
ATOM     32  C   UNL d   1      32.953  22.693 -24.610  0.00  0.00     0.123 C 
ATOM     33  C   UNL d   1      33.064  23.440 -24.947  0.00  0.00     0.029 C 
ENDBRANCH  31  32
ENDBRANCH  28  31
ENDBRANCH   1  25
TORSDOF 7
ENDMDL
