MODEL 1
REMARK VINA RESULT:      58.4      0.000      0.000
REMARK  4 active torsions:
REMARK  status: ('A' for Active; 'I' for Inactive)
REMARK    1  A    between atoms: N_4  and  C_2 
REMARK       I    between atoms: C_3  and  N_4 
REMARK    2  A    between atoms: C_10  and  C_3 
REMARK    3  A    between atoms: C_12  and  N_4 
REMARK    4  A    between atoms: O_18  and  C_15 
ROOT
ATOM      1  C   UNL d   1     -51.791  25.920  34.239  0.00  0.00     0.265 C 
ATOM      2  N   UNL d   1     -51.867  24.752  33.798  0.00  0.00    -0.274 N 
ATOM      3  O   UNL d   1     -52.513  26.243  34.361  0.00  0.00    -0.267 OA
ENDROOT
BRANCH   2   4
ATOM      4  C   UNL d   1     -51.181  24.394  33.663  0.00  0.00     0.079 A 
ATOM      5  C   UNL d   1     -50.496  24.748  33.508  0.00  0.00     0.116 A 
ATOM      6  S   UNL d   1     -49.955  24.192  33.409  0.00  0.00     0.213 S 
ATOM      7  C   UNL d   1     -50.308  23.497  33.502  0.00  0.00     0.100 A 
ATOM      8  O   UNL d   1     -49.413  23.635  33.309  0.00  0.00    -0.217 OA
ATOM      9  O   UNL d   1     -49.575  24.863  33.310  0.00  0.00    -0.217 OA
ATOM     10  C   UNL d   1     -51.060  23.622  33.658  0.00  0.00     0.030 A 
ENDBRANCH   2   4
BRANCH   2  11
ATOM     11  C   UNL d   1     -52.590  24.385  33.659  0.00  0.00     0.067 A 
ATOM     12  C   UNL d   1     -53.236  24.839  33.449  0.00  0.00     0.018 A 
ATOM     13  C   UNL d   1     -53.974  24.467  33.306  0.00  0.00     0.002 A 
ATOM     14  C   UNL d   1     -54.047  23.650  33.379  0.00  0.00     0.000 A 
ATOM     15  C   UNL d   1     -53.392  23.194  33.592  0.00  0.00     0.002 A 
ATOM     16  C   UNL d   1     -52.664  23.551  33.733  0.00  0.00     0.018 A 
ENDBRANCH   2  11
BRANCH   1  17
ATOM     17  C   UNL d   1     -51.077  26.308  34.386  0.00  0.00     0.057 A 
ATOM     18  C   UNL d   1     -50.623  26.123  35.064  0.00  0.00     0.007 A 
ATOM     19  C   UNL d   1     -49.912  26.517  35.200  0.00  0.00     0.024 A 
ATOM     20  C   UNL d   1     -49.642  27.096  34.673  0.00  0.00     0.094 A 
ATOM     21  C   UNL d   1     -50.085  27.285  34.002  0.00  0.00     0.024 A 
ATOM     22  C   UNL d   1     -50.810  26.892  33.849  0.00  0.00     0.007 A 
BRANCH  20  23
ATOM     23  O   UNL d   1     -48.922  27.490  34.819  0.00  0.00    -0.328 OA
ATOM     24  C   UNL d   1     -48.707  28.164  34.372  0.00  0.00     0.181 C 
ENDBRANCH  20  23
ENDBRANCH   1  17
TORSDOF 4
ENDMDL
