MODEL 1
REMARK VINA RESULT:      28.2      0.000      0.000
REMARK  5 active torsions:
REMARK  status: ('A' for Active; 'I' for Inactive)
REMARK       I    between atoms: C_2  and  N_6 
REMARK    1  A    between atoms: C_7  and  C_2 
REMARK    2  A    between atoms: N_3  and  C_4 
REMARK    3  A    between atoms: C_12  and  N_5 
REMARK    4  A    between atoms: N_6  and  C_18 
REMARK    5  A    between atoms: O_33  and  C_30 
ROOT
ATOM      1  C   UNL d   1     -41.836-121.375 -52.722  0.00  0.00     0.086 A 
ATOM      2  C   UNL d   1     -41.928-122.168 -52.528  0.00  0.00     0.074 A 
ATOM      3  C   UNL d   1     -41.833-120.801 -52.134  0.00  0.00     0.102 C 
ATOM      4  N   UNL d   1     -41.831-120.231 -51.543  0.00  0.00    -0.191 NA
ATOM      5  C   UNL d   1     -41.931-122.741 -53.117  0.00  0.00     0.020 A 
ATOM      6  C   UNL d   1     -41.745-121.149 -53.517  0.00  0.00     0.031 A 
ATOM      7  C   UNL d   1     -41.746-121.717 -54.111  0.00  0.00     0.085 A 
ATOM      8  C   UNL d   1     -41.840-122.525 -53.914  0.00  0.00     0.021 A 
ENDROOT
BRANCH   2   9
ATOM      9  N   UNL d   1     -42.020-122.399 -51.741  0.00  0.00    -0.301 N 
ATOM     10  C   UNL d   1     -41.438-122.862 -51.390  0.00  0.00     0.100 A 
ATOM     11  C   UNL d   1     -41.524-123.099 -50.599  0.00  0.00     0.100 A 
ATOM     12  N   UNL d   1     -42.193-122.866 -50.173  0.00  0.00    -0.301 N 
ATOM     13  C   UNL d   1     -42.773-122.400 -50.532  0.00  0.00     0.100 A 
ATOM     14  C   UNL d   1     -42.689-122.166 -51.315  0.00  0.00     0.100 A 
BRANCH  12  15
ATOM     15  C   UNL d   1     -42.278-123.103 -49.381  0.00  0.00     0.064 A 
ATOM     16  C   UNL d   1     -41.720-122.874 -48.822  0.00  0.00     0.020 A 
ATOM     17  C   UNL d   1     -41.804-123.109 -48.034  0.00  0.00     0.026 A 
ATOM     18  C   UNL d   1     -42.451-123.578 -47.801  0.00  0.00     0.094 A 
ATOM     19  C   UNL d   1     -43.019-123.812 -48.365  0.00  0.00     0.026 A 
ATOM     20  C   UNL d   1     -42.931-123.574 -49.154  0.00  0.00     0.020 A 
BRANCH  18  21
ATOM     21  O   UNL d   1     -42.542-123.817 -47.015  0.00  0.00    -0.328 OA
ATOM     22  C   UNL d   1     -43.291-123.804 -46.676  0.00  0.00     0.181 C 
ENDBRANCH  18  21
ENDBRANCH  12  15
ENDBRANCH   2   9
BRANCH   7  23
ATOM     23  N   UNL d   1     -41.656-121.497 -54.900  0.00  0.00    -0.208 NA
ATOM     24  C   UNL d   1     -42.304-121.505 -55.404  0.00  0.00     0.279 C 
ATOM     25  O   UNL d   1     -43.043-121.732 -55.126  0.00  0.00    -0.265 OA
BRANCH  24  26
ATOM     26  C   UNL d   1     -42.211-121.284 -56.196  0.00  0.00     0.060 A 
ATOM     27  C   UNL d   1     -41.686-120.696 -56.396  0.00  0.00     0.031 A 
ATOM     28  C   UNL d   1     -41.596-120.478 -57.186  0.00  0.00     0.119 A 
ATOM     29  O   UNL d   1     -41.124-119.920 -57.550  0.00  0.00    -0.300 OA
ATOM     30  C   UNL d   1     -42.036-120.855 -57.762  0.00  0.00     0.119 A 
ATOM     31  C   UNL d   1     -41.270-119.949 -58.359  0.00  0.00     0.304 A 
ATOM     32  O   UNL d   1     -41.834-120.528 -58.490  0.00  0.00    -0.300 OA
ATOM     33  C   UNL d   1     -42.567-121.450 -57.563  0.00  0.00     0.026 A 
ATOM     34  C   UNL d   1     -42.656-121.666 -56.779  0.00  0.00     0.007 A 
ENDBRANCH  24  26
ENDBRANCH   7  23
TORSDOF 5
ENDMDL
MODEL 2
REMARK VINA RESULT:      31.0      0.963      7.329
REMARK  5 active torsions:
REMARK  status: ('A' for Active; 'I' for Inactive)
REMARK       I    between atoms: C_2  and  N_6 
REMARK    1  A    between atoms: C_7  and  C_2 
REMARK    2  A    between atoms: N_3  and  C_4 
REMARK    3  A    between atoms: C_12  and  N_5 
REMARK    4  A    between atoms: N_6  and  C_18 
REMARK    5  A    between atoms: O_33  and  C_30 
ROOT
ATOM      1  C   UNL d   1     -41.678-121.847 -52.371  0.00  0.00     0.086 A 
ATOM      2  C   UNL d   1     -41.876-122.332 -53.004  0.00  0.00     0.074 A 
ATOM      3  C   UNL d   1     -41.442-121.071 -52.501  0.00  0.00     0.102 C 
ATOM      4  N   UNL d   1     -41.206-120.295 -52.636  0.00  0.00    -0.191 NA
ATOM      5  C   UNL d   1     -42.112-123.108 -52.874  0.00  0.00     0.020 A 
ATOM      6  C   UNL d   1     -41.717-122.140 -51.595  0.00  0.00     0.031 A 
ATOM      7  C   UNL d   1     -41.952-122.915 -51.457  0.00  0.00     0.085 A 
ATOM      8  C   UNL d   1     -42.154-123.410 -52.101  0.00  0.00     0.021 A 
ENDROOT
BRANCH   2   9
ATOM      9  N   UNL d   1     -41.840-122.047 -53.779  0.00  0.00    -0.301 N 
ATOM     10  C   UNL d   1     -41.514-121.306 -53.918  0.00  0.00     0.100 A 
ATOM     11  C   UNL d   1     -41.475-121.014 -54.694  0.00  0.00     0.100 A 
ATOM     12  N   UNL d   1     -41.765-121.472 -55.318  0.00  0.00    -0.301 N 
ATOM     13  C   UNL d   1     -42.092-122.216 -55.170  0.00  0.00     0.100 A 
ATOM     14  C   UNL d   1     -42.131-122.505 -54.403  0.00  0.00     0.100 A 
BRANCH  12  15
ATOM     15  C   UNL d   1     -41.726-121.179 -56.094  0.00  0.00     0.064 A 
ATOM     16  C   UNL d   1     -41.590-120.379 -56.225  0.00  0.00     0.020 A 
ATOM     17  C   UNL d   1     -41.551-120.087 -56.997  0.00  0.00     0.026 A 
ATOM     18  C   UNL d   1     -41.648-120.598 -57.647  0.00  0.00     0.094 A 
ATOM     19  C   UNL d   1     -41.785-121.410 -57.519  0.00  0.00     0.026 A 
ATOM     20  C   UNL d   1     -41.824-121.699 -56.743  0.00  0.00     0.020 A 
BRANCH  18  21
ATOM     21  O   UNL d   1     -41.610-120.313 -58.422  0.00  0.00    -0.328 OA
ATOM     22  C   UNL d   1     -42.307-120.125 -58.814  0.00  0.00     0.181 C 
ENDBRANCH  18  21
ENDBRANCH  12  15
ENDBRANCH   2   9
BRANCH   7  23
ATOM     23  N   UNL d   1     -41.991-123.209 -50.688  0.00  0.00    -0.208 NA
ATOM     24  C   UNL d   1     -42.180-122.708 -50.067  0.00  0.00     0.279 C 
ATOM     25  O   UNL d   1     -42.331-121.912 -50.207  0.00  0.00    -0.265 OA
BRANCH  24  26
ATOM     26  C   UNL d   1     -42.219-123.005 -49.296  0.00  0.00     0.060 A 
ATOM     27  C   UNL d   1     -41.628-122.835 -48.763  0.00  0.00     0.031 A 
ATOM     28  C   UNL d   1     -41.670-123.134 -47.995  0.00  0.00     0.119 A 
ATOM     29  O   UNL d   1     -41.173-123.061 -47.351  0.00  0.00    -0.300 OA
ATOM     30  C   UNL d   1     -42.306-123.597 -47.776  0.00  0.00     0.119 A 
ATOM     31  C   UNL d   1     -41.501-123.482 -46.726  0.00  0.00     0.304 A 
ATOM     32  O   UNL d   1     -42.202-123.813 -46.989  0.00  0.00    -0.300 OA
ATOM     33  C   UNL d   1     -42.905-123.770 -48.311  0.00  0.00     0.026 A 
ATOM     34  C   UNL d   1     -42.862-123.474 -49.073  0.00  0.00     0.007 A 
ENDBRANCH  24  26
ENDBRANCH   7  23
TORSDOF 5
ENDMDL
