MODEL 1
REMARK VINA RESULT:      68.4      0.000      0.000
REMARK  9 active torsions:
REMARK  status: ('A' for Active; 'I' for Inactive)
REMARK    1  A    between atoms: N_6  and  C_1 
REMARK    2  A    between atoms: N_2  and  C_12 
REMARK    3  A    between atoms: C_3  and  N_6 
REMARK    4  A    between atoms: N_4  and  C_3 
REMARK       I    between atoms: C_7  and  N_4 
REMARK    5  A    between atoms: C_16  and  C_7 
REMARK    6  A    between atoms: C_10  and  C_8 
REMARK    7  A    between atoms: C_13  and  C_10 
REMARK    8  A    between atoms: O_24  and  C_13 
REMARK    9  A    between atoms: C_25  and  O_24 
ROOT
ATOM      1  C   UNL d   1      61.023  48.160  50.497  0.00  0.00     0.277 C 
ATOM      2  S   UNL d   1      61.563  48.769  50.635  0.00  0.00    -0.023 SA
ENDROOT
BRANCH   1   3
ATOM      3  N   UNL d   1      61.296  47.411  50.283  0.00  0.00    -0.347 NA
BRANCH   3   4
ATOM      4  C   UNL d   1      61.564  46.662  50.073  0.00  0.00     0.248 A 
ATOM      5  N   UNL d   1      61.494  45.967  50.522  0.00  0.00    -0.210 NA
ATOM      6  C   UNL d   1      61.841  45.352  50.096  0.00  0.00     0.096 A 
ATOM      7  C   UNL d   1      62.125  45.666  49.386  0.00  0.00     0.059 A 
ATOM      8  S   UNL d   1      61.956  46.464  49.373  0.00  0.00    -0.033 SA
BRANCH   6   9
ATOM      9  C   UNL d   1      61.893  44.569  50.337  0.00  0.00     0.088 C 
BRANCH   9  10
ATOM     10  C   UNL d   1      61.376  44.272  50.903  0.00  0.00     0.302 C 
ATOM     11  O   UNL d   1      60.566  44.391  50.811  0.00  0.00    -0.259 OA
BRANCH  10  12
ATOM     12  O   UNL d   1      61.661  43.860  51.553  0.00  0.00    -0.271 OA
BRANCH  12  13
ATOM     13  C   UNL d   1      62.215  43.258  51.451  0.00  0.00     0.126 C 
ATOM     14  C   UNL d   1      61.996  42.474  51.560  0.00  0.00     0.029 C 
ENDBRANCH  12  13
ENDBRANCH  10  12
ENDBRANCH   9  10
ENDBRANCH   6   9
ENDBRANCH   3   4
ENDBRANCH   1   3
BRANCH   1  15
ATOM     15  N   UNL d   1      60.216  48.305  50.576  0.00  0.00    -0.168 NA
ATOM     16  C   UNL d   1      59.919  49.072  50.486  0.00  0.00     0.282 C 
ATOM     17  O   UNL d   1      60.429  49.693  50.317  0.00  0.00    -0.265 OA
BRANCH  16  18
ATOM     18  C   UNL d   1      59.108  49.210  50.567  0.00  0.00     0.058 A 
ATOM     19  C   UNL d   1      58.599  49.025  49.959  0.00  0.00     0.006 A 
ATOM     20  C   UNL d   1      57.787  49.164  50.040  0.00  0.00     0.024 A 
ATOM     21  C   UNL d   1      57.494  49.491  50.741  0.00  0.00     0.127 A 
ATOM     22  C   UNL d   1      58.016  49.679  51.358  0.00  0.00     0.024 A 
ATOM     23  C   UNL d   1      58.820  49.539  51.273  0.00  0.00     0.006 A 
BRANCH  21  24
ATOM     24  N   UNL d   1      56.688  49.632  50.827  0.00  0.00    -0.114 N 
ATOM     25  O   UNL d   1      56.356  49.704  51.581  0.00  0.00    -0.532 OA
ATOM     26  O   UNL d   1      56.213  49.699  50.161  0.00  0.00    -0.532 OA
ENDBRANCH  21  24
ENDBRANCH  16  18
ENDBRANCH   1  15
TORSDOF 9
ENDMDL
MODEL 2
REMARK VINA RESULT:      71.4      1.246      5.725
REMARK  9 active torsions:
REMARK  status: ('A' for Active; 'I' for Inactive)
REMARK    1  A    between atoms: N_6  and  C_1 
REMARK    2  A    between atoms: N_2  and  C_12 
REMARK    3  A    between atoms: C_3  and  N_6 
REMARK    4  A    between atoms: N_4  and  C_3 
REMARK       I    between atoms: C_7  and  N_4 
REMARK    5  A    between atoms: C_16  and  C_7 
REMARK    6  A    between atoms: C_10  and  C_8 
REMARK    7  A    between atoms: C_13  and  C_10 
REMARK    8  A    between atoms: O_24  and  C_13 
REMARK    9  A    between atoms: C_25  and  O_24 
ROOT
ATOM      1  C   UNL d   1      61.512  47.680  50.221  0.00  0.00     0.277 C 
ATOM      2  S   UNL d   1      62.052  47.929  49.649  0.00  0.00    -0.023 SA
ENDROOT
BRANCH   1   3
ATOM      3  N   UNL d   1      60.962  48.215  50.526  0.00  0.00    -0.347 NA
BRANCH   3   4
ATOM      4  C   UNL d   1      60.409  48.744  50.828  0.00  0.00     0.248 A 
ATOM      5  N   UNL d   1      59.625  48.840  50.573  0.00  0.00    -0.210 NA
ATOM      6  C   UNL d   1      59.278  49.432  51.033  0.00  0.00     0.096 A 
ATOM      7  C   UNL d   1      59.847  49.700  51.569  0.00  0.00     0.059 A 
ATOM      8  S   UNL d   1      60.536  49.281  51.444  0.00  0.00    -0.033 SA
BRANCH   6   9
ATOM      9  C   UNL d   1      58.506  49.702  50.965  0.00  0.00     0.088 C 
BRANCH   9  10
ATOM     10  C   UNL d   1      58.025  49.441  50.353  0.00  0.00     0.302 C 
ATOM     11  O   UNL d   1      58.168  49.708  49.586  0.00  0.00    -0.259 OA
BRANCH  10  12
ATOM     12  O   UNL d   1      57.407  48.922  50.500  0.00  0.00    -0.271 OA
BRANCH  12  13
ATOM     13  C   UNL d   1      56.710  48.972  50.062  0.00  0.00     0.126 C 
ATOM     14  C   UNL d   1      56.275  49.668  50.058  0.00  0.00     0.029 C 
ENDBRANCH  12  13
ENDBRANCH  10  12
ENDBRANCH   9  10
ENDBRANCH   6   9
ENDBRANCH   3   4
ENDBRANCH   1   3
BRANCH   1  15
ATOM     15  N   UNL d   1      61.526  46.899  50.482  0.00  0.00    -0.168 NA
ATOM     16  C   UNL d   1      61.685  46.285  49.952  0.00  0.00     0.282 C 
ATOM     17  O   UNL d   1      61.831  46.451  49.161  0.00  0.00    -0.265 OA
BRANCH  16  18
ATOM     18  C   UNL d   1      61.698  45.503  50.221  0.00  0.00     0.058 A 
ATOM     19  C   UNL d   1      62.235  44.973  49.915  0.00  0.00     0.006 A 
ATOM     20  C   UNL d   1      62.247  44.191  50.185  0.00  0.00     0.024 A 
ATOM     21  C   UNL d   1      61.712  43.948  50.766  0.00  0.00     0.127 A 
ATOM     22  C   UNL d   1      61.165  44.491  51.076  0.00  0.00     0.024 A 
ATOM     23  C   UNL d   1      61.157  45.265  50.805  0.00  0.00     0.006 A 
BRANCH  21  24
ATOM     24  N   UNL d   1      61.719  43.171  51.039  0.00  0.00    -0.114 N 
ATOM     25  O   UNL d   1      62.347  42.669  50.848  0.00  0.00    -0.532 OA
ATOM     26  O   UNL d   1      61.098  42.897  51.501  0.00  0.00    -0.532 OA
ENDBRANCH  21  24
ENDBRANCH  16  18
ENDBRANCH   1  15
TORSDOF 9
ENDMDL
