MODEL 1
REMARK VINA RESULT:      -2.9      0.000      0.000
REMARK  0 active torsions:
REMARK  status: ('A' for Active; 'I' for Inactive)
ROOT
ATOM      1  C   UNL d   1      29.974  16.500 -23.975  0.00  0.00     0.061 A 
ATOM      2  C   UNL d   1      30.441  16.968 -24.470  0.00  0.00     0.279 A 
ATOM      3  C   UNL d   1      29.159  16.609 -23.955  0.00  0.00     0.045 A 
ATOM      4  N   UNL d   1      30.090  17.542 -24.941  0.00  0.00    -0.206 NA
ATOM      5  C   UNL d   1      28.694  16.137 -23.457  0.00  0.00     0.196 A 
ATOM      6  O   UNL d   1      31.256  16.858 -24.491  0.00  0.00    -0.265 OA
ATOM      7  C   UNL d   1      29.270  17.649 -24.917  0.00  0.00     0.102 A 
ATOM      8  O   UNL d   1      27.878  16.247 -23.436  0.00  0.00    -0.287 OA
ATOM      9  C   UNL d   1      28.809  17.177 -24.420  0.00  0.00     0.024 A 
ATOM     10  C   UNL d   1      30.332  15.917 -23.498  0.00  0.00     0.005 A 
ATOM     11  C   UNL d   1      29.868  15.453 -23.007  0.00  0.00     0.003 A 
ATOM     12  C   UNL d   1      29.051  15.562 -22.986  0.00  0.00     0.042 A 
ENDROOT
TORSDOF 0
ENDMDL
MODEL 2
REMARK VINA RESULT:      -2.8      1.163      2.177
REMARK  0 active torsions:
REMARK  status: ('A' for Active; 'I' for Inactive)
ROOT
ATOM      1  C   UNL d   1      29.772  16.892 -24.179  0.00  0.00     0.061 A 
ATOM      2  C   UNL d   1      28.970  17.060 -24.274  0.00  0.00     0.279 A 
ATOM      3  C   UNL d   1      30.005  16.257 -23.710  0.00  0.00     0.045 A 
ATOM      4  N   UNL d   1      28.406  16.594 -23.902  0.00  0.00    -0.206 NA
ATOM      5  C   UNL d   1      30.812  16.090 -23.616  0.00  0.00     0.196 A 
ATOM      6  O   UNL d   1      28.736  17.696 -24.742  0.00  0.00    -0.265 OA
ATOM      7  C   UNL d   1      28.644  15.956 -23.432  0.00  0.00     0.102 A 
ATOM      8  O   UNL d   1      31.045  15.455 -23.148  0.00  0.00    -0.287 OA
ATOM      9  C   UNL d   1      29.449  15.793 -23.340  0.00  0.00     0.024 A 
ATOM     10  C   UNL d   1      30.343  17.367 -24.557  0.00  0.00     0.005 A 
ATOM     11  C   UNL d   1      31.140  17.198 -24.462  0.00  0.00     0.003 A 
ATOM     12  C   UNL d   1      31.373  16.562 -23.993  0.00  0.00     0.042 A 
ENDROOT
TORSDOF 0
ENDMDL
MODEL 3
REMARK VINA RESULT:      -2.8      0.893      2.605
REMARK  0 active torsions:
REMARK  status: ('A' for Active; 'I' for Inactive)
ROOT
ATOM      1  C   UNL d   1      29.150  16.623 -23.950  0.00  0.00     0.061 A 
ATOM      2  C   UNL d   1      28.661  16.202 -23.435  0.00  0.00     0.279 A 
ATOM      3  C   UNL d   1      29.955  16.456 -23.980  0.00  0.00     0.045 A 
ATOM      4  N   UNL d   1      28.979  15.618 -22.955  0.00  0.00    -0.206 NA
ATOM      5  C   UNL d   1      30.444  16.881 -24.498  0.00  0.00     0.196 A 
ATOM      6  O   UNL d   1      27.856  16.369 -23.404  0.00  0.00    -0.265 OA
ATOM      7  C   UNL d   1      29.789  15.453 -22.988  0.00  0.00     0.102 A 
ATOM      8  O   UNL d   1      31.249  16.714 -24.529  0.00  0.00    -0.287 OA
ATOM      9  C   UNL d   1      30.273  15.877 -23.505  0.00  0.00     0.024 A 
ATOM     10  C   UNL d   1      28.825  17.217 -24.437  0.00  0.00     0.005 A 
ATOM     11  C   UNL d   1      29.312  17.634 -24.948  0.00  0.00     0.003 A 
ATOM     12  C   UNL d   1      30.119  17.467 -24.978  0.00  0.00     0.042 A 
ENDROOT
TORSDOF 0
ENDMDL
MODEL 4
REMARK VINA RESULT:      -2.8      0.616      1.884
REMARK  0 active torsions:
REMARK  status: ('A' for Active; 'I' for Inactive)
ROOT
ATOM      1  C   UNL d   1      29.388  16.408 -23.712  0.00  0.00     0.061 A 
ATOM      2  C   UNL d   1      28.705  16.803 -23.951  0.00  0.00     0.279 A 
ATOM      3  C   UNL d   1      30.107  16.570 -24.078  0.00  0.00     0.045 A 
ATOM      4  N   UNL d   1      28.743  17.358 -24.555  0.00  0.00    -0.206 NA
ATOM      5  C   UNL d   1      30.792  16.172 -23.836  0.00  0.00     0.196 A 
ATOM      6  O   UNL d   1      27.986  16.640 -23.584  0.00  0.00    -0.265 OA
ATOM      7  C   UNL d   1      29.466  17.519 -24.921  0.00  0.00     0.102 A 
ATOM      8  O   UNL d   1      31.510  16.334 -24.203  0.00  0.00    -0.287 OA
ATOM      9  C   UNL d   1      30.147  17.120 -24.677  0.00  0.00     0.024 A 
ATOM     10  C   UNL d   1      29.348  15.845 -23.098  0.00  0.00     0.005 A 
ATOM     11  C   UNL d   1      30.029  15.453 -22.861  0.00  0.00     0.003 A 
ATOM     12  C   UNL d   1      30.748  15.615 -23.229  0.00  0.00     0.042 A 
ENDROOT
TORSDOF 0
ENDMDL
MODEL 5
REMARK VINA RESULT:      -2.6      1.062      1.333
REMARK  0 active torsions:
REMARK  status: ('A' for Active; 'I' for Inactive)
ROOT
ATOM      1  C   UNL d   1      30.828  16.435 -23.751  0.00  0.00     0.061 A 
ATOM      2  C   UNL d   1      31.610  16.696 -23.793  0.00  0.00     0.279 A 
ATOM      3  C   UNL d   1      30.245  16.812 -24.193  0.00  0.00     0.045 A 
ATOM      4  N   UNL d   1      31.804  17.330 -24.277  0.00  0.00    -0.206 NA
ATOM      5  C   UNL d   1      29.460  16.548 -24.148  0.00  0.00     0.196 A 
ATOM      6  O   UNL d   1      32.193  16.319 -23.351  0.00  0.00    -0.265 OA
ATOM      7  C   UNL d   1      31.216  17.705 -24.720  0.00  0.00     0.102 A 
ATOM      8  O   UNL d   1      28.877  16.924 -24.591  0.00  0.00    -0.287 OA
ATOM      9  C   UNL d   1      30.435  17.440 -24.673  0.00  0.00     0.024 A 
ATOM     10  C   UNL d   1      30.632  15.791 -23.259  0.00  0.00     0.005 A 
ATOM     11  C   UNL d   1      29.854  15.533 -23.218  0.00  0.00     0.003 A 
ATOM     12  C   UNL d   1      29.270  15.910 -23.661  0.00  0.00     0.042 A 
ENDROOT
TORSDOF 0
ENDMDL
MODEL 6
REMARK VINA RESULT:      -2.6      6.434      6.940
REMARK  0 active torsions:
REMARK  status: ('A' for Active; 'I' for Inactive)
ROOT
ATOM      1  C   UNL d   1      32.843  22.284 -22.137  0.00  0.00     0.061 A 
ATOM      2  C   UNL d   1      32.851  22.974 -22.591  0.00  0.00     0.279 A 
ATOM      3  C   UNL d   1      32.453  22.274 -21.412  0.00  0.00     0.045 A 
ATOM      4  N   UNL d   1      32.472  23.648 -22.318  0.00  0.00    -0.206 NA
ATOM      5  C   UNL d   1      32.446  21.580 -20.959  0.00  0.00     0.196 A 
ATOM      6  O   UNL d   1      33.241  22.983 -23.315  0.00  0.00    -0.265 OA
ATOM      7  C   UNL d   1      32.081  23.634 -21.589  0.00  0.00     0.102 A 
ATOM      8  O   UNL d   1      32.057  21.570 -20.234  0.00  0.00    -0.287 OA
ATOM      9  C   UNL d   1      32.076  22.941 -21.139  0.00  0.00     0.024 A 
ATOM     10  C   UNL d   1      33.229  21.600 -22.416  0.00  0.00     0.005 A 
ATOM     11  C   UNL d   1      33.219  20.916 -21.963  0.00  0.00     0.003 A 
ATOM     12  C   UNL d   1      32.829  20.906 -21.238  0.00  0.00     0.042 A 
ENDROOT
TORSDOF 0
ENDMDL
MODEL 7
REMARK VINA RESULT:      -2.6      6.521      7.270
REMARK  0 active torsions:
REMARK  status: ('A' for Active; 'I' for Inactive)
ROOT
ATOM      1  C   UNL d   1      32.488  22.114 -21.224  0.00  0.00     0.061 A 
ATOM      2  C   UNL d   1      32.487  21.325 -20.984  0.00  0.00     0.279 A 
ATOM      3  C   UNL d   1      32.865  22.330 -21.923  0.00  0.00     0.045 A 
ATOM      4  N   UNL d   1      32.863  20.757 -21.442  0.00  0.00    -0.206 NA
ATOM      5  C   UNL d   1      32.864  23.124 -22.162  0.00  0.00     0.196 A 
ATOM      6  O   UNL d   1      32.110  21.108 -20.285  0.00  0.00    -0.265 OA
ATOM      7  C   UNL d   1      33.241  20.978 -22.143  0.00  0.00     0.102 A 
ATOM      8  O   UNL d   1      33.241  23.340 -22.861  0.00  0.00    -0.287 OA
ATOM      9  C   UNL d   1      33.238  21.770 -22.379  0.00  0.00     0.024 A 
ATOM     10  C   UNL d   1      32.106  22.689 -20.758  0.00  0.00     0.005 A 
ATOM     11  C   UNL d   1      32.107  23.474 -20.998  0.00  0.00     0.003 A 
ATOM     12  C   UNL d   1      32.485  23.690 -21.698  0.00  0.00     0.042 A 
ENDROOT
TORSDOF 0
ENDMDL
MODEL 8
REMARK VINA RESULT:      -2.4      1.766      2.968
REMARK  0 active torsions:
REMARK  status: ('A' for Active; 'I' for Inactive)
ROOT
ATOM      1  C   UNL d   1      31.577  17.039 -23.880  0.00  0.00     0.061 A 
ATOM      2  C   UNL d   1      30.949  16.506 -23.819  0.00  0.00     0.279 A 
ATOM      3  C   UNL d   1      31.561  17.629 -24.454  0.00  0.00     0.045 A 
ATOM      4  N   UNL d   1      30.310  16.566 -24.331  0.00  0.00    -0.206 NA
ATOM      5  C   UNL d   1      32.192  18.162 -24.513  0.00  0.00     0.196 A 
ATOM      6  O   UNL d   1      30.965  15.916 -23.245  0.00  0.00    -0.265 OA
ATOM      7  C   UNL d   1      30.298  17.160 -24.906  0.00  0.00     0.102 A 
ATOM      8  O   UNL d   1      32.176  18.752 -25.087  0.00  0.00    -0.287 OA
ATOM      9  C   UNL d   1      30.929  17.690 -24.963  0.00  0.00     0.024 A 
ATOM     10  C   UNL d   1      32.225  16.977 -23.360  0.00  0.00     0.005 A 
ATOM     11  C   UNL d   1      32.848  17.507 -23.422  0.00  0.00     0.003 A 
ATOM     12  C   UNL d   1      32.832  18.098 -23.996  0.00  0.00     0.042 A 
ENDROOT
TORSDOF 0
ENDMDL
MODEL 9
REMARK VINA RESULT:      -1.8      5.872      6.554
REMARK  0 active torsions:
REMARK  status: ('A' for Active; 'I' for Inactive)
ROOT
ATOM      1  C   UNL d   1      32.914  21.281 -21.426  0.00  0.00     0.061 A 
ATOM      2  C   UNL d   1      32.750  21.785 -20.793  0.00  0.00     0.279 A 
ATOM      3  C   UNL d   1      32.968  21.584 -22.189  0.00  0.00     0.045 A 
ATOM      4  N   UNL d   1      32.641  22.588 -20.927  0.00  0.00    -0.206 NA
ATOM      5  C   UNL d   1      33.132  21.075 -22.823  0.00  0.00     0.196 A 
ATOM      6  O   UNL d   1      32.696  21.482 -20.030  0.00  0.00    -0.265 OA
ATOM      7  C   UNL d   1      32.696  22.888 -21.695  0.00  0.00     0.102 A 
ATOM      8  O   UNL d   1      33.186  21.378 -23.586  0.00  0.00    -0.287 OA
ATOM      9  C   UNL d   1      32.860  22.379 -22.325  0.00  0.00     0.024 A 
ATOM     10  C   UNL d   1      33.024  20.466 -21.289  0.00  0.00     0.005 A 
ATOM     11  C   UNL d   1      33.187  19.967 -21.918  0.00  0.00     0.003 A 
ATOM     12  C   UNL d   1      33.241  20.270 -22.683  0.00  0.00     0.042 A 
ENDROOT
TORSDOF 0
ENDMDL
