MODEL 1
REMARK VINA RESULT:      58.7      0.000      0.000
REMARK  7 active torsions:
REMARK  status: ('A' for Active; 'I' for Inactive)
REMARK    1  A    between atoms: S_10  and  C_5 
REMARK    2  A    between atoms: C_11  and  N_8 
REMARK    3  A    between atoms: C_15  and  S_10 
REMARK    4  A    between atoms: C_19  and  C_11 
REMARK    5  A    between atoms: C_14  and  C_15 
REMARK    6  A    between atoms: C_17  and  C_14 
REMARK    7  A    between atoms: C_20  and  C_19 
ROOT
ATOM      1  C   UNL d   1     -57.539 -98.763 -43.564  0.00  0.00     0.174 A 
ATOM      2  C   UNL d   1     -58.148 -98.766 -44.120  0.00  0.00     0.159 A 
ATOM      3  N   UNL d   1     -56.824 -98.761 -43.963  0.00  0.00    -0.203 NA
ATOM      4  N   UNL d   1     -57.720 -98.762 -42.743  0.00  0.00    -0.239 N 
ATOM      5  C   UNL d   1     -57.029 -98.763 -44.770  0.00  0.00     0.181 A 
ATOM      6  C   UNL d   1     -58.475 -98.765 -42.491  0.00  0.00     0.358 A 
ATOM      7  N   UNL d   1     -59.108 -98.768 -43.069  0.00  0.00    -0.152 NA
ATOM      8  N   UNL d   1     -57.796 -98.766 -44.850  0.00  0.00    -0.279 N 
ATOM      9  C   UNL d   1     -58.950 -98.768 -43.866  0.00  0.00     0.302 A 
ATOM     10  O   UNL d   1     -58.629 -98.764 -41.674  0.00  0.00    -0.244 OA
ATOM     11  O   UNL d   1     -59.577 -98.771 -44.402  0.00  0.00    -0.263 OA
ATOM     12  C   UNL d   1     -57.128 -98.759 -42.167  0.00  0.00     0.105 C 
ENDROOT
BRANCH   5  13
ATOM     13  S   UNL d   1     -56.481 -98.762 -45.402  0.00  0.00    -0.046 SA
BRANCH  13  14
ATOM     14  C   UNL d   1     -55.712 -99.028 -45.290  0.00  0.00     0.080 C 
BRANCH  14  15
ATOM     15  C   UNL d   1     -55.477 -99.329 -44.553  0.00  0.00     0.202 C 
ATOM     16  O   UNL d   1     -55.494 -98.841 -43.907  0.00  0.00    -0.286 OA
BRANCH  15  17
ATOM     17  C   UNL d   1     -55.230-100.114 -44.488  0.00  0.00     0.040 A 
ATOM     18  C   UNL d   1     -54.981-100.527 -45.142  0.00  0.00     0.003 A 
ATOM     19  C   UNL d   1     -54.735-101.311 -45.077  0.00  0.00     0.000 A 
ATOM     20  C   UNL d   1     -54.738-101.695 -44.333  0.00  0.00     0.000 A 
ATOM     21  C   UNL d   1     -54.993-101.263 -43.682  0.00  0.00     0.000 A 
ATOM     22  C   UNL d   1     -55.237-100.483 -43.750  0.00  0.00     0.003 A 
ENDBRANCH  15  17
ENDBRANCH  14  15
ENDBRANCH  13  14
ENDBRANCH   5  13
BRANCH   8  23
ATOM     23  C   UNL d   1     -58.201 -98.768 -45.599  0.00  0.00     0.082 C 
BRANCH  23  24
ATOM     24  C   UNL d   1     -58.516 -99.459 -45.918  0.00  0.00     0.019 C 
BRANCH  24  25
ATOM     25  C   UNL d   1     -59.057 -99.438 -46.496  0.00  0.00     0.002 C 
ATOM     26  C   UNL d   1     -58.930 -98.965 -47.159  0.00  0.00     0.000 C 
ATOM     27  C   UNL d   1     -59.725 -99.867 -46.449  0.00  0.00     0.000 C 
ENDBRANCH  24  25
ENDBRANCH  23  24
ENDBRANCH   8  23
TORSDOF 7
ENDMDL
