MODEL 1
REMARK VINA RESULT:      54.5      0.000      0.000
REMARK  5 active torsions:
REMARK  status: ('A' for Active; 'I' for Inactive)
REMARK    1  A    between atoms: N_3  and  C_1 
REMARK    2  A    between atoms: C_12  and  N_2 
REMARK       I    between atoms: C_6  and  N_3 
REMARK    3  A    between atoms: C_8  and  C_6 
REMARK    4  A    between atoms: C_16  and  C_12 
REMARK    5  A    between atoms: O_22  and  C_16 
ROOT
ATOM      1  C   UNL d   1     -55.088-101.613 -40.126  0.00  0.00     0.183 A 
ATOM      2  N   UNL d   1     -55.540-102.253 -39.879  0.00  0.00    -0.280 N 
ATOM      3  S   UNL d   1     -54.715-101.293 -39.464  0.00  0.00    -0.048 SA
ATOM      4  C   UNL d   1     -54.940-101.739 -38.802  0.00  0.00     0.051 A 
ATOM      5  C   UNL d   1     -55.452-102.335 -39.060  0.00  0.00     0.072 A 
ATOM      6  C   UNL d   1     -54.745-101.680 -38.003  0.00  0.00     0.038 A 
ATOM      7  C   UNL d   1     -55.768-102.871 -38.519  0.00  0.00     0.020 A 
ATOM      8  C   UNL d   1     -55.061-102.215 -37.461  0.00  0.00     0.141 A 
ATOM      9  C   UNL d   1     -55.573-102.811 -37.719  0.00  0.00     0.031 A 
ATOM     10  F   UNL d   1     -54.866-102.153 -36.669  0.00  0.00    -0.204 F 
ENDROOT
BRANCH   1  11
ATOM     11  N   UNL d   1     -55.022-101.343 -40.905  0.00  0.00    -0.183 NA
ATOM     12  C   UNL d   1     -54.979-101.889 -41.522  0.00  0.00     0.287 C 
ATOM     13  O   UNL d   1     -55.001-102.697 -41.358  0.00  0.00    -0.265 OA
BRANCH  12  14
ATOM     14  C   UNL d   1     -54.914-101.631 -42.291  0.00  0.00     0.088 A 
ATOM     15  S   UNL d   1     -55.039-100.857 -42.564  0.00  0.00    -0.071 SA
ATOM     16  C   UNL d   1     -54.916-100.846 -43.368  0.00  0.00     0.087 A 
ATOM     17 CL   UNL d   1     -54.976-100.204 -43.872  0.00  0.00    -0.075 Cl
ATOM     18  C   UNL d   1     -54.716-101.603 -43.596  0.00  0.00     0.019 A 
ATOM     19  C   UNL d   1     -54.716-102.081 -42.934  0.00  0.00     0.013 A 
ENDBRANCH  12  14
ENDBRANCH   1  11
BRANCH   2  20
ATOM     20  C   UNL d   1     -56.054-102.879 -40.023  0.00  0.00     0.151 C 
BRANCH  20  21
ATOM     21  C   UNL d   1     -56.851-102.793 -39.867  0.00  0.00     0.314 C 
ATOM     22  O   UNL d   1     -57.385-102.792 -40.486  0.00  0.00    -0.257 OA
BRANCH  21  23
ATOM     23  O   UNL d   1     -57.112-102.708 -39.103  0.00  0.00    -0.295 OA
ATOM     24  C   UNL d   1     -57.885-102.878 -38.913  0.00  0.00     0.185 C 
ENDBRANCH  21  23
ENDBRANCH  20  21
ENDBRANCH   2  20
TORSDOF 5
ENDMDL
MODEL 2
REMARK VINA RESULT:      55.7      3.218      5.264
REMARK  5 active torsions:
REMARK  status: ('A' for Active; 'I' for Inactive)
REMARK    1  A    between atoms: N_3  and  C_1 
REMARK    2  A    between atoms: C_12  and  N_2 
REMARK       I    between atoms: C_6  and  N_3 
REMARK    3  A    between atoms: C_8  and  C_6 
REMARK    4  A    between atoms: C_16  and  C_12 
REMARK    5  A    between atoms: O_22  and  C_16 
ROOT
ATOM      1  C   UNL d   1     -55.294-100.306 -43.095  0.00  0.00     0.183 A 
ATOM      2  N   UNL d   1     -55.852 -99.738 -43.297  0.00  0.00    -0.280 N 
ATOM      3  S   UNL d   1     -54.778-100.394 -43.734  0.00  0.00    -0.048 SA
ATOM      4  C   UNL d   1     -55.021 -99.877 -44.334  0.00  0.00     0.051 A 
ATOM      5  C   UNL d   1     -55.687 -99.469 -44.063  0.00  0.00     0.072 A 
ATOM      6  C   UNL d   1     -54.722 -99.726 -45.088  0.00  0.00     0.038 A 
ATOM      7  C   UNL d   1     -56.055 -98.911 -44.547  0.00  0.00     0.020 A 
ATOM      8  C   UNL d   1     -55.089 -99.167 -45.571  0.00  0.00     0.141 A 
ATOM      9  C   UNL d   1     -55.756 -98.759 -45.300  0.00  0.00     0.031 A 
ATOM     10  F   UNL d   1     -54.790 -99.020 -46.318  0.00  0.00    -0.204 F 
ENDROOT
BRANCH   1  11
ATOM     11  N   UNL d   1     -55.260-100.713 -42.376  0.00  0.00    -0.183 NA
ATOM     12  C   UNL d   1     -54.970-101.484 -42.360  0.00  0.00     0.287 C 
ATOM     13  O   UNL d   1     -54.715-101.843 -43.057  0.00  0.00    -0.265 OA
BRANCH  12  14
ATOM     14  C   UNL d   1     -54.934-101.891 -41.656  0.00  0.00     0.088 A 
ATOM     15  S   UNL d   1     -54.908-101.559 -40.895  0.00  0.00    -0.071 SA
ATOM     16  C   UNL d   1     -54.876-102.166 -40.353  0.00  0.00     0.087 A 
ATOM     17 CL   UNL d   1     -54.843-102.103 -39.537  0.00  0.00    -0.075 Cl
ATOM     18  C   UNL d   1     -54.882-102.867 -40.769  0.00  0.00     0.019 A 
ATOM     19  C   UNL d   1     -54.917-102.695 -41.566  0.00  0.00     0.013 A 
ENDBRANCH  12  14
ENDBRANCH   1  11
BRANCH   2  20
ATOM     20  C   UNL d   1     -56.514 -99.278 -43.132  0.00  0.00     0.151 C 
BRANCH  20  21
ATOM     21  C   UNL d   1     -57.243 -99.496 -43.431  0.00  0.00     0.314 C 
ATOM     22  O   UNL d   1     -57.284-100.059 -44.022  0.00  0.00    -0.257 OA
BRANCH  21  23
ATOM     23  O   UNL d   1     -57.922 -99.156 -43.143  0.00  0.00    -0.295 OA
ATOM     24  C   UNL d   1     -58.430 -98.768 -43.646  0.00  0.00     0.185 C 
ENDBRANCH  21  23
ENDBRANCH  20  21
ENDBRANCH   2  20
TORSDOF 5
ENDMDL
MODEL 3
REMARK VINA RESULT:      56.8      1.400      2.083
REMARK  5 active torsions:
REMARK  status: ('A' for Active; 'I' for Inactive)
REMARK    1  A    between atoms: N_3  and  C_1 
REMARK    2  A    between atoms: C_12  and  N_2 
REMARK       I    between atoms: C_6  and  N_3 
REMARK    3  A    between atoms: C_8  and  C_6 
REMARK    4  A    between atoms: C_16  and  C_12 
REMARK    5  A    between atoms: O_22  and  C_16 
ROOT
ATOM      1  C   UNL d   1     -54.831-102.232 -39.446  0.00  0.00     0.183 A 
ATOM      2  N   UNL d   1     -54.808-101.534 -39.015  0.00  0.00    -0.280 N 
ATOM      3  S   UNL d   1     -54.992-102.850 -38.923  0.00  0.00    -0.048 SA
ATOM      4  C   UNL d   1     -55.069-102.529 -38.163  0.00  0.00     0.051 A 
ATOM      5  C   UNL d   1     -54.955-101.712 -38.220  0.00  0.00     0.072 A 
ATOM      6  C   UNL d   1     -55.227-102.874 -37.431  0.00  0.00     0.038 A 
ATOM      7  C   UNL d   1     -54.999-101.241 -37.544  0.00  0.00     0.020 A 
ATOM      8  C   UNL d   1     -55.271-102.403 -36.755  0.00  0.00     0.141 A 
ATOM      9  C   UNL d   1     -55.157-101.586 -36.812  0.00  0.00     0.031 A 
ATOM     10  F   UNL d   1     -55.428-102.749 -36.031  0.00  0.00    -0.204 F 
ENDROOT
BRANCH   1  11
ATOM     11  N   UNL d   1     -54.713-102.297 -40.262  0.00  0.00    -0.183 NA
ATOM     12  C   UNL d   1     -55.323-102.093 -40.779  0.00  0.00     0.287 C 
ATOM     13  O   UNL d   1     -56.044-101.827 -40.479  0.00  0.00    -0.265 OA
BRANCH  12  14
ATOM     14  C   UNL d   1     -55.214-102.155 -41.583  0.00  0.00     0.088 A 
ATOM     15  S   UNL d   1     -55.001-101.541 -42.100  0.00  0.00    -0.071 SA
ATOM     16  C   UNL d   1     -54.953-101.847 -42.852  0.00  0.00     0.087 A 
ATOM     17 CL   UNL d   1     -54.760-101.446 -43.541  0.00  0.00    -0.075 Cl
ATOM     18  C   UNL d   1     -55.133-102.640 -42.807  0.00  0.00     0.019 A 
ATOM     19  C   UNL d   1     -55.292-102.825 -42.028  0.00  0.00     0.013 A 
ENDBRANCH  12  14
ENDBRANCH   1  11
BRANCH   2  20
ATOM     20  C   UNL d   1     -54.713-100.719 -38.955  0.00  0.00     0.151 C 
BRANCH  20  21
ATOM     21  C   UNL d   1     -54.759-100.255 -39.626  0.00  0.00     0.314 C 
ATOM     22  O   UNL d   1     -54.792-100.613 -40.361  0.00  0.00    -0.257 OA
BRANCH  21  23
ATOM     23  O   UNL d   1     -54.771 -99.446 -39.566  0.00  0.00    -0.295 OA
ATOM     24  C   UNL d   1     -54.743 -98.985 -40.236  0.00  0.00     0.185 C 
ENDBRANCH  21  23
ENDBRANCH  20  21
ENDBRANCH   2  20
TORSDOF 5
ENDMDL
