MODEL 1
REMARK VINA RESULT:      56.0      0.000      0.000
REMARK  3 active torsions:
REMARK  status: ('A' for Active; 'I' for Inactive)
REMARK    1  A    between atoms: C_10  and  N_4 
REMARK    2  A    between atoms: C_11  and  N_6 
REMARK    3  A    between atoms: C_16  and  C_11 
ROOT
ATOM      1  C   UNL d   1     -54.718-101.143 -41.382  0.00  0.00     0.172 A 
ATOM      2  C   UNL d   1     -54.716-101.326 -42.186  0.00  0.00     0.113 A 
ATOM      3  N   UNL d   1     -54.719-100.360 -41.136  0.00  0.00    -0.206 NA
ATOM      4  N   UNL d   1     -54.718-101.861 -40.964  0.00  0.00    -0.212 N 
ATOM      5  C   UNL d   1     -54.715-100.726 -42.745  0.00  0.00     0.270 A 
ATOM      6  N   UNL d   1     -54.716 -99.935 -42.503  0.00  0.00    -0.254 N 
ATOM      7  N   UNL d   1     -54.716-102.468 -41.512  0.00  0.00    -0.162 NA
ATOM      8  C   UNL d   1     -54.718 -99.752 -41.698  0.00  0.00     0.187 A 
ATOM      9  C   UNL d   1     -54.715-102.153 -42.251  0.00  0.00     0.129 A 
ATOM     10  O   UNL d   1     -54.713-100.910 -43.549  0.00  0.00    -0.266 OA
ENDROOT
BRANCH   4  11
ATOM     11  C   UNL d   1     -54.720-101.982 -40.159  0.00  0.00     0.085 A 
ATOM     12  C   UNL d   1     -54.714-101.331 -39.638  0.00  0.00     0.021 A 
ATOM     13  C   UNL d   1     -54.716-101.460 -38.831  0.00  0.00     0.031 A 
ATOM     14  C   UNL d   1     -54.724-102.245 -38.525  0.00  0.00     0.140 A 
ATOM     15  C   UNL d   1     -54.729-102.870 -39.043  0.00  0.00     0.031 A 
ATOM     16  F   UNL d   1     -54.726-102.387 -37.698  0.00  0.00    -0.204 F 
ATOM     17  C   UNL d   1     -54.727-102.751 -39.857  0.00  0.00     0.021 A 
ENDBRANCH   4  11
BRANCH   6  18
ATOM     18  C   UNL d   1     -54.716 -99.318 -43.065  0.00  0.00     0.104 C 
BRANCH  18  19
ATOM     19  C   UNL d   1     -55.329 -99.263 -43.623  0.00  0.00     0.099 A 
ATOM     20  N   UNL d   1     -56.043 -98.914 -43.400  0.00  0.00    -0.242 NA
ATOM     21  C   UNL d   1     -56.665 -98.856 -43.960  0.00  0.00     0.099 A 
ATOM     22  C   UNL d   1     -56.538 -99.151 -44.712  0.00  0.00     0.021 A 
ATOM     23  C   UNL d   1     -55.817 -99.502 -44.934  0.00  0.00     0.003 A 
ATOM     24  C   UNL d   1     -55.218 -99.553 -44.379  0.00  0.00     0.021 A 
ENDBRANCH  18  19
ENDBRANCH   6  18
TORSDOF 3
ENDMDL
