MODEL 1
REMARK VINA RESULT:      -4.5      0.000      0.000
REMARK  5 active torsions:
REMARK  status: ('A' for Active; 'I' for Inactive)
REMARK    1  A    between atoms: C_16  and  N_5 
REMARK    2  A    between atoms: C_15  and  C_6 
REMARK    3  A    between atoms: C_19  and  C_16 
REMARK    4  A    between atoms: O_20  and  C_17 
REMARK    5  A    between atoms: C_22  and  C_19 
ROOT
ATOM      1  O   UNL d   1      58.332  -3.667  28.686  0.00  0.00    -0.326 OA
ATOM      2  C   UNL d   1      58.627  -2.900  28.808  0.00  0.00     0.118 C 
ATOM      3  C   UNL d   1      58.041  -4.431  28.561  0.00  0.00     0.181 C 
ENDROOT
BRANCH   2   4
ATOM      4  C   UNL d   1      58.440  -2.284  29.332  0.00  0.00     0.045 C 
BRANCH   4   5
ATOM      5  C   UNL d   1      58.739  -1.516  29.470  0.00  0.00     0.086 C 
BRANCH   5   6
ATOM      6  N   UNL d   1      58.386  -1.040  30.060  0.00  0.00    -0.258 N 
ATOM      7  C   UNL d   1      57.797  -1.349  30.544  0.00  0.00     0.272 A 
ATOM      8  C   UNL d   1      57.453  -0.875  31.124  0.00  0.00     0.137 A 
ATOM      9  O   UNL d   1      57.551  -2.129  30.450  0.00  0.00    -0.266 OA
ATOM     10  C   UNL d   1      57.697  -0.091  31.221  0.00  0.00     0.192 A 
ATOM     11  C   UNL d   1      56.861  -1.184  31.611  0.00  0.00     0.205 A 
ATOM     12  N   UNL d   1      58.283   0.218  30.741  0.00  0.00    -0.204 NA
ATOM     13  O   UNL d   1      57.350   0.375  31.800  0.00  0.00    -0.289 OA
ATOM     14  C   UNL d   1      58.633  -0.256  30.154  0.00  0.00     0.152 A 
ATOM     15  C   UNL d   1      56.760   0.062  32.283  0.00  0.00     0.107 A 
ATOM     16  C   UNL d   1      56.520  -0.718  32.184  0.00  0.00     0.062 A 
ATOM     17  C   UNL d   1      56.411   0.538  32.870  0.00  0.00     0.049 A 
ATOM     18  C   UNL d   1      55.927  -1.031  32.669  0.00  0.00     0.007 A 
ATOM     19  C   UNL d   1      55.582  -0.556  33.250  0.00  0.00     0.024 A 
ATOM     20  C   UNL d   1      55.822   0.223  33.350  0.00  0.00     0.096 A 
ATOM     21  O   UNL d   1      56.620  -1.964  31.511  0.00  0.00    -0.286 OA
BRANCH  14  22
ATOM     22  C   UNL d   1      59.224   0.057  29.671  0.00  0.00     0.035 A 
ATOM     23  C   UNL d   1      60.007   0.052  29.935  0.00  0.00     0.003 A 
ATOM     24  C   UNL d   1      60.593   0.364  29.453  0.00  0.00     0.000 A 
ATOM     25  C   UNL d   1      60.406   0.678  28.715  0.00  0.00     0.000 A 
ATOM     26  C   UNL d   1      59.623   0.680  28.455  0.00  0.00     0.000 A 
ATOM     27  C   UNL d   1      59.037   0.370  28.934  0.00  0.00     0.003 A 
ENDBRANCH  14  22
BRANCH  20  28
ATOM     28  O   UNL d   1      55.473   0.682  33.928  0.00  0.00    -0.328 OA
ATOM     29  C   UNL d   1      54.657   0.660  34.026  0.00  0.00     0.181 C 
ENDBRANCH  20  28
ENDBRANCH   5   6
ENDBRANCH   4   5
ENDBRANCH   2   4
TORSDOF 5
ENDMDL
