MODEL 1
REMARK VINA RESULT:      24.3      0.000      0.000
REMARK  5 active torsions:
REMARK  status: ('A' for Active; 'I' for Inactive)
REMARK    1  A    between atoms: C_9  and  N_1 
REMARK    2  A    between atoms: C_10  and  C_2 
REMARK    3  A    between atoms: C_3  and  C_11 
REMARK    4  A    between atoms: O_14  and  C_9 
REMARK    5  A    between atoms: C_11  and  O_14 
ROOT
ATOM      1  C   UNL d   1      46.173 -17.418  43.686  0.00  0.00     0.305 C 
ATOM      2  O   UNL d   1      46.544 -17.660  44.386  0.00  0.00    -0.259 OA
ENDROOT
BRANCH   1   3
ATOM      3  C   UNL d   1      46.226 -17.886  43.013  0.00  0.00     0.108 A 
ATOM      4  C   UNL d   1      46.221 -18.713  42.989  0.00  0.00     0.116 A 
ATOM      5  N   UNL d   1      46.285 -18.942  42.210  0.00  0.00    -0.126 NA
ATOM      6  O   UNL d   1      46.329 -18.271  41.744  0.00  0.00    -0.211 OA
ATOM      7  C   UNL d   1      46.292 -17.616  42.244  0.00  0.00     0.132 A 
ATOM      8  C   UNL d   1      46.318 -16.822  42.011  0.00  0.00     0.029 C 
BRANCH   4   9
ATOM      9  C   UNL d   1      46.163 -19.214  43.642  0.00  0.00     0.031 A 
ATOM     10  C   UNL d   1      45.623 -19.833  43.631  0.00  0.00     0.059 A 
ATOM     11 CL   UNL d   1      45.151 -19.953  42.985  0.00  0.00    -0.082 Cl
ATOM     12  C   UNL d   1      45.567 -20.327  44.278  0.00  0.00     0.011 A 
ATOM     13  C   UNL d   1      46.048 -20.209  44.943  0.00  0.00     0.001 A 
ATOM     14  C   UNL d   1      46.587 -19.591  44.954  0.00  0.00     0.000 A 
ATOM     15  C   UNL d   1      46.646 -19.089  44.301  0.00  0.00     0.002 A 
ENDBRANCH   4   9
ENDBRANCH   1   3
BRANCH   1  16
ATOM     16  O   UNL d   1      45.751 -16.706  43.666  0.00  0.00    -0.252 OA
BRANCH  16  17
ATOM     17  C   UNL d   1      45.723 -16.224  44.339  0.00  0.00     0.216 C 
BRANCH  17  18
ATOM     18  N   UNL d   1      45.457 -15.444  44.277  0.00  0.00    -0.218 N 
ATOM     19  C   UNL d   1      45.878 -14.816  43.962  0.00  0.00     0.269 A 
ATOM     20  C   UNL d   1      45.406 -14.138  44.007  0.00  0.00     0.061 A 
ATOM     21  O   UNL d   1      46.646 -14.849  43.649  0.00  0.00    -0.267 OA
ATOM     22  C   UNL d   1      45.531 -13.355  43.781  0.00  0.00     0.005 A 
ATOM     23  C   UNL d   1      44.688 -14.356  44.354  0.00  0.00     0.061 A 
ATOM     24  C   UNL d   1      44.946 -12.794  43.900  0.00  0.00     0.000 A 
ATOM     25  C   UNL d   1      44.229 -13.012  44.247  0.00  0.00     0.000 A 
ATOM     26  C   UNL d   1      44.095 -13.791  44.476  0.00  0.00     0.005 A 
ATOM     27  C   UNL d   1      44.715 -15.169  44.525  0.00  0.00     0.269 A 
ATOM     28  O   UNL d   1      44.119 -15.615  44.872  0.00  0.00    -0.267 OA
ENDBRANCH  17  18
ENDBRANCH  16  17
ENDBRANCH   1  16
TORSDOF 5
ENDMDL
