MODEL 1
REMARK VINA RESULT:      32.4      0.000      0.000
REMARK  4 active torsions:
REMARK  status: ('A' for Active; 'I' for Inactive)
REMARK    1  A    between atoms: N_2  and  S_1 
REMARK    2  A    between atoms: C_6  and  S_1 
REMARK    3  A    between atoms: O_17  and  C_12 
REMARK    4  A    between atoms: C_19  and  O_17 
ROOT
ATOM      1  S   UNL d   1     -51.217  25.275  33.401  0.00  0.00     0.271 S 
ATOM      2  O   UNL d   1     -50.466  24.932  33.494  0.00  0.00    -0.200 OA
ATOM      3  O   UNL d   1     -51.963  25.617  33.308  0.00  0.00    -0.200 OA
ENDROOT
BRANCH   1   4
ATOM      4  N   UNL d   1     -51.560  24.519  33.379  0.00  0.00    -0.232 N 
ATOM      5  C   UNL d   1     -51.152  23.801  33.341  0.00  0.00     0.075 A 
ATOM      6  C   UNL d   1     -51.703  23.189  33.330  0.00  0.00     0.020 A 
ATOM      7  C   UNL d   1     -50.329  23.716  33.318  0.00  0.00     0.020 C 
ATOM      8  C   UNL d   1     -52.460  23.531  33.361  0.00  0.00     0.018 A 
ATOM      9  C   UNL d   1     -52.366  24.350  33.391  0.00  0.00     0.075 A 
ATOM     10  C   UNL d   1     -53.215  23.202  33.366  0.00  0.00     0.002 A 
ATOM     11  C   UNL d   1     -53.031  24.842  33.427  0.00  0.00     0.018 A 
ATOM     12  C   UNL d   1     -53.783  24.513  33.431  0.00  0.00     0.002 A 
ATOM     13  C   UNL d   1     -53.880  23.695  33.401  0.00  0.00     0.000 A 
ENDBRANCH   1   4
BRANCH   1  14
ATOM     14  C   UNL d   1     -50.876  26.027  33.423  0.00  0.00     0.104 A 
ATOM     15  C   UNL d   1     -50.051  26.105  33.434  0.00  0.00     0.015 A 
ATOM     16  C   UNL d   1     -49.711  26.853  33.456  0.00  0.00     0.025 A 
ATOM     17  C   UNL d   1     -50.192  27.533  33.467  0.00  0.00     0.100 A 
ATOM     18  C   UNL d   1     -51.016  27.445  33.455  0.00  0.00     0.025 A 
ATOM     19  C   UNL d   1     -51.356  26.697  33.434  0.00  0.00     0.015 A 
BRANCH  17  20
ATOM     20  O   UNL d   1     -49.853  28.281  33.488  0.00  0.00    -0.305 OA
BRANCH  20  21
ATOM     21  C   UNL d   1     -49.532  28.566  34.188  0.00  0.00     0.123 C 
ATOM     22  C   UNL d   1     -48.999  29.193  34.171  0.00  0.00     0.029 C 
ENDBRANCH  20  21
ENDBRANCH  17  20
ENDBRANCH   1  14
TORSDOF 4
ENDMDL
