MODEL 1
REMARK VINA RESULT:      -2.9      0.000      0.000
REMARK  5 active torsions:
REMARK  status: ('A' for Active; 'I' for Inactive)
REMARK    1  A    between atoms: N_8  and  C_2 
REMARK    2  A    between atoms: C_6  and  C_5 
REMARK    3  A    between atoms: C_7  and  C_6 
REMARK       I    between atoms: N_9  and  C_7 
REMARK    4  A    between atoms: C_18  and  N_9 
REMARK    5  A    between atoms: C_11  and  C_12 
ROOT
ATOM      1  C   UNL d   1      32.799  18.774 -23.187  0.00  0.00     0.280 C 
ATOM      2  N   UNL d   1      33.241  19.067 -22.546  0.00  0.00    -0.208 NA
ATOM      3  O   UNL d   1      32.220  19.240 -23.535  0.00  0.00    -0.265 OA
ENDROOT
BRANCH   1   4
ATOM      4  C   UNL d   1      32.949  18.019 -23.466  0.00  0.00     0.074 C 
BRANCH   4   5
ATOM      5  C   UNL d   1      32.324  17.508 -23.637  0.00  0.00     0.093 A 
ATOM      6  C   UNL d   1      32.261  16.729 -23.374  0.00  0.00     0.272 A 
ATOM      7  N   UNL d   1      31.557  16.416 -23.667  0.00  0.00    -0.251 N 
ATOM      8  O   UNL d   1      32.800  16.320 -22.900  0.00  0.00    -0.266 OA
ATOM      9  C   UNL d   1      31.181  17.007 -24.116  0.00  0.00     0.182 A 
ATOM     10  C   UNL d   1      31.266  15.655 -23.546  0.00  0.00     0.104 C 
ATOM     11  S   UNL d   1      31.663  17.675 -24.089  0.00  0.00    -0.045 SA
BRANCH   9  12
ATOM     12  N   UNL d   1      30.460  16.932 -24.510  0.00  0.00    -0.219 NA
ATOM     13  C   UNL d   1      30.057  17.600 -24.774  0.00  0.00     0.122 C 
ENDBRANCH   9  12
ENDBRANCH   4   5
ENDBRANCH   1   4
BRANCH   2  14
ATOM     14  C   UNL d   1      33.092  19.826 -22.264  0.00  0.00     0.085 A 
ATOM     15  C   UNL d   1      33.241  20.493 -22.744  0.00  0.00     0.019 A 
ATOM     16  C   UNL d   1      33.090  21.252 -22.457  0.00  0.00     0.005 A 
ATOM     17  C   UNL d   1      32.789  21.354 -21.690  0.00  0.00     0.039 A 
ATOM     18  C   UNL d   1      32.641  20.696 -21.215  0.00  0.00     0.005 A 
ATOM     19  C   UNL d   1      32.794  19.930 -21.504  0.00  0.00     0.019 A 
BRANCH  17  20
ATOM     20  C   UNL d   1      32.639  22.110 -21.406  0.00  0.00     0.196 C 
ATOM     21  O   UNL d   1      32.538  22.739 -21.931  0.00  0.00    -0.287 OA
ATOM     22  C   UNL d   1      32.590  22.241 -20.592  0.00  0.00     0.045 C 
ENDBRANCH  17  20
ENDBRANCH   2  14
TORSDOF 5
ENDMDL
MODEL 2
REMARK VINA RESULT:      -2.8      1.021      1.442
REMARK  5 active torsions:
REMARK  status: ('A' for Active; 'I' for Inactive)
REMARK    1  A    between atoms: N_8  and  C_2 
REMARK    2  A    between atoms: C_6  and  C_5 
REMARK    3  A    between atoms: C_7  and  C_6 
REMARK       I    between atoms: N_9  and  C_7 
REMARK    4  A    between atoms: C_18  and  N_9 
REMARK    5  A    between atoms: C_11  and  C_12 
ROOT
ATOM      1  C   UNL d   1      32.984  19.613 -22.247  0.00  0.00     0.280 C 
ATOM      2  N   UNL d   1      33.178  19.989 -21.531  0.00  0.00    -0.208 NA
ATOM      3  O   UNL d   1      32.545  20.012 -22.815  0.00  0.00    -0.265 OA
ENDROOT
BRANCH   1   4
ATOM      4  C   UNL d   1      33.234  18.845 -22.378  0.00  0.00     0.074 C 
BRANCH   4   5
ATOM      5  C   UNL d   1      32.846  18.370 -22.929  0.00  0.00     0.093 A 
ATOM      6  C   UNL d   1      32.842  17.545 -22.929  0.00  0.00     0.272 A 
ATOM      7  N   UNL d   1      32.391  17.291 -23.570  0.00  0.00    -0.251 N 
ATOM      8  O   UNL d   1      33.219  17.049 -22.388  0.00  0.00    -0.266 OA
ATOM      9  C   UNL d   1      32.113  17.964 -23.971  0.00  0.00     0.182 A 
ATOM     10  C   UNL d   1      32.236  16.511 -23.786  0.00  0.00     0.104 C 
ATOM     11  S   UNL d   1      32.400  18.622 -23.567  0.00  0.00    -0.045 SA
BRANCH   9  12
ATOM     12  N   UNL d   1      31.639  17.965 -24.647  0.00  0.00    -0.219 NA
ATOM     13  C   UNL d   1      31.555  18.649 -25.097  0.00  0.00     0.122 C 
ENDBRANCH   9  12
ENDBRANCH   4   5
ENDBRANCH   1   4
BRANCH   2  14
ATOM     14  C   UNL d   1      32.927  20.762 -21.397  0.00  0.00     0.085 A 
ATOM     15  C   UNL d   1      32.375  20.929 -20.794  0.00  0.00     0.019 A 
ATOM     16  C   UNL d   1      32.126  21.705 -20.664  0.00  0.00     0.005 A 
ATOM     17  C   UNL d   1      32.425  22.322 -21.132  0.00  0.00     0.039 A 
ATOM     18  C   UNL d   1      32.971  22.158 -21.728  0.00  0.00     0.005 A 
ATOM     19  C   UNL d   1      33.223  21.375 -21.861  0.00  0.00     0.019 A 
BRANCH  17  20
ATOM     20  C   UNL d   1      32.177  23.094 -21.002  0.00  0.00     0.196 C 
ATOM     21  O   UNL d   1      31.389  23.303 -21.128  0.00  0.00    -0.287 OA
ATOM     22  C   UNL d   1      32.718  23.661 -20.743  0.00  0.00     0.045 C 
ENDBRANCH  17  20
ENDBRANCH   2  14
TORSDOF 5
ENDMDL
MODEL 3
REMARK VINA RESULT:      -2.6      1.935      4.919
REMARK  5 active torsions:
REMARK  status: ('A' for Active; 'I' for Inactive)
REMARK    1  A    between atoms: N_8  and  C_2 
REMARK    2  A    between atoms: C_6  and  C_5 
REMARK    3  A    between atoms: C_7  and  C_6 
REMARK       I    between atoms: N_9  and  C_7 
REMARK    4  A    between atoms: C_18  and  N_9 
REMARK    5  A    between atoms: C_11  and  C_12 
ROOT
ATOM      1  C   UNL d   1      32.832  19.883 -22.069  0.00  0.00     0.280 C 
ATOM      2  N   UNL d   1      33.241  19.295 -22.492  0.00  0.00    -0.208 NA
ATOM      3  O   UNL d   1      32.031  20.003 -22.201  0.00  0.00    -0.265 OA
ENDROOT
BRANCH   1   4
ATOM      4  C   UNL d   1      33.237  20.340 -21.523  0.00  0.00     0.074 C 
BRANCH   4   5
ATOM      5  C   UNL d   1      33.078  21.147 -21.458  0.00  0.00     0.093 A 
ATOM      6  C   UNL d   1      32.924  21.546 -20.753  0.00  0.00     0.272 A 
ATOM      7  N   UNL d   1      32.795  22.340 -20.931  0.00  0.00    -0.251 N 
ATOM      8  O   UNL d   1      32.900  21.220 -19.994  0.00  0.00    -0.266 OA
ATOM      9  C   UNL d   1      32.870  22.434 -21.754  0.00  0.00     0.182 A 
ATOM     10  C   UNL d   1      32.622  22.944 -20.398  0.00  0.00     0.104 C 
ATOM     11  S   UNL d   1      33.045  21.691 -22.067  0.00  0.00    -0.045 SA
BRANCH   9  12
ATOM     12  N   UNL d   1      32.785  23.140 -22.173  0.00  0.00    -0.219 NA
ATOM     13  C   UNL d   1      33.004  23.186 -22.965  0.00  0.00     0.122 C 
ENDBRANCH   9  12
ENDBRANCH   4   5
ENDBRANCH   1   4
BRANCH   2  14
ATOM     14  C   UNL d   1      32.836  18.835 -23.041  0.00  0.00     0.085 A 
ATOM     15  C   UNL d   1      32.653  19.141 -23.796  0.00  0.00     0.019 A 
ATOM     16  C   UNL d   1      32.246  18.675 -24.344  0.00  0.00     0.005 A 
ATOM     17  C   UNL d   1      32.019  17.902 -24.145  0.00  0.00     0.039 A 
ATOM     18  C   UNL d   1      32.199  17.599 -23.400  0.00  0.00     0.005 A 
ATOM     19  C   UNL d   1      32.609  18.068 -22.846  0.00  0.00     0.019 A 
BRANCH  17  20
ATOM     20  C   UNL d   1      31.614  17.441 -24.692  0.00  0.00     0.196 C 
ATOM     21  O   UNL d   1      30.941  17.736 -25.066  0.00  0.00    -0.287 OA
ATOM     22  C   UNL d   1      31.884  16.680 -24.865  0.00  0.00     0.045 C 
ENDBRANCH  17  20
ENDBRANCH   2  14
TORSDOF 5
ENDMDL
MODEL 4
REMARK VINA RESULT:      -2.6      1.797      5.084
REMARK  5 active torsions:
REMARK  status: ('A' for Active; 'I' for Inactive)
REMARK    1  A    between atoms: N_8  and  C_2 
REMARK    2  A    between atoms: C_6  and  C_5 
REMARK    3  A    between atoms: C_7  and  C_6 
REMARK       I    between atoms: N_9  and  C_7 
REMARK    4  A    between atoms: C_18  and  N_9 
REMARK    5  A    between atoms: C_11  and  C_12 
ROOT
ATOM      1  C   UNL d   1      32.923  20.171 -22.717  0.00  0.00     0.280 C 
ATOM      2  N   UNL d   1      33.241  19.649 -23.281  0.00  0.00    -0.208 NA
ATOM      3  O   UNL d   1      32.307  19.928 -22.232  0.00  0.00    -0.265 OA
ENDROOT
BRANCH   1   4
ATOM      4  C   UNL d   1      33.230  20.928 -22.653  0.00  0.00     0.074 C 
BRANCH   4   5
ATOM      5  C   UNL d   1      32.986  21.424 -22.041  0.00  0.00     0.093 A 
ATOM      6  C   UNL d   1      32.685  22.186 -22.138  0.00  0.00     0.272 A 
ATOM      7  N   UNL d   1      32.509  22.488 -21.392  0.00  0.00    -0.251 N 
ATOM      8  O   UNL d   1      32.573  22.588 -22.850  0.00  0.00    -0.266 OA
ATOM      9  C   UNL d   1      32.703  21.908 -20.827  0.00  0.00     0.182 A 
ATOM     10  C   UNL d   1      32.196  23.231 -21.220  0.00  0.00     0.104 C 
ATOM     11  S   UNL d   1      32.996  21.258 -21.240  0.00  0.00    -0.045 SA
BRANCH   9  12
ATOM     12  N   UNL d   1      32.616  21.978 -20.009  0.00  0.00    -0.219 NA
ATOM     13  C   UNL d   1      33.241  21.794 -19.506  0.00  0.00     0.122 C 
ENDBRANCH   9  12
ENDBRANCH   4   5
ENDBRANCH   1   4
BRANCH   2  14
ATOM     14  C   UNL d   1      32.933  18.888 -23.348  0.00  0.00     0.085 A 
ATOM     15  C   UNL d   1      33.227  18.270 -22.869  0.00  0.00     0.019 A 
ATOM     16  C   UNL d   1      32.916  17.508 -22.940  0.00  0.00     0.005 A 
ATOM     17  C   UNL d   1      32.310  17.355 -23.486  0.00  0.00     0.039 A 
ATOM     18  C   UNL d   1      32.019  17.966 -23.959  0.00  0.00     0.005 A 
ATOM     19  C   UNL d   1      32.332  18.734 -23.889  0.00  0.00     0.019 A 
BRANCH  17  20
ATOM     20  C   UNL d   1      32.001  16.597 -23.555  0.00  0.00     0.196 C 
ATOM     21  O   UNL d   1      31.378  16.358 -23.070  0.00  0.00    -0.287 OA
ATOM     22  C   UNL d   1      32.316  16.075 -24.111  0.00  0.00     0.045 C 
ENDBRANCH  17  20
ENDBRANCH   2  14
TORSDOF 5
ENDMDL
MODEL 5
REMARK VINA RESULT:      -2.5      1.479      4.954
REMARK  5 active torsions:
REMARK  status: ('A' for Active; 'I' for Inactive)
REMARK    1  A    between atoms: N_8  and  C_2 
REMARK    2  A    between atoms: C_6  and  C_5 
REMARK    3  A    between atoms: C_7  and  C_6 
REMARK       I    between atoms: N_9  and  C_7 
REMARK    4  A    between atoms: C_18  and  N_9 
REMARK    5  A    between atoms: C_11  and  C_12 
ROOT
ATOM      1  C   UNL d   1      32.865  19.144 -23.210  0.00  0.00     0.280 C 
ATOM      2  N   UNL d   1      32.541  18.842 -23.914  0.00  0.00    -0.208 NA
ATOM      3  O   UNL d   1      32.806  18.714 -22.513  0.00  0.00    -0.265 OA
ENDROOT
BRANCH   1   4
ATOM      4  C   UNL d   1      33.241  19.871 -23.221  0.00  0.00     0.074 C 
BRANCH   4   5
ATOM      5  C   UNL d   1      33.090  20.424 -22.627  0.00  0.00     0.093 A 
ATOM      6  C   UNL d   1      33.085  21.242 -22.730  0.00  0.00     0.272 A 
ATOM      7  N   UNL d   1      32.912  21.591 -22.003  0.00  0.00    -0.251 N 
ATOM      8  O   UNL d   1      33.226  21.655 -23.431  0.00  0.00    -0.266 OA
ATOM      9  C   UNL d   1      32.809  20.982 -21.445  0.00  0.00     0.182 A 
ATOM     10  C   UNL d   1      32.849  22.396 -21.844  0.00  0.00     0.104 C 
ATOM     11  S   UNL d   1      32.921  20.269 -21.842  0.00  0.00    -0.045 SA
BRANCH   9  12
ATOM     12  N   UNL d   1      32.628  21.082 -20.646  0.00  0.00    -0.219 NA
ATOM     13  C   UNL d   1      33.154  20.830 -20.065  0.00  0.00     0.122 C 
ENDBRANCH   9  12
ENDBRANCH   4   5
ENDBRANCH   1   4
BRANCH   2  14
ATOM     14  C   UNL d   1      32.162  18.111 -23.906  0.00  0.00     0.085 A 
ATOM     15  C   UNL d   1      31.329  18.065 -23.939  0.00  0.00     0.019 A 
ATOM     16  C   UNL d   1      30.955  17.329 -23.930  0.00  0.00     0.005 A 
ATOM     17  C   UNL d   1      31.405  16.633 -23.889  0.00  0.00     0.039 A 
ATOM     18  C   UNL d   1      32.228  16.678 -23.857  0.00  0.00     0.005 A 
ATOM     19  C   UNL d   1      32.607  17.419 -23.865  0.00  0.00     0.019 A 
BRANCH  17  20
ATOM     20  C   UNL d   1      31.031  15.902 -23.880  0.00  0.00     0.196 C 
ATOM     21  O   UNL d   1      30.912  15.505 -23.167  0.00  0.00    -0.287 OA
ATOM     22  C   UNL d   1      30.773  15.565 -24.588  0.00  0.00     0.045 C 
ENDBRANCH  17  20
ENDBRANCH   2  14
TORSDOF 5
ENDMDL
MODEL 6
REMARK VINA RESULT:      -1.6      2.407      5.518
REMARK  5 active torsions:
REMARK  status: ('A' for Active; 'I' for Inactive)
REMARK    1  A    between atoms: N_8  and  C_2 
REMARK    2  A    between atoms: C_6  and  C_5 
REMARK    3  A    between atoms: C_7  and  C_6 
REMARK       I    between atoms: N_9  and  C_7 
REMARK    4  A    between atoms: C_18  and  N_9 
REMARK    5  A    between atoms: C_11  and  C_12 
ROOT
ATOM      1  C   UNL d   1      32.802  21.449 -21.805  0.00  0.00     0.280 C 
ATOM      2  N   UNL d   1      33.228  21.101 -22.430  0.00  0.00    -0.208 NA
ATOM      3  O   UNL d   1      32.306  20.989 -21.340  0.00  0.00    -0.265 OA
ENDROOT
BRANCH   1   4
ATOM      4  C   UNL d   1      32.884  22.251 -21.661  0.00  0.00     0.074 C 
BRANCH   4   5
ATOM      5  C   UNL d   1      32.748  22.552 -20.905  0.00  0.00     0.093 A 
ATOM      6  C   UNL d   1      32.113  23.033 -20.692  0.00  0.00     0.272 A 
ATOM      7  N   UNL d   1      32.184  23.210 -19.890  0.00  0.00    -0.251 N 
ATOM      8  O   UNL d   1      31.505  23.299 -21.183  0.00  0.00    -0.266 OA
ATOM      9  C   UNL d   1      32.870  22.835 -19.604  0.00  0.00     0.182 A 
ATOM     10  C   UNL d   1      31.674  23.674 -19.439  0.00  0.00     0.104 C 
ATOM     11  S   UNL d   1      33.208  22.433 -20.239  0.00  0.00    -0.045 SA
BRANCH   9  12
ATOM     12  N   UNL d   1      33.152  22.864 -18.829  0.00  0.00    -0.219 NA
ATOM     13  C   UNL d   1      33.227  22.175 -18.386  0.00  0.00     0.122 C 
ENDBRANCH   9  12
ENDBRANCH   4   5
ENDBRANCH   1   4
BRANCH   2  14
ATOM     14  C   UNL d   1      33.148  20.295 -22.577  0.00  0.00     0.085 A 
ATOM     15  C   UNL d   1      33.240  19.742 -21.958  0.00  0.00     0.019 A 
ATOM     16  C   UNL d   1      33.159  18.934 -22.111  0.00  0.00     0.005 A 
ATOM     17  C   UNL d   1      32.985  18.671 -22.879  0.00  0.00     0.039 A 
ATOM     18  C   UNL d   1      32.895  19.218 -23.490  0.00  0.00     0.005 A 
ATOM     19  C   UNL d   1      32.976  20.032 -23.337  0.00  0.00     0.019 A 
BRANCH  17  20
ATOM     20  C   UNL d   1      32.905  17.867 -23.028  0.00  0.00     0.196 C 
ATOM     21  O   UNL d   1      33.219  17.314 -22.503  0.00  0.00    -0.287 OA
ATOM     22  C   UNL d   1      32.508  17.614 -23.707  0.00  0.00     0.045 C 
ENDBRANCH  17  20
ENDBRANCH   2  14
TORSDOF 5
ENDMDL
