MODEL 1
REMARK VINA RESULT:      30.4      0.000      0.000
REMARK  3 active torsions:
REMARK  status: ('A' for Active; 'I' for Inactive)
REMARK    1  A    between atoms: C_11  and  N_1 
REMARK    2  A    between atoms: C_3  and  C_2 
REMARK    3  A    between atoms: C_13  and  C_16 
ROOT
ATOM      1  N   UNL d   1      45.380 -15.874  44.214  0.00  0.00    -0.260 N 
ATOM      2  C   UNL d   1      45.664 -17.139  43.925  0.00  0.00     0.093 A 
ATOM      3  C   UNL d   1      44.792 -16.303  44.531  0.00  0.00     0.153 A 
ATOM      4  C   UNL d   1      45.934 -16.369  43.833  0.00  0.00     0.272 A 
ATOM      5  S   UNL d   1      44.957 -17.093  44.358  0.00  0.00    -0.053 SA
ATOM      6  S   UNL d   1      44.144 -16.003  44.951  0.00  0.00    -0.052 SA
ATOM      7  O   UNL d   1      46.621 -16.139  43.438  0.00  0.00    -0.266 OA
ENDROOT
BRANCH   2   8
ATOM      8  C   UNL d   1      46.005 -17.826  43.655  0.00  0.00     0.068 A 
ATOM      9  C   UNL d   1      46.374 -18.376  44.134  0.00  0.00     0.258 A 
ATOM     10  N   UNL d   1      46.647 -18.985  43.682  0.00  0.00    -0.321 N 
ATOM     11  O   UNL d   1      46.453 -18.313  44.955  0.00  0.00    -0.267 OA
ATOM     12  H   UNL d   1      47.052 -19.649  43.964  0.00  0.00     0.169 HD
ATOM     13  C   UNL d   1      46.450 -18.825  42.896  0.00  0.00     0.059 A 
ATOM     14  C   UNL d   1      46.055 -18.113  42.871  0.00  0.00     0.021 A 
ATOM     15  C   UNL d   1      46.591 -19.257  42.192  0.00  0.00     0.017 A 
ATOM     16  C   UNL d   1      45.790 -17.810  42.159  0.00  0.00     0.002 A 
ATOM     17  C   UNL d   1      45.922 -18.225  41.460  0.00  0.00     0.000 A 
ATOM     18  C   UNL d   1      46.322 -18.948  41.475  0.00  0.00     0.002 A 
ENDBRANCH   2   8
BRANCH   1  19
ATOM     19  C   UNL d   1      45.472 -15.069  44.233  0.00  0.00     0.068 A 
ATOM     20  C   UNL d   1      45.214 -14.597  43.621  0.00  0.00     0.018 A 
ATOM     21  C   UNL d   1      45.319 -13.765  43.661  0.00  0.00     0.008 A 
ATOM     22  C   UNL d   1      45.681 -13.439  44.316  0.00  0.00     0.065 A 
ATOM     23  C   UNL d   1      45.943 -13.919  44.936  0.00  0.00     0.008 A 
ATOM     24  C   UNL d   1      45.841 -14.720  44.896  0.00  0.00     0.018 A 
BRANCH  22  25
ATOM     25  C   UNL d   1      45.780 -12.591  44.339  0.00  0.00     0.211 C 
ATOM     26  O   UNL d   1      45.312 -12.106  43.855  0.00  0.00    -0.644 OA
ATOM     27  O   UNL d   1      46.343 -12.251  44.845  0.00  0.00    -0.644 OA
ENDBRANCH  22  25
ENDBRANCH   1  19
TORSDOF 3
ENDMDL
MODEL 2
REMARK VINA RESULT:      33.2      0.832      1.388
REMARK  3 active torsions:
REMARK  status: ('A' for Active; 'I' for Inactive)
REMARK    1  A    between atoms: C_11  and  N_1 
REMARK    2  A    between atoms: C_3  and  C_2 
REMARK    3  A    between atoms: C_13  and  C_16 
ROOT
ATOM      1  N   UNL d   1      45.520 -15.999  44.006  0.00  0.00    -0.260 N 
ATOM      2  C   UNL d   1      45.776 -17.256  43.661  0.00  0.00     0.093 A 
ATOM      3  C   UNL d   1      45.010 -16.443  44.421  0.00  0.00     0.153 A 
ATOM      4  C   UNL d   1      46.007 -16.480  43.528  0.00  0.00     0.272 A 
ATOM      5  S   UNL d   1      45.159 -17.229  44.216  0.00  0.00    -0.053 SA
ATOM      6  S   UNL d   1      44.442 -16.160  44.955  0.00  0.00    -0.052 SA
ATOM      7  O   UNL d   1      46.605 -16.232  43.016  0.00  0.00    -0.266 OA
ENDROOT
BRANCH   2   8
ATOM      8  C   UNL d   1      46.079 -17.934  43.329  0.00  0.00     0.068 A 
ATOM      9  C   UNL d   1      46.368 -17.983  42.567  0.00  0.00     0.258 A 
ATOM     10  N   UNL d   1      46.621 -18.735  42.424  0.00  0.00    -0.321 N 
ATOM     11  O   UNL d   1      46.395 -17.356  42.028  0.00  0.00    -0.267 OA
ATOM     12  H   UNL d   1      46.950 -19.004  41.714  0.00  0.00     0.169 HD
ATOM     13  C   UNL d   1      46.493 -19.180  43.108  0.00  0.00     0.059 A 
ATOM     14  C   UNL d   1      46.159 -18.694  43.670  0.00  0.00     0.021 A 
ATOM     15  C   UNL d   1      46.646 -19.985  43.280  0.00  0.00     0.017 A 
ATOM     16  C   UNL d   1      45.969 -18.985  44.411  0.00  0.00     0.002 A 
ATOM     17  C   UNL d   1      46.114 -19.774  44.593  0.00  0.00     0.000 A 
ATOM     18  C   UNL d   1      46.453 -20.275  44.028  0.00  0.00     0.002 A 
ENDBRANCH   2   8
BRANCH   1  19
ATOM     19  C   UNL d   1      45.596 -15.192  44.014  0.00  0.00     0.068 A 
ATOM     20  C   UNL d   1      45.029 -14.709  43.682  0.00  0.00     0.018 A 
ATOM     21  C   UNL d   1      45.127 -13.876  43.701  0.00  0.00     0.008 A 
ATOM     22  C   UNL d   1      45.792 -13.559  44.053  0.00  0.00     0.065 A 
ATOM     23  C   UNL d   1      46.366 -14.051  44.390  0.00  0.00     0.008 A 
ATOM     24  C   UNL d   1      46.271 -14.853  44.371  0.00  0.00     0.018 A 
BRANCH  22  25
ATOM     25  C   UNL d   1      45.875 -12.709  44.063  0.00  0.00     0.211 C 
ATOM     26  O   UNL d   1      46.261 -12.338  44.697  0.00  0.00    -0.644 OA
ATOM     27  O   UNL d   1      45.570 -12.253  43.441  0.00  0.00    -0.644 OA
ENDBRANCH  22  25
ENDBRANCH   1  19
TORSDOF 3
ENDMDL
