MODEL 1
REMARK VINA RESULT:      14.9      0.000      0.000
REMARK  4 active torsions:
REMARK  status: ('A' for Active; 'I' for Inactive)
REMARK       I    between atoms: C_2  and  N_1 
REMARK       I    between atoms: N_8  and  C_2 
REMARK    1  A    between atoms: C_12  and  N_8 
REMARK    2  A    between atoms: C_9  and  C_12 
REMARK    3  A    between atoms: O_13  and  C_9 
REMARK    4  A    between atoms: C_18  and  O_13 
ROOT
ATOM      1  N   UNL d   1      46.504 -18.421  42.938  0.00  0.00    -0.258 N 
ATOM      2  C   UNL d   1      46.451 -17.616  43.106  0.00  0.00     0.354 C 
ATOM      3  S   UNL d   1      46.612 -20.044  42.599  0.00  0.00    -0.084 SA
ATOM      4  C   UNL d   1      46.548 -18.680  42.156  0.00  0.00     0.074 A 
ATOM      5  C   UNL d   1      46.514 -18.969  43.555  0.00  0.00     0.074 A 
ATOM      6  C   UNL d   1      46.602 -19.490  41.983  0.00  0.00     0.046 A 
ATOM      7  C   UNL d   1      46.569 -19.784  43.385  0.00  0.00     0.046 A 
ATOM      8  N   UNL d   1      46.407 -17.359  43.897  0.00  0.00    -0.185 NA
ATOM      9  O   UNL d   1      46.440 -17.070  42.492  0.00  0.00    -0.244 OA
ATOM     10  C   UNL d   1      46.537 -18.129  41.549  0.00  0.00     0.018 A 
ATOM     11  C   UNL d   1      46.471 -18.706  44.329  0.00  0.00     0.018 A 
ATOM     12  C   UNL d   1      46.579 -20.330  43.990  0.00  0.00     0.008 A 
ATOM     13  C   UNL d   1      46.645 -19.743  41.200  0.00  0.00     0.008 A 
ATOM     14  C   UNL d   1      46.580 -18.374  40.759  0.00  0.00     0.002 A 
ATOM     15  C   UNL d   1      46.481 -19.269  44.955  0.00  0.00     0.002 A 
ATOM     16  C   UNL d   1      46.536 -20.078  44.781  0.00  0.00     0.001 A 
ATOM     17  C   UNL d   1      46.634 -19.178  40.586  0.00  0.00     0.001 A 
ENDROOT
BRANCH   8  18
ATOM     18  C   UNL d   1      46.352 -16.530  44.070  0.00  0.00     0.172 C 
BRANCH  18  19
ATOM     19  C   UNL d   1      45.838 -16.279  44.650  0.00  0.00     0.320 C 
ATOM     20  O   UNL d   1      45.259 -16.793  44.931  0.00  0.00    -0.257 OA
BRANCH  19  21
ATOM     21  O   UNL d   1      45.894 -15.526  44.951  0.00  0.00    -0.270 OA
BRANCH  21  22
ATOM     22  C   UNL d   1      45.240 -15.007  44.904  0.00  0.00     0.126 C 
ATOM     23  C   UNL d   1      45.355 -14.219  44.710  0.00  0.00     0.029 C 
ENDBRANCH  21  22
ENDBRANCH  19  21
ENDBRANCH  18  19
ENDBRANCH   8  18
TORSDOF 4
ENDMDL
