MODEL 1
REMARK VINA RESULT:      64.3      0.000      0.000
REMARK  5 active torsions:
REMARK  status: ('A' for Active; 'I' for Inactive)
REMARK       I    between atoms: C_3  and  N_1 
REMARK    1  A    between atoms: S_7  and  C_2 
REMARK    2  A    between atoms: C_6  and  C_3 
REMARK    3  A    between atoms: N_4  and  C_8 
REMARK    4  A    between atoms: C_17  and  S_7 
REMARK    5  A    between atoms: C_18  and  C_17 
ROOT
ATOM      1  N   UNL d   1     -47.875  30.045  35.194  0.00  0.00    -0.251 N 
ATOM      2  C   UNL d   1     -48.090  29.254  35.314  0.00  0.00     0.182 A 
ATOM      3  C   UNL d   1     -48.134  30.535  34.582  0.00  0.00     0.266 C 
ATOM      4  N   UNL d   1     -47.701  28.988  35.986  0.00  0.00    -0.219 NA
ATOM      5  O   UNL d   1     -48.660  30.248  34.013  0.00  0.00    -0.267 OA
ATOM      6  C   UNL d   1     -47.349  30.265  35.801  0.00  0.00     0.106 A 
ATOM      7  C   UNL d   1     -47.244  29.604  36.290  0.00  0.00     0.120 A 
ENDROOT
BRANCH   2   8
ATOM      8  S   UNL d   1     -48.603  28.823  34.836  0.00  0.00    -0.049 SA
BRANCH   8   9
ATOM      9  C   UNL d   1     -48.649  28.010  34.917  0.00  0.00     0.038 C 
BRANCH   9  10
ATOM     10  C   UNL d   1     -49.259  27.594  34.559  0.00  0.00     0.007 A 
ATOM     11  C   UNL d   1     -49.942  27.409  34.993  0.00  0.00     0.002 A 
ATOM     12  C   UNL d   1     -50.557  26.989  34.631  0.00  0.00     0.024 A 
ATOM     13  C   UNL d   1     -50.485  26.759  33.846  0.00  0.00     0.127 A 
ATOM     14  C   UNL d   1     -49.813  26.940  33.413  0.00  0.00     0.024 A 
ATOM     15  C   UNL d   1     -49.200  27.359  33.773  0.00  0.00     0.002 A 
BRANCH  13  16
ATOM     16  N   UNL d   1     -51.105  26.339  33.490  0.00  0.00    -0.114 N 
ATOM     17  O   UNL d   1     -51.829  26.727  33.306  0.00  0.00    -0.532 OA
ATOM     18  O   UNL d   1     -51.024  25.529  33.310  0.00  0.00    -0.532 OA
ENDBRANCH  13  16
ENDBRANCH   9  10
ENDBRANCH   8   9
ENDBRANCH   2   8
BRANCH   3  19
ATOM     19  C   UNL d   1     -47.868  31.320  34.538  0.00  0.00     0.057 A 
ATOM     20  C   UNL d   1     -48.242  31.849  34.019  0.00  0.00     0.005 A 
ATOM     21  C   UNL d   1     -47.967  32.625  33.984  0.00  0.00     0.000 A 
ATOM     22  C   UNL d   1     -48.338  33.156  33.468  0.00  0.00     0.000 C 
ATOM     23  C   UNL d   1     -47.332  32.871  34.456  0.00  0.00     0.000 A 
ATOM     24  C   UNL d   1     -46.967  32.343  34.966  0.00  0.00     0.000 A 
ATOM     25  C   UNL d   1     -47.235  31.565  35.007  0.00  0.00     0.005 A 
ENDBRANCH   3  19
TORSDOF 5
ENDMDL
MODEL 2
REMARK VINA RESULT:      66.3      1.494      5.388
REMARK  5 active torsions:
REMARK  status: ('A' for Active; 'I' for Inactive)
REMARK       I    between atoms: C_3  and  N_1 
REMARK    1  A    between atoms: S_7  and  C_2 
REMARK    2  A    between atoms: C_6  and  C_3 
REMARK    3  A    between atoms: N_4  and  C_8 
REMARK    4  A    between atoms: C_17  and  S_7 
REMARK    5  A    between atoms: C_18  and  C_17 
ROOT
ATOM      1  N   UNL d   1     -49.856  27.241  34.950  0.00  0.00    -0.251 N 
ATOM      2  C   UNL d   1     -49.337  27.777  35.313  0.00  0.00     0.182 A 
ATOM      3  C   UNL d   1     -49.930  27.105  34.140  0.00  0.00     0.266 C 
ATOM      4  N   UNL d   1     -49.453  27.727  36.124  0.00  0.00    -0.219 NA
ATOM      5  O   UNL d   1     -49.460  27.522  33.603  0.00  0.00    -0.267 OA
ATOM      6  C   UNL d   1     -50.294  26.861  35.548  0.00  0.00     0.106 A 
ATOM      7  C   UNL d   1     -50.040  27.167  36.276  0.00  0.00     0.120 A 
ENDROOT
BRANCH   2   8
ATOM      8  S   UNL d   1     -48.805  28.265  34.918  0.00  0.00    -0.049 SA
BRANCH   8   9
ATOM      9  C   UNL d   1     -48.171  28.585  35.322  0.00  0.00     0.038 C 
BRANCH   9  10
ATOM     10  C   UNL d   1     -48.000  29.385  35.254  0.00  0.00     0.007 A 
ATOM     11  C   UNL d   1     -47.488  29.746  35.799  0.00  0.00     0.002 A 
ATOM     12  C   UNL d   1     -47.317  30.553  35.729  0.00  0.00     0.024 A 
ATOM     13  C   UNL d   1     -47.656  30.989  35.121  0.00  0.00     0.127 A 
ATOM     14  C   UNL d   1     -48.163  30.637  34.580  0.00  0.00     0.024 A 
ATOM     15  C   UNL d   1     -48.333  29.833  34.649  0.00  0.00     0.002 A 
BRANCH  13  16
ATOM     16  N   UNL d   1     -47.480  31.797  35.057  0.00  0.00    -0.114 N 
ATOM     17  O   UNL d   1     -47.839  32.262  34.455  0.00  0.00    -0.532 OA
ATOM     18  O   UNL d   1     -46.948  32.161  35.585  0.00  0.00    -0.532 OA
ENDBRANCH  13  16
ENDBRANCH   9  10
ENDBRANCH   8   9
ENDBRANCH   2   8
BRANCH   3  19
ATOM     19  C   UNL d   1     -50.479  26.548  33.861  0.00  0.00     0.057 A 
ATOM     20  C   UNL d   1     -50.233  25.767  33.723  0.00  0.00     0.005 A 
ATOM     21  C   UNL d   1     -50.788  25.224  33.447  0.00  0.00     0.000 A 
ATOM     22  C   UNL d   1     -50.546  24.444  33.308  0.00  0.00     0.000 C 
ATOM     23  C   UNL d   1     -51.573  25.453  33.309  0.00  0.00     0.000 A 
ATOM     24  C   UNL d   1     -51.808  26.225  33.448  0.00  0.00     0.000 A 
ATOM     25  C   UNL d   1     -51.260  26.775  33.724  0.00  0.00     0.005 A 
ENDBRANCH   3  19
TORSDOF 5
ENDMDL
