MODEL 1
REMARK VINA RESULT:      85.0      0.000      0.000
REMARK  5 active torsions:
REMARK  status: ('A' for Active; 'I' for Inactive)
REMARK       I    between atoms: C_7  and  N_1 
REMARK    1  A    between atoms: C_11  and  C_3 
REMARK    2  A    between atoms: C_14  and  C_5 
REMARK    3  A    between atoms: C_18  and  C_7 
REMARK    4  A    between atoms: C_17  and  O_19 
REMARK    5  A    between atoms: O_19  and  C_18 
ROOT
ATOM      1  N   UNL d   1     -57.759 -98.927 -44.129  0.00  0.00    -0.193 N 
ATOM      2  N   UNL d   1     -57.931 -99.003 -43.326  0.00  0.00    -0.162 NA
ATOM      3  C   UNL d   1     -58.753 -99.081 -43.256  0.00  0.00     0.109 A 
ATOM      4  C   UNL d   1     -58.469 -98.959 -44.549  0.00  0.00     0.088 A 
ATOM      5  C   UNL d   1     -59.079 -99.054 -44.004  0.00  0.00     0.041 A 
ATOM      6  C   UNL d   1     -57.045 -98.834 -44.533  0.00  0.00     0.305 C 
ATOM      7  O   UNL d   1     -57.042 -98.772 -45.357  0.00  0.00    -0.263 OA
ENDROOT
BRANCH   4   8
ATOM      8  C   UNL d   1     -58.586 -98.909 -45.364  0.00  0.00     0.018 A 
ATOM      9  C   UNL d   1     -59.348 -98.845 -45.662  0.00  0.00     0.004 A 
ATOM     10  C   UNL d   1     -59.469 -98.794 -46.481  0.00  0.00     0.030 A 
ATOM     11  C   UNL d   1     -58.828 -98.808 -46.983  0.00  0.00     0.140 A 
ATOM     12  C   UNL d   1     -58.058 -98.872 -46.679  0.00  0.00     0.030 A 
ATOM     13  F   UNL d   1     -58.953 -98.757 -47.802  0.00  0.00    -0.204 F 
ATOM     14  C   UNL d   1     -57.941 -98.922 -45.874  0.00  0.00     0.004 A 
ENDBRANCH   4   8
BRANCH   6  15
ATOM     15  C   UNL d   1     -56.335 -98.802 -44.114  0.00  0.00     0.185 C 
BRANCH  15  16
ATOM     16  O   UNL d   1     -55.691 -99.256 -44.360  0.00  0.00    -0.300 OA
BRANCH  16  17
ATOM     17  C   UNL d   1     -55.494 -99.946 -43.952  0.00  0.00     0.100 A 
ATOM     18  C   UNL d   1     -55.301-100.631 -44.370  0.00  0.00     0.029 A 
ATOM     19  C   UNL d   1     -55.104-101.321 -43.962  0.00  0.00     0.059 A 
ATOM     20  C   UNL d   1     -55.306-100.624 -45.191  0.00  0.00     0.021 A 
ATOM     21  C   UNL d   1     -54.912-102.003 -44.376  0.00  0.00     0.265 A 
ATOM     22  C   UNL d   1     -55.100-101.325 -43.137  0.00  0.00     0.005 A 
ATOM     23  O   UNL d   1     -54.715-102.693 -43.969  0.00  0.00    -0.267 OA
ATOM     24  N   UNL d   1     -54.916-101.999 -45.201  0.00  0.00    -0.270 N 
ATOM     25  C   UNL d   1     -55.113-101.309 -45.609  0.00  0.00     0.083 A 
ATOM     26  C   UNL d   1     -54.720-102.694 -45.620  0.00  0.00     0.102 C 
ATOM     27  C   UNL d   1     -55.293-100.640 -42.719  0.00  0.00     0.002 A 
ATOM     28  C   UNL d   1     -55.490 -99.951 -43.126  0.00  0.00     0.025 A 
ENDBRANCH  16  17
ENDBRANCH  15  16
ENDBRANCH   6  15
BRANCH   3  29
ATOM     29  C   UNL d   1     -59.135 -99.169 -42.539  0.00  0.00     0.049 A 
ATOM     30  S   UNL d   1     -58.908 -99.723 -41.959  0.00  0.00    -0.085 SA
ATOM     31  C   UNL d   1     -59.418 -99.644 -41.327  0.00  0.00     0.035 A 
ATOM     32  C   UNL d   1     -59.960 -99.050 -41.501  0.00  0.00     0.007 A 
ATOM     33  C   UNL d   1     -59.787 -98.756 -42.248  0.00  0.00     0.009 A 
ENDBRANCH   3  29
TORSDOF 5
ENDMDL
