MODEL 1
REMARK VINA RESULT:      52.5      0.000      0.000
REMARK  7 active torsions:
REMARK  status: ('A' for Active; 'I' for Inactive)
REMARK    1  A    between atoms: C_6  and  N_2 
REMARK    2  A    between atoms: C_7  and  C_3 
REMARK    3  A    between atoms: C_12  and  C_6 
REMARK    4  A    between atoms: C_21  and  C_7 
REMARK    5  A    between atoms: C_9  and  O_11 
REMARK    6  A    between atoms: O_11  and  C_12 
REMARK    7  A    between atoms: C_19  and  C_21 
ROOT
ATOM      1  N   UNL d   1      61.136  47.930  51.235  0.00  0.00    -0.227 NA
ATOM      2  N   UNL d   1      60.346  48.892  50.687  0.00  0.00    -0.287 N 
ATOM      3  C   UNL d   1      60.771  48.190  50.528  0.00  0.00     0.148 A 
ATOM      4  C   UNL d   1      60.451  49.065  51.500  0.00  0.00     0.083 A 
ATOM      5  C   UNL d   1      60.932  48.479  51.830  0.00  0.00     0.099 A 
ATOM      6  C   UNL d   1      60.171  49.681  51.978  0.00  0.00     0.019 A 
ATOM      7  C   UNL d   1      61.133  48.504  52.629  0.00  0.00     0.021 A 
ATOM      8  C   UNL d   1      60.371  49.706  52.778  0.00  0.00     0.002 A 
ATOM      9  C   UNL d   1      60.853  49.118  53.104  0.00  0.00     0.002 A 
ENDROOT
BRANCH   2  10
ATOM     10  C   UNL d   1      59.906  49.334  50.153  0.00  0.00     0.108 C 
BRANCH  10  11
ATOM     11  C   UNL d   1      59.110  49.512  50.309  0.00  0.00     0.142 C 
BRANCH  11  12
ATOM     12  O   UNL d   1      58.523  48.987  50.082  0.00  0.00    -0.304 OA
BRANCH  12  13
ATOM     13  C   UNL d   1      57.732  49.206  50.137  0.00  0.00     0.100 A 
ATOM     14  C   UNL d   1      57.395  49.330  50.875  0.00  0.00     0.025 A 
ATOM     15  C   UNL d   1      56.601  49.549  50.933  0.00  0.00     0.002 A 
ATOM     16  C   UNL d   1      56.261  49.674  51.675  0.00  0.00     0.000 C 
ATOM     17  C   UNL d   1      56.145  49.645  50.247  0.00  0.00     0.000 A 
ATOM     18  C   UNL d   1      56.493  49.518  49.504  0.00  0.00     0.002 A 
ATOM     19  C   UNL d   1      57.284  49.299  49.448  0.00  0.00     0.025 A 
ENDBRANCH  12  13
ENDBRANCH  11  12
ENDBRANCH  10  11
ENDBRANCH   2  10
BRANCH   3  20
ATOM     20  C   UNL d   1      61.051  47.576  50.054  0.00  0.00     0.041 C 
BRANCH  20  21
ATOM     21  C   UNL d   1      61.471  46.954  50.393  0.00  0.00     0.049 C 
BRANCH  21  22
ATOM     22  C   UNL d   1      61.146  46.196  50.403  0.00  0.00     0.234 C 
ATOM     23  O   UNL d   1      61.604  45.553  50.637  0.00  0.00    -0.283 OA
ENDBRANCH  21  22
ENDBRANCH  20  21
ENDBRANCH   3  20
TORSDOF 7
ENDMDL
