MODEL 1
REMARK VINA RESULT:      83.2      0.000      0.000
REMARK  11 active torsions:
REMARK  status: ('A' for Active; 'I' for Inactive)
REMARK    1  A    between atoms: C_2  and  N_1 
REMARK    2  A    between atoms: C_4  and  C_2 
REMARK    3  A    between atoms: C_5  and  C_2 
REMARK    4  A    between atoms: C_3  and  N_6 
REMARK    5  A    between atoms: N_15  and  C_3 
REMARK    6  A    between atoms: N_6  and  C_4 
REMARK    7  A    between atoms: C_16  and  N_7 
REMARK    8  A    between atoms: C_20  and  N_15 
REMARK    9  A    between atoms: C_19  and  C_16 
REMARK   10  A    between atoms: C_23  and  C_20 
REMARK   11  A    between atoms: C_22  and  C_23 
ROOT
ATOM      1  C   UNL d   1     -51.177  26.114  34.261  0.00  0.00     0.088 C 
ENDROOT
BRANCH   1   2
ATOM      2  N   UNL d   1     -51.303  26.231  35.068  0.00  0.00    -0.300 N 
ATOM      3  C   UNL d   1     -52.036  26.044  35.400  0.00  0.00     0.100 A 
ATOM      4  C   UNL d   1     -52.162  26.161  36.207  0.00  0.00     0.100 A 
ATOM      5  N   UNL d   1     -51.562  26.462  36.683  0.00  0.00    -0.300 N 
ATOM      6  C   UNL d   1     -50.832  26.647  36.350  0.00  0.00     0.100 A 
ATOM      7  C   UNL d   1     -50.707  26.531  35.543  0.00  0.00     0.100 A 
BRANCH   5   8
ATOM      8  C   UNL d   1     -51.692  26.577  37.489  0.00  0.00     0.080 C 
BRANCH   8   9
ATOM      9  C   UNL d   1     -52.031  25.971  37.942  0.00  0.00     0.018 A 
ATOM     10  C   UNL d   1     -52.801  25.745  37.814  0.00  0.00     0.002 A 
ATOM     11  C   UNL d   1     -53.142  25.141  38.264  0.00  0.00     0.000 A 
ATOM     12  C   UNL d   1     -52.688  24.775  38.840  0.00  0.00     0.000 A 
ATOM     13  C   UNL d   1     -51.901  24.999  38.977  0.00  0.00     0.000 A 
ATOM     14  C   UNL d   1     -51.578  25.606  38.516  0.00  0.00     0.002 A 
ENDBRANCH   8   9
ENDBRANCH   5   8
ENDBRANCH   1   2
BRANCH   1  15
ATOM     15  C   UNL d   1     -50.827  26.698  33.804  0.00  0.00     0.100 C 
ATOM     16  C   UNL d   1     -51.294  27.193  33.354  0.00  0.00     0.022 C 
BRANCH  15  17
ATOM     17  N   UNL d   1     -50.015  26.776  33.807  0.00  0.00    -0.216 NA
BRANCH  17  18
ATOM     18  C   UNL d   1     -49.670  27.521  33.700  0.00  0.00     0.221 C 
ATOM     19  S   UNL d   1     -50.098  28.110  33.315  0.00  0.00    -0.037 SA
BRANCH  18  20
ATOM     20  N   UNL d   1     -48.916  27.663  33.974  0.00  0.00    -0.216 NA
BRANCH  20  21
ATOM     21  C   UNL d   1     -48.775  28.239  34.541  0.00  0.00     0.102 C 
BRANCH  21  22
ATOM     22  C   UNL d   1     -47.999  28.364  34.802  0.00  0.00     0.021 C 
BRANCH  22  23
ATOM     23  C   UNL d   1     -47.847  28.978  35.317  0.00  0.00     0.002 A 
ATOM     24  C   UNL d   1     -47.768  29.746  35.022  0.00  0.00     0.000 A 
ATOM     25  C   UNL d   1     -47.615  30.370  35.540  0.00  0.00     0.000 A 
ATOM     26  C   UNL d   1     -47.541  30.230  36.342  0.00  0.00     0.000 A 
ATOM     27  C   UNL d   1     -47.621  29.456  36.633  0.00  0.00     0.000 A 
ATOM     28  C   UNL d   1     -47.772  28.842  36.120  0.00  0.00     0.000 A 
ENDBRANCH  22  23
ENDBRANCH  21  22
ENDBRANCH  20  21
ENDBRANCH  18  20
ENDBRANCH  17  18
ENDBRANCH  15  17
ENDBRANCH   1  15
BRANCH   1  29
ATOM     29  C   UNL d   1     -51.407  25.403  33.912  0.00  0.00     0.047 A 
ATOM     30  S   UNL d   1     -50.927  24.739  33.797  0.00  0.00    -0.085 SA
ATOM     31  C   UNL d   1     -51.379  24.160  33.433  0.00  0.00     0.035 A 
ATOM     32  C   UNL d   1     -52.140  24.460  33.320  0.00  0.00     0.007 A 
ATOM     33  C   UNL d   1     -52.155  25.230  33.618  0.00  0.00     0.009 A 
ENDBRANCH   1  29
TORSDOF 11
ENDMDL
