MODEL 1
REMARK VINA RESULT:      25.9      0.000      0.000
REMARK  3 active torsions:
REMARK  status: ('A' for Active; 'I' for Inactive)
REMARK    1  A    between atoms: S_11  and  C_4 
REMARK    2  A    between atoms: C_14  and  S_11 
REMARK    3  A    between atoms: O_15  and  C_12 
ROOT
ATOM      1  N   UNL d   1      61.952  49.030  50.574  0.00  0.00    -0.195 NA
ATOM      2  C   UNL d   1      61.457  49.111  51.235  0.00  0.00     0.086 C 
ATOM      3  C   UNL d   1      60.966  49.185  51.904  0.00  0.00     0.168 C 
ENDROOT
BRANCH   3   4
ATOM      4  S   UNL d   1      60.302  49.707  51.891  0.00  0.00    -0.078 SA
BRANCH   4   5
ATOM      5  C   UNL d   1      59.779  49.707  51.218  0.00  0.00     0.108 A 
ATOM      6  N   UNL d   1      58.962  49.707  51.335  0.00  0.00    -0.239 NA
ATOM      7  C   UNL d   1      58.476  49.707  50.678  0.00  0.00     0.084 A 
ATOM      8  C   UNL d   1      58.788  49.707  49.927  0.00  0.00     0.018 A 
ATOM      9  C   UNL d   1      57.660  49.707  50.795  0.00  0.00     0.043 A 
ATOM     10  C   UNL d   1      59.600  49.707  49.798  0.00  0.00     0.004 A 
ATOM     11  C   UNL d   1      58.298  49.707  49.258  0.00  0.00     0.004 A 
ATOM     12  C   UNL d   1      60.091  49.707  50.467  0.00  0.00     0.025 A 
ATOM     13  C   UNL d   1      59.912  49.707  49.046  0.00  0.00     0.000 C 
ATOM     14  C   UNL d   1      57.469  49.707  49.379  0.00  0.00     0.024 A 
ATOM     15  C   UNL d   1      57.157  49.707  50.130  0.00  0.00     0.096 A 
BRANCH  15  16
ATOM     16  O   UNL d   1      56.336  49.707  50.245  0.00  0.00    -0.328 OA
ATOM     17  C   UNL d   1      56.035  49.636  51.019  0.00  0.00     0.181 C 
ENDBRANCH  15  16
ENDBRANCH   4   5
ENDBRANCH   3   4
TORSDOF 3
ENDMDL
