MODEL 1
REMARK VINA RESULT:      18.8      0.000      0.000
REMARK  1 active torsions:
REMARK  status: ('A' for Active; 'I' for Inactive)
REMARK    1  A    between atoms: N_8  and  C_7 
REMARK       I    between atoms: C_11  and  N_8 
ROOT
ATOM      1  N   UNL d   1      14.930  13.317  -0.639  0.00  0.00    -0.273 N 
ATOM      2  C   UNL d   1      14.561  12.946  -1.277  0.00  0.00     0.067 A 
ATOM      3  C   UNL d   1      14.343  12.152  -1.221  0.00  0.00     0.019 A 
ATOM      4  C   UNL d   1      14.410  13.361  -1.964  0.00  0.00     0.018 A 
ATOM      5  C   UNL d   1      15.148  14.104  -0.689  0.00  0.00     0.265 A 
ATOM      6  C   UNL d   1      15.004  12.761  -0.037  0.00  0.00     0.083 A 
ATOM      7  C   UNL d   1      13.823  12.203  -2.552  0.00  0.00     0.085 A 
ATOM      8  C   UNL d   1      13.974  11.780  -1.859  0.00  0.00     0.021 A 
ATOM      9  C   UNL d   1      14.041  12.990  -2.602  0.00  0.00     0.021 A 
ATOM     10  C   UNL d   1      14.560  11.872  -0.472  0.00  0.00     0.021 A 
ATOM     11  C   UNL d   1      14.628  14.163  -2.024  0.00  0.00     0.006 A 
ATOM     12  C   UNL d   1      14.997  14.534  -1.387  0.00  0.00     0.061 A 
ATOM     13  O   UNL d   1      15.517  14.475  -0.051  0.00  0.00    -0.267 OA
ENDROOT
BRANCH   7  14
ATOM     14  N   UNL d   1      13.454  11.832  -3.188  0.00  0.00    -0.208 NA
ATOM     15  C   UNL d   1      13.210  12.266  -3.828  0.00  0.00     0.279 C 
ATOM     16  O   UNL d   1      13.328  13.093  -3.850  0.00  0.00    -0.265 OA
ATOM     17  C   UNL d   1      12.840  11.899  -4.468  0.00  0.00     0.068 C 
ENDBRANCH   7  14
TORSDOF 1
ENDMDL
