MODEL 1
REMARK VINA RESULT:      -3.2      0.000      0.000
REMARK  1 active torsions:
REMARK  status: ('A' for Active; 'I' for Inactive)
REMARK    1  A    between atoms: C_4  and  C_1 
REMARK       I    between atoms: N_5  and  C_1 
ROOT
ATOM      1  N   UNL d   1      45.532 -12.107  43.861  0.00  0.00    -0.242 NA
ATOM      2  C   UNL d   1      45.638 -13.636  44.485  0.00  0.00     0.062 A 
ATOM      3  C   UNL d   1      45.910 -12.240  44.584  0.00  0.00     0.099 A 
ATOM      4  C   UNL d   1      45.206 -12.750  43.452  0.00  0.00     0.099 A 
ATOM      5  C   UNL d   1      45.258 -13.512  43.763  0.00  0.00     0.025 A 
ATOM      6  C   UNL d   1      45.963 -13.002  44.894  0.00  0.00     0.025 A 
ENDROOT
BRANCH   2   7
ATOM      7  C   UNL d   1      45.703 -14.027  44.713  0.00  0.00     0.298 C 
ATOM      8  O   UNL d   1      46.314 -14.343  44.953  0.00  0.00    -0.264 OA
ATOM      9  N   UNL d   1      45.101 -14.460  44.901  0.00  0.00    -0.085 NA
ATOM     10  N   UNL d   1      44.714 -14.155  44.689  0.00  0.00    -0.019 N 
ENDBRANCH   2   7
TORSDOF 1
ENDMDL
MODEL 2
REMARK VINA RESULT:      -2.9      1.025      2.046
REMARK  1 active torsions:
REMARK  status: ('A' for Active; 'I' for Inactive)
REMARK    1  A    between atoms: C_4  and  C_1 
REMARK       I    between atoms: N_5  and  C_1 
ROOT
ATOM      1  N   UNL d   1      45.166 -14.728  44.955  0.00  0.00    -0.242 NA
ATOM      2  C   UNL d   1      45.514 -13.332  44.136  0.00  0.00     0.062 A 
ATOM      3  C   UNL d   1      44.575 -14.326  44.541  0.00  0.00     0.099 A 
ATOM      4  C   UNL d   1      45.937 -14.423  44.955  0.00  0.00     0.099 A 
ATOM      5  C   UNL d   1      46.110 -13.727  44.547  0.00  0.00     0.025 A 
ATOM      6  C   UNL d   1      44.748 -13.630  44.133  0.00  0.00     0.025 A 
ENDROOT
BRANCH   2   7
ATOM      7  C   UNL d   1      45.538 -12.947  43.892  0.00  0.00     0.298 C 
ATOM      8  O   UNL d   1      45.378 -12.814  43.194  0.00  0.00    -0.264 OA
ATOM      9  N   UNL d   1      45.783 -12.303  44.224  0.00  0.00    -0.085 NA
ATOM     10  N   UNL d   1      45.872 -12.496  44.717  0.00  0.00    -0.019 N 
ENDBRANCH   2   7
TORSDOF 1
ENDMDL
MODEL 3
REMARK VINA RESULT:      -2.7      5.942      6.413
REMARK  1 active torsions:
REMARK  status: ('A' for Active; 'I' for Inactive)
REMARK    1  A    between atoms: C_4  and  C_1 
REMARK       I    between atoms: N_5  and  C_1 
ROOT
ATOM      1  N   UNL d   1      46.131 -20.007  44.289  0.00  0.00    -0.242 NA
ATOM      2  C   UNL d   1      46.377 -19.198  42.866  0.00  0.00     0.062 A 
ATOM      3  C   UNL d   1      46.516 -19.276  44.284  0.00  0.00     0.099 A 
ATOM      4  C   UNL d   1      45.868 -20.330  43.572  0.00  0.00     0.099 A 
ATOM      5  C   UNL d   1      45.991 -19.926  42.863  0.00  0.00     0.025 A 
ATOM      6  C   UNL d   1      46.639 -18.873  43.575  0.00  0.00     0.025 A 
ENDROOT
BRANCH   2   7
ATOM      7  C   UNL d   1      46.477 -18.922  42.516  0.00  0.00     0.298 C 
ATOM      8  O   UNL d   1      46.511 -18.196  42.473  0.00  0.00    -0.264 OA
ATOM      9  N   UNL d   1      46.647 -19.225  41.834  0.00  0.00    -0.085 NA
ATOM     10  N   UNL d   1      46.597 -19.744  41.962  0.00  0.00    -0.019 N 
ENDBRANCH   2   7
TORSDOF 1
ENDMDL
MODEL 4
REMARK VINA RESULT:      -1.1      7.549      8.052
REMARK  1 active torsions:
REMARK  status: ('A' for Active; 'I' for Inactive)
REMARK    1  A    between atoms: C_4  and  C_1 
REMARK       I    between atoms: N_5  and  C_1 
ROOT
ATOM      1  N   UNL d   1      43.767 -15.767  36.717  0.00  0.00    -0.242 NA
ATOM      2  C   UNL d   1      45.299 -15.141  36.738  0.00  0.00     0.062 A 
ATOM      3  C   UNL d   1      44.384 -16.157  36.330  0.00  0.00     0.099 A 
ATOM      4  C   UNL d   1      43.924 -15.058  37.116  0.00  0.00     0.099 A 
ATOM      5  C   UNL d   1      44.688 -14.746  37.126  0.00  0.00     0.025 A 
ATOM      6  C   UNL d   1      45.148 -15.845  36.341  0.00  0.00     0.025 A 
ENDROOT
BRANCH   2   7
ATOM      7  C   UNL d   1      45.740 -15.028  36.703  0.00  0.00     0.298 C 
ATOM      8  O   UNL d   1      46.285 -15.340  36.335  0.00  0.00    -0.264 OA
ATOM      9  N   UNL d   1      46.003 -14.413  37.074  0.00  0.00    -0.085 NA
ATOM     10  N   UNL d   1      45.544 -14.258  37.307  0.00  0.00    -0.019 N 
ENDBRANCH   2   7
TORSDOF 1
ENDMDL
MODEL 5
REMARK VINA RESULT:      -1.0      7.579      8.038
REMARK  1 active torsions:
REMARK  status: ('A' for Active; 'I' for Inactive)
REMARK    1  A    between atoms: C_4  and  C_1 
REMARK       I    between atoms: N_5  and  C_1 
ROOT
ATOM      1  N   UNL d   1      45.885 -14.453  37.070  0.00  0.00    -0.242 NA
ATOM      2  C   UNL d   1      44.697 -15.549  36.715  0.00  0.00     0.062 A 
ATOM      3  C   UNL d   1      46.018 -15.049  36.514  0.00  0.00     0.099 A 
ATOM      4  C   UNL d   1      45.149 -14.410  37.448  0.00  0.00     0.099 A 
ATOM      5  C   UNL d   1      44.557 -14.956  37.271  0.00  0.00     0.025 A 
ATOM      6  C   UNL d   1      45.426 -15.596  36.337  0.00  0.00     0.025 A 
ENDROOT
BRANCH   2   7
ATOM      7  C   UNL d   1      44.418 -15.880  36.570  0.00  0.00     0.298 C 
ATOM      8  O   UNL d   1      44.561 -16.553  36.331  0.00  0.00    -0.264 OA
ATOM      9  N   UNL d   1      43.663 -15.760  36.556  0.00  0.00    -0.085 NA
ATOM     10  N   UNL d   1      43.658 -15.257  36.743  0.00  0.00    -0.019 N 
ENDBRANCH   2   7
TORSDOF 1
ENDMDL
