MODEL 1
REMARK VINA RESULT:      12.2      0.000      0.000
REMARK  4 active torsions:
REMARK  status: ('A' for Active; 'I' for Inactive)
REMARK    1  A    between atoms: N_5  and  C_1 
REMARK    2  A    between atoms: C_4  and  N_6 
REMARK    3  A    between atoms: N_11  and  C_4 
REMARK    4  A    between atoms: N_6  and  N_5 
ROOT
ATOM      1  C   UNL d   1      59.064  49.708  50.895  0.00  0.00     0.768 A 
ATOM      2  N   UNL d   1      59.394  49.708  51.648  0.00  0.00    -0.058 NA
ATOM      3  N   UNL d   1      59.557  49.707  50.229  0.00  0.00    -0.058 NA
ATOM      4  C   UNL d   1      60.215  49.708  51.744  0.00  0.00     0.102 A 
ATOM      5  C   UNL d   1      60.378  49.707  50.324  0.00  0.00     0.102 A 
ATOM      6  C   UNL d   1      60.707  49.707  51.077  0.00  0.00     0.040 A 
ATOM      7  C   UNL d   1      60.869  49.707  49.662  0.00  0.00     0.021 C 
ATOM      8  C   UNL d   1      60.544  49.708  52.501  0.00  0.00     0.021 C 
ENDROOT
BRANCH   1   9
ATOM      9  N   UNL d   1      58.247  49.708  50.801  0.00  0.00     0.049 NA
BRANCH   9  10
ATOM     10  N   UNL d   1      57.920  49.509  50.073  0.00  0.00    -0.101 NA
BRANCH  10  11
ATOM     11  C   UNL d   1      57.115  49.597  49.952  0.00  0.00     0.241 C 
ATOM     12  S   UNL d   1      56.614  49.706  50.590  0.00  0.00    -0.035 SA
BRANCH  11  13
ATOM     13  N   UNL d   1      56.811  49.575  49.190  0.00  0.00    -0.213 NA
ATOM     14  C   UNL d   1      56.047  49.299  49.060  0.00  0.00     0.122 C 
ENDBRANCH  11  13
ENDBRANCH  10  11
ENDBRANCH   9  10
ENDBRANCH   1   9
TORSDOF 4
ENDMDL
