MODEL 1
REMARK VINA RESULT:      -7.7      0.000      0.000
REMARK  5 active torsions:
REMARK  status: ('A' for Active; 'I' for Inactive)
REMARK    1  A    between atoms: N_5  and  C_1 
REMARK    2  A    between atoms: C_8  and  C_2 
REMARK       I    between atoms: C_6  and  N_5 
REMARK    3  A    between atoms: C_9  and  C_6 
REMARK    4  A    between atoms: O_12  and  C_8 
REMARK    5  A    between atoms: C_17  and  O_12 
ROOT
ATOM      1  C   UNL d   1      52.483  33.396  53.377  0.00  0.00     0.114 A 
ATOM      2  C   UNL d   1      53.287  32.376  53.643  0.00  0.00     0.094 A 
ATOM      3  S   UNL d   1      52.719  32.644  53.142  0.00  0.00    -0.062 SA
ATOM      4  C   UNL d   1      53.401  32.989  54.206  0.00  0.00     0.013 A 
ATOM      5  C   UNL d   1      52.922  33.583  54.038  0.00  0.00     0.026 A 
ATOM      6  C   UNL d   1      53.932  32.972  54.837  0.00  0.00     0.001 C 
ENDROOT
BRANCH   1   7
ATOM      7  N   UNL d   1      51.893  33.894  53.009  0.00  0.00    -0.205 NA
ATOM      8  C   UNL d   1      51.102  33.704  53.083  0.00  0.00     0.255 C 
ATOM      9  O   UNL d   1      50.864  33.048  53.502  0.00  0.00    -0.270 OA
BRANCH   8  10
ATOM     10  C   UNL d   1      50.538  34.176  52.734  0.00  0.00     0.073 C 
ATOM     11  C   UNL d   1      50.039  34.769  53.169  0.00  0.00     0.009 C 
ATOM     12  C   UNL d   1      50.371  34.142  51.890  0.00  0.00     0.009 C 
ATOM     13  C   UNL d   1      50.048  34.582  52.416  0.00  0.00     0.009 C 
ENDBRANCH   8  10
ENDBRANCH   1   7
BRANCH   2  14
ATOM     14  C   UNL d   1      53.682  31.645  53.615  0.00  0.00     0.306 C 
ATOM     15  O   UNL d   1      54.453  31.633  53.352  0.00  0.00    -0.258 OA
BRANCH  14  16
ATOM     16  O   UNL d   1      53.318  30.951  53.841  0.00  0.00    -0.271 OA
BRANCH  16  17
ATOM     17  C   UNL d   1      53.596  30.228  53.572  0.00  0.00     0.126 C 
ATOM     18  C   UNL d   1      53.267  29.537  53.879  0.00  0.00     0.029 C 
ENDBRANCH  16  17
ENDBRANCH  14  16
ENDBRANCH   2  14
TORSDOF 5
ENDMDL
MODEL 2
REMARK VINA RESULT:      -7.6      1.161      3.987
REMARK  5 active torsions:
REMARK  status: ('A' for Active; 'I' for Inactive)
REMARK    1  A    between atoms: N_5  and  C_1 
REMARK    2  A    between atoms: C_8  and  C_2 
REMARK       I    between atoms: C_6  and  N_5 
REMARK    3  A    between atoms: C_9  and  C_6 
REMARK    4  A    between atoms: O_12  and  C_8 
REMARK    5  A    between atoms: C_17  and  O_12 
ROOT
ATOM      1  C   UNL d   1      52.476  32.684  53.383  0.00  0.00     0.114 A 
ATOM      2  C   UNL d   1      51.789  33.703  52.886  0.00  0.00     0.094 A 
ATOM      3  S   UNL d   1      51.780  32.909  53.009  0.00  0.00    -0.062 SA
ATOM      4  C   UNL d   1      52.520  33.972  53.200  0.00  0.00     0.013 A 
ATOM      5  C   UNL d   1      52.915  33.363  53.489  0.00  0.00     0.026 A 
ATOM      6  C   UNL d   1      52.785  34.753  53.204  0.00  0.00     0.001 C 
ENDROOT
BRANCH   1   7
ATOM      7  N   UNL d   1      52.707  31.895  53.621  0.00  0.00    -0.205 NA
ATOM      8  C   UNL d   1      52.893  31.340  53.050  0.00  0.00     0.255 C 
ATOM      9  O   UNL d   1      52.863  31.525  52.258  0.00  0.00    -0.270 OA
BRANCH   8  10
ATOM     10  C   UNL d   1      53.114  30.589  53.273  0.00  0.00     0.073 C 
ATOM     11  C   UNL d   1      53.922  30.369  53.567  0.00  0.00     0.009 C 
ATOM     12  C   UNL d   1      52.568  29.924  53.241  0.00  0.00     0.009 C 
ATOM     13  C   UNL d   1      53.292  29.928  53.464  0.00  0.00     0.009 C 
ENDBRANCH   8  10
ENDBRANCH   1   7
BRANCH   2  14
ATOM     14  C   UNL d   1      51.199  34.166  52.526  0.00  0.00     0.306 C 
ATOM     15  O   UNL d   1      51.296  34.372  51.745  0.00  0.00    -0.258 OA
BRANCH  14  16
ATOM     16  O   UNL d   1      50.538  34.413  52.934  0.00  0.00    -0.271 OA
BRANCH  16  17
ATOM     17  C   UNL d   1      49.867  34.656  52.531  0.00  0.00     0.126 C 
ATOM     18  C   UNL d   1      49.265  35.031  52.952  0.00  0.00     0.029 C 
ENDBRANCH  16  17
ENDBRANCH  14  16
ENDBRANCH   2  14
TORSDOF 5
ENDMDL
MODEL 3
REMARK VINA RESULT:      -7.3      2.323      3.932
REMARK  5 active torsions:
REMARK  status: ('A' for Active; 'I' for Inactive)
REMARK    1  A    between atoms: N_5  and  C_1 
REMARK    2  A    between atoms: C_8  and  C_2 
REMARK       I    between atoms: C_6  and  N_5 
REMARK    3  A    between atoms: C_9  and  C_6 
REMARK    4  A    between atoms: O_12  and  C_8 
REMARK    5  A    between atoms: C_17  and  O_12 
ROOT
ATOM      1  C   UNL d   1      53.955  32.516  53.948  0.00  0.00     0.114 A 
ATOM      2  C   UNL d   1      53.887  33.674  54.591  0.00  0.00     0.094 A 
ATOM      3  S   UNL d   1      53.460  33.129  54.181  0.00  0.00    -0.062 SA
ATOM      4  C   UNL d   1      54.673  33.379  54.606  0.00  0.00     0.013 A 
ATOM      5  C   UNL d   1      54.700  32.698  54.225  0.00  0.00     0.026 A 
ATOM      6  C   UNL d   1      55.319  33.746  54.966  0.00  0.00     0.001 C 
ENDROOT
BRANCH   1   7
ATOM      7  N   UNL d   1      53.743  31.818  53.501  0.00  0.00    -0.205 NA
ATOM      8  C   UNL d   1      53.453  31.161  53.892  0.00  0.00     0.255 C 
ATOM      9  O   UNL d   1      53.363  31.160  54.701  0.00  0.00    -0.270 OA
BRANCH   8  10
ATOM     10  C   UNL d   1      53.250  30.496  53.470  0.00  0.00     0.073 C 
ATOM     11  C   UNL d   1      52.714  30.494  52.761  0.00  0.00     0.009 C 
ATOM     12  C   UNL d   1      53.543  29.714  53.679  0.00  0.00     0.009 C 
ATOM     13  C   UNL d   1      53.081  29.906  53.111  0.00  0.00     0.009 C 
ENDBRANCH   8  10
ENDBRANCH   1   7
BRANCH   2  14
ATOM     14  C   UNL d   1      53.612  34.381  54.930  0.00  0.00     0.306 C 
ATOM     15  O   UNL d   1      53.541  34.418  55.740  0.00  0.00    -0.258 OA
BRANCH  14  16
ATOM     16  O   UNL d   1      53.416  35.027  54.473  0.00  0.00    -0.271 OA
BRANCH  16  17
ATOM     17  C   UNL d   1      52.924  35.613  54.769  0.00  0.00     0.126 C 
ATOM     18  C   UNL d   1      52.959  36.366  54.437  0.00  0.00     0.029 C 
ENDBRANCH  16  17
ENDBRANCH  14  16
ENDBRANCH   2  14
TORSDOF 5
ENDMDL
MODEL 4
REMARK VINA RESULT:      -7.2      2.294      3.223
REMARK  5 active torsions:
REMARK  status: ('A' for Active; 'I' for Inactive)
REMARK    1  A    between atoms: N_5  and  C_1 
REMARK    2  A    between atoms: C_8  and  C_2 
REMARK       I    between atoms: C_6  and  N_5 
REMARK    3  A    between atoms: C_9  and  C_6 
REMARK    4  A    between atoms: O_12  and  C_8 
REMARK    5  A    between atoms: C_17  and  O_12 
ROOT
ATOM      1  C   UNL d   1      53.736  32.217  53.696  0.00  0.00     0.114 A 
ATOM      2  C   UNL d   1      53.328  30.968  53.519  0.00  0.00     0.094 A 
ATOM      3  S   UNL d   1      53.902  31.426  53.846  0.00  0.00    -0.062 SA
ATOM      4  C   UNL d   1      52.792  31.503  53.155  0.00  0.00     0.013 A 
ATOM      5  C   UNL d   1      53.044  32.233  53.266  0.00  0.00     0.026 A 
ATOM      6  C   UNL d   1      52.108  31.294  52.743  0.00  0.00     0.001 C 
ENDROOT
BRANCH   1   7
ATOM      7  N   UNL d   1      54.193  32.898  53.939  0.00  0.00    -0.205 NA
ATOM      8  C   UNL d   1      54.232  33.097  54.730  0.00  0.00     0.255 C 
ATOM      9  O   UNL d   1      53.842  32.658  55.294  0.00  0.00    -0.270 OA
BRANCH   8  10
ATOM     10  C   UNL d   1      54.666  33.745  54.964  0.00  0.00     0.073 C 
ATOM     11  C   UNL d   1      55.545  33.742  55.090  0.00  0.00     0.009 C 
ATOM     12  C   UNL d   1      54.301  34.510  55.115  0.00  0.00     0.009 C 
ATOM     13  C   UNL d   1      55.032  34.319  55.169  0.00  0.00     0.009 C 
ENDBRANCH   8  10
ENDBRANCH   1   7
BRANCH   2  14
ATOM     14  C   UNL d   1      53.272  30.138  53.534  0.00  0.00     0.306 C 
ATOM     15  O   UNL d   1      53.272  29.739  52.825  0.00  0.00    -0.258 OA
BRANCH  14  16
ATOM     16  O   UNL d   1      53.219  29.725  54.235  0.00  0.00    -0.271 OA
BRANCH  16  17
ATOM     17  C   UNL d   1      53.357  28.917  54.253  0.00  0.00     0.126 C 
ATOM     18  C   UNL d   1      53.374  28.534  54.983  0.00  0.00     0.029 C 
ENDBRANCH  16  17
ENDBRANCH  14  16
ENDBRANCH   2  14
TORSDOF 5
ENDMDL
MODEL 5
REMARK VINA RESULT:      -6.9      1.664      4.242
REMARK  5 active torsions:
REMARK  status: ('A' for Active; 'I' for Inactive)
REMARK    1  A    between atoms: N_5  and  C_1 
REMARK    2  A    between atoms: C_8  and  C_2 
REMARK       I    between atoms: C_6  and  N_5 
REMARK    3  A    between atoms: C_9  and  C_6 
REMARK    4  A    between atoms: O_12  and  C_8 
REMARK    5  A    between atoms: C_17  and  O_12 
ROOT
ATOM      1  C   UNL d   1      52.611  34.167  53.616  0.00  0.00     0.114 A 
ATOM      2  C   UNL d   1      51.399  34.187  53.079  0.00  0.00     0.094 A 
ATOM      3  S   UNL d   1      51.805  34.121  53.770  0.00  0.00    -0.062 SA
ATOM      4  C   UNL d   1      51.982  34.278  52.482  0.00  0.00     0.013 A 
ATOM      5  C   UNL d   1      52.690  34.264  52.811  0.00  0.00     0.026 A 
ATOM      6  C   UNL d   1      51.836  34.367  51.675  0.00  0.00     0.001 C 
ENDROOT
BRANCH   1   7
ATOM      7  N   UNL d   1      53.251  34.124  54.182  0.00  0.00    -0.205 NA
ATOM      8  C   UNL d   1      53.687  33.435  54.245  0.00  0.00     0.255 C 
ATOM      9  O   UNL d   1      53.522  32.788  53.779  0.00  0.00    -0.270 OA
BRANCH   8  10
ATOM     10  C   UNL d   1      54.297  33.390  54.783  0.00  0.00     0.073 C 
ATOM     11  C   UNL d   1      55.100  33.750  54.663  0.00  0.00     0.009 C 
ATOM     12  C   UNL d   1      54.214  32.978  55.534  0.00  0.00     0.009 C 
ATOM     13  C   UNL d   1      54.820  33.342  55.261  0.00  0.00     0.009 C 
ENDBRANCH   8  10
ENDBRANCH   1   7
BRANCH   2  14
ATOM     14  C   UNL d   1      50.574  34.171  52.973  0.00  0.00     0.306 C 
ATOM     15  O   UNL d   1      50.219  33.453  52.825  0.00  0.00    -0.258 OA
BRANCH  14  16
ATOM     16  O   UNL d   1      50.123  34.848  53.015  0.00  0.00    -0.271 OA
BRANCH  16  17
ATOM     17  C   UNL d   1      49.307  34.809  52.946  0.00  0.00     0.126 C 
ATOM     18  C   UNL d   1      48.867  35.500  53.039  0.00  0.00     0.029 C 
ENDBRANCH  16  17
ENDBRANCH  14  16
ENDBRANCH   2  14
TORSDOF 5
ENDMDL
