MODEL 1
REMARK VINA RESULT:      12.8      0.000      0.000
REMARK  2 active torsions:
REMARK  status: ('A' for Active; 'I' for Inactive)
REMARK    1  A    between atoms: C_6  and  C_1 
REMARK    2  A    between atoms: O_16  and  C_13 
ROOT
ATOM      1  C   UNL d   1     -50.826  24.995  33.345  0.00  0.00     0.148 A 
ATOM      2  N   UNL d   1     -50.869  25.805  33.335  0.00  0.00    -0.289 N 
ATOM      3  N   UNL d   1     -50.038  24.777  33.345  0.00  0.00    -0.225 NA
ATOM      4  C   UNL d   1     -50.100  26.123  33.330  0.00  0.00     0.085 A 
ATOM      5  C   UNL d   1     -49.582  25.466  33.336  0.00  0.00     0.118 A 
ATOM      6  C   UNL d   1     -51.542  26.353  33.330  0.00  0.00     0.082 A 
ATOM      7  C   UNL d   1     -49.972  26.926  33.320  0.00  0.00     0.019 A 
ATOM      8  C   UNL d   1     -51.413  27.156  33.321  0.00  0.00     0.019 A 
ATOM      9  C   UNL d   1     -50.603  27.467  33.315  0.00  0.00     0.003 A 
ENDROOT
BRANCH   1  10
ATOM     10  C   UNL d   1     -51.527  24.532  33.352  0.00  0.00     0.035 A 
ATOM     11  C   UNL d   1     -51.487  23.703  33.350  0.00  0.00     0.005 A 
ATOM     12  C   UNL d   1     -52.175  23.258  33.357  0.00  0.00     0.024 A 
ATOM     13  C   UNL d   1     -52.911  23.629  33.366  0.00  0.00     0.094 A 
ATOM     14  C   UNL d   1     -52.953  24.439  33.368  0.00  0.00     0.024 A 
ATOM     15  C   UNL d   1     -52.257  24.903  33.361  0.00  0.00     0.005 A 
BRANCH  13  16
ATOM     16  O   UNL d   1     -53.637  23.190  33.374  0.00  0.00    -0.328 OA
ATOM     17  C   UNL d   1     -54.125  23.195  34.039  0.00  0.00     0.181 C 
ENDBRANCH  13  16
ENDBRANCH   1  10
TORSDOF 2
ENDMDL
