MODEL 1
REMARK VINA RESULT:      -4.9      0.000      0.000
REMARK  4 active torsions:
REMARK  status: ('A' for Active; 'I' for Inactive)
REMARK    1  A    between atoms: N_2  and  S_1 
REMARK    2  A    between atoms: C_3  and  S_1 
REMARK    3  A    between atoms: C_18  and  N_6 
REMARK    4  A    between atoms: C_19  and  C_18 
ROOT
ATOM      1  N   UNL d   1      57.574  -0.026  31.080  0.00  0.00    -0.226 N 
ATOM      2  N   UNL d   1      58.318  -0.312  29.621  0.00  0.00    -0.300 N 
ATOM      3  C   UNL d   1      57.755   0.613  30.570  0.00  0.00     0.111 A 
ATOM      4  C   UNL d   1      57.767  -0.781  30.850  0.00  0.00     0.111 A 
ATOM      5  C   UNL d   1      58.141  -0.924  30.118  0.00  0.00     0.100 A 
ATOM      6  C   UNL d   1      58.128   0.470  29.838  0.00  0.00     0.100 A 
ENDROOT
BRANCH   1   7
ATOM      7  S   UNL d   1      57.205   0.116  31.804  0.00  0.00     0.272 S 
ATOM      8  O   UNL d   1      57.787   0.675  31.991  0.00  0.00    -0.200 OA
ATOM      9  O   UNL d   1      56.619  -0.447  31.615  0.00  0.00    -0.200 OA
BRANCH   7  10
ATOM     10  C   UNL d   1      56.834   0.258  32.531  0.00  0.00     0.106 A 
ATOM     11  C   UNL d   1      56.026   0.239  32.596  0.00  0.00     0.040 A 
ATOM     12  C   UNL d   1      55.664   0.378  33.305  0.00  0.00     0.123 A 
ATOM     13  O   UNL d   1      54.828   0.353  33.351  0.00  0.00    -0.301 OA
ATOM     14  C   UNL d   1      56.102   0.539  33.965  0.00  0.00     0.123 A 
ATOM     15  C   UNL d   1      54.457   0.496  34.079  0.00  0.00     0.149 A 
ATOM     16  C   UNL d   1      54.924   0.662  34.756  0.00  0.00     0.149 A 
ATOM     17  O   UNL d   1      55.731   0.682  34.692  0.00  0.00    -0.301 OA
ATOM     18  C   UNL d   1      56.908   0.565  33.931  0.00  0.00     0.028 A 
ATOM     19  C   UNL d   1      57.296   0.424  33.208  0.00  0.00     0.015 A 
ENDBRANCH   7  10
ENDBRANCH   1   7
BRANCH   2  20
ATOM     20  C   UNL d   1      58.691  -0.456  28.891  0.00  0.00     0.080 C 
BRANCH  20  21
ATOM     21  C   UNL d   1      59.486  -0.599  28.856  0.00  0.00     0.018 A 
ATOM     22  C   UNL d   1      59.769  -1.385  28.807  0.00  0.00     0.002 A 
ATOM     23  C   UNL d   1      60.564  -1.528  28.772  0.00  0.00     0.000 A 
ATOM     24  C   UNL d   1      61.103  -0.904  28.784  0.00  0.00     0.000 A 
ATOM     25  C   UNL d   1      60.850  -0.134  28.831  0.00  0.00     0.000 A 
ATOM     26  C   UNL d   1      60.025   0.026  28.868  0.00  0.00     0.002 A 
ENDBRANCH  20  21
ENDBRANCH   2  20
TORSDOF 4
ENDMDL
