MODEL 1
REMARK VINA RESULT:      13.9      0.000      0.000
REMARK  3 active torsions:
REMARK  status: ('A' for Active; 'I' for Inactive)
REMARK    1  A    between atoms: C_3  and  C_5 
REMARK    2  A    between atoms: O_13  and  C_6 
REMARK    3  A    between atoms: O_15  and  C_8 
ROOT
ATOM      1  C   UNL d   1      45.998 -17.395  44.291  0.00  0.00     0.021 A 
ATOM      2  C   UNL d   1      46.008 -17.730  43.543  0.00  0.00     0.028 A 
ATOM      3  C   UNL d   1      46.194 -18.520  43.439  0.00  0.00     0.116 A 
ATOM      4  C   UNL d   1      46.374 -18.986  44.095  0.00  0.00     0.116 A 
ATOM      5  C   UNL d   1      46.180 -17.867  44.955  0.00  0.00     0.004 A 
ATOM      6  C   UNL d   1      46.368 -18.662  44.856  0.00  0.00     0.026 A 
ENDROOT
BRANCH   1   7
ATOM      7  C   UNL d   1      45.810 -16.601  44.389  0.00  0.00     0.103 A 
ATOM      8  N   UNL d   1      46.267 -16.020  44.023  0.00  0.00    -0.145 NA
ATOM      9  N   UNL d   1      46.079 -15.223  44.121  0.00  0.00    -0.106 NA
ATOM     10  C   UNL d   1      45.433 -15.010  44.585  0.00  0.00     0.297 A 
ATOM     11  O   UNL d   1      45.241 -14.208  44.686  0.00  0.00    -0.264 OA
ATOM     12  C   UNL d   1      44.972 -15.596  44.955  0.00  0.00     0.066 A 
ATOM     13  C   UNL d   1      45.159 -16.392  44.857  0.00  0.00     0.026 A 
ENDBRANCH   1   7
BRANCH   3  14
ATOM     14  O   UNL d   1      46.202 -18.848  42.681  0.00  0.00    -0.326 OA
ATOM     15  C   UNL d   1      46.280 -18.357  42.022  0.00  0.00     0.181 C 
ENDBRANCH   3  14
BRANCH   4  16
ATOM     16  O   UNL d   1      46.563 -19.786  43.995  0.00  0.00    -0.326 OA
ATOM     17  C   UNL d   1      46.636 -20.276  44.652  0.00  0.00     0.181 C 
ENDBRANCH   4  16
TORSDOF 3
ENDMDL
