MODEL 1
REMARK VINA RESULT:      10.1      0.000      0.000
REMARK  5 active torsions:
REMARK  status: ('A' for Active; 'I' for Inactive)
REMARK    1  A    between atoms: N_2  and  S_1 
REMARK    2  A    between atoms: C_4  and  S_1 
REMARK    3  A    between atoms: C_3  and  N_2 
REMARK    4  A    between atoms: N_7  and  C_3 
REMARK    5  A    between atoms: C_15  and  N_7 
ROOT
ATOM      1  S   UNL d   1      45.678 -16.048  44.268  0.00  0.00     0.287 S 
ATOM      2  O   UNL d   1      45.229 -15.917  43.578  0.00  0.00    -0.198 OA
ATOM      3  O   UNL d   1      46.121 -16.158  44.955  0.00  0.00    -0.198 OA
ENDROOT
BRANCH   1   4
ATOM      4  N   UNL d   1      45.726 -16.854  44.095  0.00  0.00    -0.128 NA
BRANCH   4   5
ATOM      5  C   UNL d   1      46.164 -17.567  44.096  0.00  0.00     0.232 C 
ATOM      6  S   UNL d   1      46.215 -18.015  44.781  0.00  0.00    -0.036 SA
BRANCH   5   7
ATOM      7  N   UNL d   1      46.541 -17.809  43.403  0.00  0.00    -0.217 NA
BRANCH   7   8
ATOM      8  C   UNL d   1      46.522 -18.607  43.187  0.00  0.00     0.084 A 
ATOM      9  C   UNL d   1      46.514 -18.815  42.394  0.00  0.00     0.019 A 
ATOM     10  C   UNL d   1      46.496 -19.604  42.177  0.00  0.00     0.002 A 
ATOM     11  C   UNL d   1      46.485 -20.191  42.749  0.00  0.00     0.000 A 
ATOM     12  C   UNL d   1      46.493 -19.984  43.548  0.00  0.00     0.002 A 
ATOM     13  C   UNL d   1      46.512 -19.193  43.768  0.00  0.00     0.019 A 
ENDBRANCH   7   8
ENDBRANCH   5   7
ENDBRANCH   4   5
ENDBRANCH   1   4
BRANCH   1  14
ATOM     14  C   UNL d   1      45.629 -15.236  44.442  0.00  0.00     0.105 A 
ATOM     15  C   UNL d   1      46.275 -14.734  44.276  0.00  0.00     0.014 A 
ATOM     16  C   UNL d   1      46.227 -13.934  44.448  0.00  0.00     0.012 A 
ATOM     17  C   UNL d   1      45.540 -13.623  44.784  0.00  0.00     0.058 A 
ATOM     18  C   UNL d   1      44.897 -14.116  44.950  0.00  0.00     0.012 A 
ATOM     19 CL   UNL d   1      45.492 -12.822  44.955  0.00  0.00    -0.082 Cl
ATOM     20  C   UNL d   1      44.945 -14.921  44.777  0.00  0.00     0.014 A 
ENDBRANCH   1  14
TORSDOF 5
ENDMDL
MODEL 2
REMARK VINA RESULT:      11.2      1.966      4.762
REMARK  5 active torsions:
REMARK  status: ('A' for Active; 'I' for Inactive)
REMARK    1  A    between atoms: N_2  and  S_1 
REMARK    2  A    between atoms: C_4  and  S_1 
REMARK    3  A    between atoms: C_3  and  N_2 
REMARK    4  A    between atoms: N_7  and  C_3 
REMARK    5  A    between atoms: C_15  and  N_7 
ROOT
ATOM      1  S   UNL d   1      46.091 -17.110  44.169  0.00  0.00     0.287 S 
ATOM      2  O   UNL d   1      45.822 -17.285  44.938  0.00  0.00    -0.198 OA
ATOM      3  O   UNL d   1      46.360 -16.956  43.404  0.00  0.00    -0.198 OA
ENDROOT
BRANCH   1   4
ATOM      4  N   UNL d   1      45.952 -16.305  44.293  0.00  0.00    -0.128 NA
BRANCH   4   5
ATOM      5  C   UNL d   1      45.557 -15.698  44.711  0.00  0.00     0.232 C 
ATOM      6  S   UNL d   1      44.757 -15.767  44.875  0.00  0.00    -0.036 SA
BRANCH   5   7
ATOM      7  N   UNL d   1      45.983 -15.034  44.955  0.00  0.00    -0.217 NA
BRANCH   7   8
ATOM      8  C   UNL d   1      45.775 -14.288  44.666  0.00  0.00     0.084 A 
ATOM      9  C   UNL d   1      45.125 -14.209  44.171  0.00  0.00     0.019 A 
ATOM     10  C   UNL d   1      44.916 -13.472  43.883  0.00  0.00     0.002 A 
ATOM     11  C   UNL d   1      45.354 -12.808  44.086  0.00  0.00     0.000 A 
ATOM     12  C   UNL d   1      46.008 -12.886  44.584  0.00  0.00     0.002 A 
ATOM     13  C   UNL d   1      46.219 -13.625  44.874  0.00  0.00     0.019 A 
ENDBRANCH   7   8
ENDBRANCH   5   7
ENDBRANCH   4   5
ENDBRANCH   1   4
BRANCH   1  14
ATOM     14  C   UNL d   1      46.231 -17.921  44.044  0.00  0.00     0.105 A 
ATOM     15  C   UNL d   1      46.304 -18.436  44.695  0.00  0.00     0.014 A 
ATOM     16  C   UNL d   1      46.442 -19.235  44.572  0.00  0.00     0.012 A 
ATOM     17  C   UNL d   1      46.508 -19.531  43.804  0.00  0.00     0.058 A 
ATOM     18  C   UNL d   1      46.436 -19.023  43.155  0.00  0.00     0.012 A 
ATOM     19 CL   UNL d   1      46.646 -20.329  43.681  0.00  0.00    -0.082 Cl
ATOM     20  C   UNL d   1      46.298 -18.219  43.279  0.00  0.00     0.014 A 
ENDBRANCH   1  14
TORSDOF 5
ENDMDL
