MODEL 1
REMARK VINA RESULT:      66.4      0.000      0.000
REMARK  5 active torsions:
REMARK  status: ('A' for Active; 'I' for Inactive)
REMARK    1  A    between atoms: C_7  and  N_1 
REMARK    2  A    between atoms: C_15  and  C_3 
REMARK    3  A    between atoms: N_4  and  C_8 
REMARK    4  A    between atoms: C_10  and  C_11 
REMARK       I    between atoms: C_11  and  N_12 
REMARK    5  A    between atoms: N_12  and  C_15 
ROOT
ATOM      1  C   UNL d   1     -50.704  26.061  33.517  0.00  0.00     0.141 C 
ENDROOT
BRANCH   1   2
ATOM      2  N   UNL d   1     -50.509  26.470  34.206  0.00  0.00    -0.203 NA
ATOM      3  C   UNL d   1     -49.939  27.070  34.176  0.00  0.00     0.279 C 
ATOM      4  O   UNL d   1     -49.580  27.250  33.477  0.00  0.00    -0.265 OA
BRANCH   3   5
ATOM      5  C   UNL d   1     -49.748  27.479  34.872  0.00  0.00     0.059 A 
ATOM      6  C   UNL d   1     -49.113  28.006  34.872  0.00  0.00     0.027 A 
ATOM      7  C   UNL d   1     -48.927  28.404  35.552  0.00  0.00     0.127 A 
ATOM      8  C   UNL d   1     -48.684  28.114  34.180  0.00  0.00     0.002 C 
ATOM      9  C   UNL d   1     -49.366  28.289  36.250  0.00  0.00     0.024 A 
ATOM     10  C   UNL d   1     -49.998  27.768  36.260  0.00  0.00     0.002 A 
ATOM     11  C   UNL d   1     -50.186  27.367  35.578  0.00  0.00     0.005 A 
BRANCH   7  12
ATOM     12  N   UNL d   1     -48.297  28.923  35.542  0.00  0.00    -0.114 N 
ATOM     13  O   UNL d   1     -48.053  29.306  36.230  0.00  0.00    -0.532 OA
ATOM     14  O   UNL d   1     -47.894  29.069  34.831  0.00  0.00    -0.532 OA
ENDBRANCH   7  12
ENDBRANCH   3   5
ENDBRANCH   1   2
BRANCH   1  15
ATOM     15  C   UNL d   1     -50.559  25.250  33.464  0.00  0.00     0.191 A 
ATOM     16  N   UNL d   1     -51.117  24.653  33.410  0.00  0.00    -0.264 N 
ATOM     17  C   UNL d   1     -50.738  23.932  33.368  0.00  0.00     0.227 A 
ATOM     18  N   UNL d   1     -49.917  24.075  33.396  0.00  0.00    -0.117 NA
ATOM     19  S   UNL d   1     -51.090  23.194  33.309  0.00  0.00    -0.036 SA
ATOM     20  N   UNL d   1     -49.806  24.896  33.456  0.00  0.00    -0.126 NA
BRANCH  16  21
ATOM     21  C   UNL d   1     -51.938  24.765  33.400  0.00  0.00     0.068 A 
ATOM     22  C   UNL d   1     -52.429  24.112  33.366  0.00  0.00     0.018 A 
ATOM     23  C   UNL d   1     -53.248  24.229  33.356  0.00  0.00     0.001 A 
ATOM     24  C   UNL d   1     -53.761  23.578  33.322  0.00  0.00     0.000 C 
ATOM     25  C   UNL d   1     -53.567  24.997  33.380  0.00  0.00     0.000 A 
ATOM     26  C   UNL d   1     -53.057  25.631  33.413  0.00  0.00     0.002 A 
ATOM     27  C   UNL d   1     -52.240  25.532  33.424  0.00  0.00     0.018 A 
ENDBRANCH  16  21
ENDBRANCH   1  15
TORSDOF 5
ENDMDL
MODEL 2
REMARK VINA RESULT:      66.5      2.813      5.951
REMARK  5 active torsions:
REMARK  status: ('A' for Active; 'I' for Inactive)
REMARK    1  A    between atoms: C_7  and  N_1 
REMARK    2  A    between atoms: C_15  and  C_3 
REMARK    3  A    between atoms: N_4  and  C_8 
REMARK    4  A    between atoms: C_10  and  C_11 
REMARK       I    between atoms: C_11  and  N_12 
REMARK    5  A    between atoms: N_12  and  C_15 
ROOT
ATOM      1  C   UNL d   1     -48.772  29.234  34.473  0.00  0.00     0.141 C 
ENDROOT
BRANCH   1   2
ATOM      2  N   UNL d   1     -49.001  28.455  34.331  0.00  0.00    -0.203 NA
ATOM      3  C   UNL d   1     -49.559  28.297  33.739  0.00  0.00     0.279 C 
ATOM      4  O   UNL d   1     -49.873  28.902  33.308  0.00  0.00    -0.265 OA
BRANCH   3   5
ATOM      5  C   UNL d   1     -49.786  27.512  33.600  0.00  0.00     0.059 A 
ATOM      6  C   UNL d   1     -50.587  27.311  33.615  0.00  0.00     0.027 A 
ATOM      7  C   UNL d   1     -50.806  26.544  33.479  0.00  0.00     0.127 A 
ATOM      8  C   UNL d   1     -51.141  27.897  33.768  0.00  0.00     0.002 C 
ATOM      9  C   UNL d   1     -50.239  25.955  33.325  0.00  0.00     0.024 A 
ATOM     10  C   UNL d   1     -49.442  26.145  33.308  0.00  0.00     0.002 A 
ATOM     11  C   UNL d   1     -49.219  26.914  33.444  0.00  0.00     0.005 A 
BRANCH   7  12
ATOM     12  N   UNL d   1     -51.601  26.356  33.497  0.00  0.00    -0.114 N 
ATOM     13  O   UNL d   1     -51.852  25.597  33.696  0.00  0.00    -0.532 OA
ATOM     14  O   UNL d   1     -52.166  26.935  33.311  0.00  0.00    -0.532 OA
ENDBRANCH   7  12
ENDBRANCH   3   5
ENDBRANCH   1   2
BRANCH   1  15
ATOM     15  C   UNL d   1     -48.240  29.403  35.082  0.00  0.00     0.191 A 
ATOM     16  N   UNL d   1     -47.904  30.131  35.253  0.00  0.00    -0.264 N 
ATOM     17  C   UNL d   1     -47.411  30.055  35.899  0.00  0.00     0.227 A 
ATOM     18  N   UNL d   1     -47.435  29.258  36.143  0.00  0.00    -0.117 NA
ATOM     19  S   UNL d   1     -46.967  30.647  36.252  0.00  0.00    -0.036 SA
ATOM     20  N   UNL d   1     -47.951  28.852  35.634  0.00  0.00    -0.126 NA
BRANCH  16  21
ATOM     21  C   UNL d   1     -48.044  30.832  34.836  0.00  0.00     0.068 A 
ATOM     22  C   UNL d   1     -47.441  31.157  34.388  0.00  0.00     0.018 A 
ATOM     23  C   UNL d   1     -47.586  31.858  33.973  0.00  0.00     0.001 A 
ATOM     24  C   UNL d   1     -46.986  32.200  33.514  0.00  0.00     0.000 C 
ATOM     25  C   UNL d   1     -48.331  32.227  34.011  0.00  0.00     0.000 A 
ATOM     26  C   UNL d   1     -48.915  31.884  34.464  0.00  0.00     0.002 A 
ATOM     27  C   UNL d   1     -48.787  31.187  34.883  0.00  0.00     0.018 A 
ENDBRANCH  16  21
ENDBRANCH   1  15
TORSDOF 5
ENDMDL
MODEL 3
REMARK VINA RESULT:      66.6      1.356      2.011
REMARK  5 active torsions:
REMARK  status: ('A' for Active; 'I' for Inactive)
REMARK    1  A    between atoms: C_7  and  N_1 
REMARK    2  A    between atoms: C_15  and  C_3 
REMARK    3  A    between atoms: N_4  and  C_8 
REMARK    4  A    between atoms: C_10  and  C_11 
REMARK       I    between atoms: C_11  and  N_12 
REMARK    5  A    between atoms: N_12  and  C_15 
ROOT
ATOM      1  C   UNL d   1     -49.916  26.779  33.998  0.00  0.00     0.141 C 
ENDROOT
BRANCH   1   2
ATOM      2  N   UNL d   1     -49.640  27.146  34.683  0.00  0.00    -0.203 NA
ATOM      3  C   UNL d   1     -49.121  27.788  34.619  0.00  0.00     0.279 C 
ATOM      4  O   UNL d   1     -48.888  28.049  33.893  0.00  0.00    -0.265 OA
BRANCH   3   5
ATOM      5  C   UNL d   1     -48.847  28.154  35.312  0.00  0.00     0.059 A 
ATOM      6  C   UNL d   1     -48.287  28.758  35.259  0.00  0.00     0.027 A 
ATOM      7  C   UNL d   1     -48.021  29.113  35.936  0.00  0.00     0.127 A 
ATOM      8  C   UNL d   1     -48.013  28.983  34.518  0.00  0.00     0.002 C 
ATOM      9  C   UNL d   1     -48.303  28.880  36.683  0.00  0.00     0.024 A 
ATOM     10  C   UNL d   1     -48.859  28.281  36.746  0.00  0.00     0.002 A 
ATOM     11  C   UNL d   1     -49.128  27.923  36.068  0.00  0.00     0.005 A 
BRANCH   7  12
ATOM     12  N   UNL d   1     -47.467  29.709  35.872  0.00  0.00    -0.114 N 
ATOM     13  O   UNL d   1     -46.960  29.749  35.223  0.00  0.00    -0.532 OA
ATOM     14  O   UNL d   1     -47.410  30.286  36.466  0.00  0.00    -0.532 OA
ENDBRANCH   7  12
ENDBRANCH   3   5
ENDBRANCH   1   2
BRANCH   1  15
ATOM     15  C   UNL d   1     -50.724  26.771  33.830  0.00  0.00     0.191 A 
ATOM     16  N   UNL d   1     -51.179  26.119  33.634  0.00  0.00    -0.264 N 
ATOM     17  C   UNL d   1     -51.951  26.354  33.512  0.00  0.00     0.227 A 
ATOM     18  N   UNL d   1     -51.986  27.178  33.634  0.00  0.00    -0.117 NA
ATOM     19  S   UNL d   1     -52.585  25.877  33.306  0.00  0.00    -0.036 SA
ATOM     20  N   UNL d   1     -51.222  27.438  33.832  0.00  0.00    -0.126 NA
BRANCH  16  21
ATOM     21  C   UNL d   1     -50.899  25.342  33.570  0.00  0.00     0.068 A 
ATOM     22  C   UNL d   1     -51.412  24.720  33.710  0.00  0.00     0.018 A 
ATOM     23  C   UNL d   1     -51.128  23.946  33.645  0.00  0.00     0.001 A 
ATOM     24  C   UNL d   1     -51.634  23.304  33.784  0.00  0.00     0.000 C 
ATOM     25  C   UNL d   1     -50.334  23.801  33.441  0.00  0.00     0.000 A 
ATOM     26  C   UNL d   1     -49.843  24.438  33.306  0.00  0.00     0.002 A 
ATOM     27  C   UNL d   1     -50.110  25.214  33.367  0.00  0.00     0.018 A 
ENDBRANCH  16  21
ENDBRANCH   1  15
TORSDOF 5
ENDMDL
