MODEL 1
REMARK VINA RESULT:      -9.3      0.000      0.000
REMARK  1 active torsions:
REMARK  status: ('A' for Active; 'I' for Inactive)
REMARK    1  A    between atoms: C_7  and  N_2 
ROOT
ATOM      1  C   UNL d   1     -47.591  11.690  23.453  0.00  0.00     0.304 A 
ATOM      2  N   UNL d   1     -48.101  12.309  23.197  0.00  0.00    -0.272 N 
ATOM      3  C   UNL d   1     -46.805  11.991  23.487  0.00  0.00     0.253 A 
ATOM      4  C   UNL d   1     -47.655  12.972  23.074  0.00  0.00     0.070 A 
ATOM      5  C   UNL d   1     -46.872  12.780  23.249  0.00  0.00     0.060 A 
ATOM      6  O   UNL d   1     -47.830  10.890  23.647  0.00  0.00    -0.263 OA
ATOM      7  O   UNL d   1     -46.112  11.626  23.698  0.00  0.00    -0.281 OA
ATOM      8  C   UNL d   1     -47.822  13.679  22.844  0.00  0.00     0.018 A 
ATOM      9  C   UNL d   1     -46.310  13.308  23.183  0.00  0.00     0.005 A 
ATOM     10  C   UNL d   1     -47.261  14.289  22.754  0.00  0.00     0.002 A 
ATOM     11  C   UNL d   1     -46.478  14.097  22.929  0.00  0.00     0.000 A 
ENDROOT
BRANCH   2  12
ATOM     12  C   UNL d   1     -48.905  12.295  23.078  0.00  0.00     0.067 A 
ATOM     13  C   UNL d   1     -49.425  12.453  23.687  0.00  0.00     0.018 A 
ATOM     14  C   UNL d   1     -50.241  12.436  23.556  0.00  0.00     0.002 A 
ATOM     15  C   UNL d   1     -50.525  12.260  22.814  0.00  0.00     0.000 A 
ATOM     16  C   UNL d   1     -50.001  12.098  22.191  0.00  0.00     0.002 A 
ATOM     17  C   UNL d   1     -49.190  12.115  22.323  0.00  0.00     0.018 A 
ENDBRANCH   2  12
TORSDOF 1
ENDMDL
MODEL 2
REMARK VINA RESULT:      -8.8      1.460      2.166
REMARK  1 active torsions:
REMARK  status: ('A' for Active; 'I' for Inactive)
REMARK    1  A    between atoms: C_7  and  N_2 
ROOT
ATOM      1  C   UNL d   1     -47.209  13.979  22.820  0.00  0.00     0.304 A 
ATOM      2  N   UNL d   1     -47.892  13.488  22.771  0.00  0.00    -0.272 N 
ATOM      3  C   UNL d   1     -46.581  13.527  23.154  0.00  0.00     0.253 A 
ATOM      4  C   UNL d   1     -47.701  12.757  23.061  0.00  0.00     0.070 A 
ATOM      5  C   UNL d   1     -46.910  12.780  23.292  0.00  0.00     0.060 A 
ATOM      6  O   UNL d   1     -47.161  14.798  22.574  0.00  0.00    -0.263 OA
ATOM      7  O   UNL d   1     -45.815  13.735  23.318  0.00  0.00    -0.281 OA
ATOM      8  C   UNL d   1     -48.095  12.111  23.148  0.00  0.00     0.018 A 
ATOM      9  C   UNL d   1     -46.566  12.156  23.594  0.00  0.00     0.005 A 
ATOM     10  C   UNL d   1     -47.780  11.408  23.467  0.00  0.00     0.002 A 
ATOM     11  C   UNL d   1     -46.989  11.431  23.698  0.00  0.00     0.000 A 
ENDROOT
BRANCH   2  12
ATOM     12  C   UNL d   1     -48.633  13.668  22.491  0.00  0.00     0.067 A 
ATOM     13  C   UNL d   1     -48.847  13.495  21.722  0.00  0.00     0.018 A 
ATOM     14  C   UNL d   1     -49.604  13.682  21.446  0.00  0.00     0.002 A 
ATOM     15  C   UNL d   1     -50.136  14.040  21.947  0.00  0.00     0.000 A 
ATOM     16  C   UNL d   1     -49.924  14.218  22.729  0.00  0.00     0.002 A 
ATOM     17  C   UNL d   1     -49.171  14.032  23.002  0.00  0.00     0.018 A 
ENDBRANCH   2  12
TORSDOF 1
ENDMDL
