MODEL 1
REMARK VINA RESULT:      -1.3      0.000      0.000
REMARK  6 active torsions:
REMARK  status: ('A' for Active; 'I' for Inactive)
REMARK    1  A    between atoms: C_4  and  N_1 
REMARK    2  A    between atoms: N_6  and  C_2 
REMARK    3  A    between atoms: S_10  and  C_7 
REMARK    4  A    between atoms: C_12  and  C_9 
REMARK    5  A    between atoms: C_11  and  S_10 
REMARK    6  A    between atoms: O_24  and  C_20 
ROOT
ATOM      1  N   UNL d   1     -41.724-122.484 -52.534  0.00  0.00    -0.240 N 
ATOM      2  C   UNL d   1     -41.429-121.905 -52.038  0.00  0.00     0.268 A 
ATOM      3  C   UNL d   1     -42.022-123.121 -52.095  0.00  0.00     0.273 A 
ATOM      4  C   UNL d   1     -41.903-122.920 -51.292  0.00  0.00     0.091 A 
ATOM      5  C   UNL d   1     -41.541-122.177 -51.267  0.00  0.00     0.072 A 
ATOM      6  O   UNL d   1     -41.123-121.278 -51.986  0.00  0.00    -0.267 OA
ATOM      7  O   UNL d   1     -42.367-123.817 -52.364  0.00  0.00    -0.266 OA
ENDROOT
BRANCH   1   8
ATOM      8  C   UNL d   1     -41.721-122.432 -53.366  0.00  0.00     0.092 A 
ATOM      9  C   UNL d   1     -42.273-121.940 -53.712  0.00  0.00     0.145 A 
ATOM     10  C   UNL d   1     -42.289-121.872 -54.542  0.00  0.00     0.049 A 
ATOM     11  C   UNL d   1     -41.752-122.299 -54.999  0.00  0.00     0.096 A 
ATOM     12  C   UNL d   1     -41.182-122.809 -54.630  0.00  0.00     0.026 A 
ATOM     13  C   UNL d   1     -41.178-122.865 -53.809  0.00  0.00     0.021 A 
BRANCH   9  14
ATOM     14  N   UNL d   1     -42.806-121.517 -53.243  0.00  0.00    -0.112 N 
ATOM     15  O   UNL d   1     -42.662-121.176 -52.893  0.00  0.00    -0.532 OA
ATOM     16  O   UNL d   1     -43.627-121.599 -53.290  0.00  0.00    -0.532 OA
ENDBRANCH   9  14
BRANCH  11  17
ATOM     17  O   UNL d   1     -41.787-122.216 -55.822  0.00  0.00    -0.328 OA
ATOM     18  C   UNL d   1     -41.350-121.643 -56.210  0.00  0.00     0.181 C 
ENDBRANCH  11  17
ENDBRANCH   1   8
BRANCH   4  19
ATOM     19  S   UNL d   1     -42.140-123.439 -50.705  0.00  0.00    -0.082 SA
BRANCH  19  20
ATOM     20  C   UNL d   1     -42.023-123.235 -49.898  0.00  0.00     0.035 A 
ATOM     21  C   UNL d   1     -42.659-123.077 -49.419  0.00  0.00     0.070 A 
ATOM     22  C   UNL d   1     -42.553-122.878 -48.635  0.00  0.00     0.007 A 
ATOM     23  C   UNL d   1     -41.777-122.838 -48.329  0.00  0.00     0.000 A 
ATOM     24  C   UNL d   1     -41.123-122.997 -48.812  0.00  0.00     0.001 A 
ATOM     25  C   UNL d   1     -41.272-123.197 -49.606  0.00  0.00     0.007 A 
BRANCH  21  26
ATOM     26  C   UNL d   1     -43.432-123.112 -49.705  0.00  0.00     0.211 C 
ATOM     27  O   UNL d   1     -43.776-122.479 -50.092  0.00  0.00    -0.644 OA
ATOM     28  O   UNL d   1     -43.888-123.809 -49.602  0.00  0.00    -0.644 OA
ENDBRANCH  21  26
ENDBRANCH  19  20
ENDBRANCH   4  19
TORSDOF 6
ENDMDL
MODEL 2
REMARK VINA RESULT:      -0.7      1.230      4.684
REMARK  6 active torsions:
REMARK  status: ('A' for Active; 'I' for Inactive)
REMARK    1  A    between atoms: C_4  and  N_1 
REMARK    2  A    between atoms: N_6  and  C_2 
REMARK    3  A    between atoms: S_10  and  C_7 
REMARK    4  A    between atoms: C_12  and  C_9 
REMARK    5  A    between atoms: C_11  and  S_10 
REMARK    6  A    between atoms: O_24  and  C_20 
ROOT
ATOM      1  N   UNL d   1     -42.093-122.868 -51.472  0.00  0.00    -0.240 N 
ATOM      2  C   UNL d   1     -42.650-123.311 -51.874  0.00  0.00     0.268 A 
ATOM      3  C   UNL d   1     -41.716-122.337 -51.985  0.00  0.00     0.273 A 
ATOM      4  C   UNL d   1     -42.060-122.463 -52.737  0.00  0.00     0.091 A 
ATOM      5  C   UNL d   1     -42.628-123.058 -52.659  0.00  0.00     0.072 A 
ATOM      6  O   UNL d   1     -43.137-123.812 -51.838  0.00  0.00    -0.267 OA
ATOM      7  O   UNL d   1     -41.125-121.790 -51.819  0.00  0.00    -0.266 OA
ENDROOT
BRANCH   1   8
ATOM      8  C   UNL d   1     -41.933-122.946 -50.657  0.00  0.00     0.092 A 
ATOM      9  C   UNL d   1     -42.407-122.526 -50.141  0.00  0.00     0.145 A 
ATOM     10  C   UNL d   1     -42.266-122.589 -49.323  0.00  0.00     0.049 A 
ATOM     11  C   UNL d   1     -41.655-123.069 -49.047  0.00  0.00     0.096 A 
ATOM     12  C   UNL d   1     -41.168-123.501 -49.591  0.00  0.00     0.026 A 
ATOM     13  C   UNL d   1     -41.319-123.430 -50.398  0.00  0.00     0.021 A 
BRANCH   9  14
ATOM     14  N   UNL d   1     -43.016-122.049 -50.430  0.00  0.00    -0.112 N 
ATOM     15  O   UNL d   1     -42.940-121.587 -50.631  0.00  0.00    -0.532 OA
ATOM     16  O   UNL d   1     -43.813-122.266 -50.426  0.00  0.00    -0.532 OA
ENDBRANCH   9  14
BRANCH  11  17
ATOM     17  O   UNL d   1     -41.534-123.115 -48.229  0.00  0.00    -0.328 OA
ATOM     18  C   UNL d   1     -42.078-123.480 -47.740  0.00  0.00     0.181 C 
ENDBRANCH  11  17
ENDBRANCH   1   8
BRANCH   4  19
ATOM     19  S   UNL d   1     -41.808-122.020 -53.378  0.00  0.00    -0.082 SA
BRANCH  19  20
ATOM     20  C   UNL d   1     -41.713-122.390 -54.127  0.00  0.00     0.035 A 
ATOM     21  C   UNL d   1     -42.080-122.086 -54.783  0.00  0.00     0.070 A 
ATOM     22  C   UNL d   1     -41.991-122.441 -55.513  0.00  0.00     0.007 A 
ATOM     23  C   UNL d   1     -41.516-123.125 -55.576  0.00  0.00     0.000 A 
ATOM     24  C   UNL d   1     -41.138-123.440 -54.909  0.00  0.00     0.001 A 
ATOM     25  C   UNL d   1     -41.252-123.050 -54.184  0.00  0.00     0.007 A 
BRANCH  21  26
ATOM     26  C   UNL d   1     -42.553-121.412 -54.739  0.00  0.00     0.211 C 
ATOM     27  O   UNL d   1     -43.355-121.439 -54.894  0.00  0.00    -0.644 OA
ATOM     28  O   UNL d   1     -42.215-120.673 -54.529  0.00  0.00    -0.644 OA
ENDBRANCH  21  26
ENDBRANCH  19  20
ENDBRANCH   4  19
TORSDOF 6
ENDMDL
MODEL 3
REMARK VINA RESULT:       0.1      1.370      2.022
REMARK  6 active torsions:
REMARK  status: ('A' for Active; 'I' for Inactive)
REMARK    1  A    between atoms: C_4  and  N_1 
REMARK    2  A    between atoms: N_6  and  C_2 
REMARK    3  A    between atoms: S_10  and  C_7 
REMARK    4  A    between atoms: C_12  and  C_9 
REMARK    5  A    between atoms: C_11  and  S_10 
REMARK    6  A    between atoms: O_24  and  C_20 
ROOT
ATOM      1  N   UNL d   1     -42.320-122.660 -51.405  0.00  0.00    -0.240 N 
ATOM      2  C   UNL d   1     -43.044-122.385 -51.147  0.00  0.00     0.268 A 
ATOM      3  C   UNL d   1     -41.877-122.957 -50.770  0.00  0.00     0.273 A 
ATOM      4  C   UNL d   1     -42.356-122.859 -50.092  0.00  0.00     0.091 A 
ATOM      5  C   UNL d   1     -43.065-122.509 -50.331  0.00  0.00     0.072 A 
ATOM      6  O   UNL d   1     -43.655-122.090 -51.320  0.00  0.00    -0.267 OA
ATOM      7  O   UNL d   1     -41.123-123.286 -50.776  0.00  0.00    -0.266 OA
ENDROOT
BRANCH   1   8
ATOM      8  C   UNL d   1     -42.069-122.639 -52.200  0.00  0.00     0.092 A 
ATOM      9  C   UNL d   1     -41.571-122.029 -52.420  0.00  0.00     0.145 A 
ATOM     10  C   UNL d   1     -41.307-121.989 -53.208  0.00  0.00     0.049 A 
ATOM     11  C   UNL d   1     -41.549-122.559 -53.752  0.00  0.00     0.096 A 
ATOM     12  C   UNL d   1     -42.066-123.190 -53.514  0.00  0.00     0.026 A 
ATOM     13  C   UNL d   1     -42.319-123.217 -52.731  0.00  0.00     0.021 A 
BRANCH   9  14
ATOM     14  N   UNL d   1     -41.336-121.464 -51.865  0.00  0.00    -0.112 N 
ATOM     15  O   UNL d   1     -41.242-121.572 -51.377  0.00  0.00    -0.532 OA
ATOM     16  O   UNL d   1     -41.230-120.664 -52.040  0.00  0.00    -0.532 OA
ENDBRANCH   9  14
BRANCH  11  17
ATOM     17  O   UNL d   1     -41.273-122.498 -54.530  0.00  0.00    -0.328 OA
ATOM     18  C   UNL d   1     -41.791-122.486 -55.164  0.00  0.00     0.181 C 
ENDBRANCH  11  17
ENDBRANCH   1   8
BRANCH   4  19
ATOM     19  S   UNL d   1     -42.077-123.100 -49.361  0.00  0.00    -0.082 SA
BRANCH  19  20
ATOM     20  C   UNL d   1     -42.623-123.334 -48.765  0.00  0.00     0.035 A 
ATOM     21  C   UNL d   1     -42.398-123.346 -47.985  0.00  0.00     0.070 A 
ATOM     22  C   UNL d   1     -42.923-123.572 -47.403  0.00  0.00     0.007 A 
ATOM     23  C   UNL d   1     -43.699-123.792 -47.620  0.00  0.00     0.000 A 
ATOM     24  C   UNL d   1     -43.935-123.782 -48.415  0.00  0.00     0.001 A 
ATOM     25  C   UNL d   1     -43.371-123.545 -48.979  0.00  0.00     0.007 A 
BRANCH  21  26
ATOM     26  C   UNL d   1     -41.637-123.132 -47.754  0.00  0.00     0.211 C 
ATOM     27  O   UNL d   1     -41.341-122.381 -47.889  0.00  0.00    -0.644 OA
ATOM     28  O   UNL d   1     -41.141-123.689 -47.369  0.00  0.00    -0.644 OA
ENDBRANCH  21  26
ENDBRANCH  19  20
ENDBRANCH   4  19
TORSDOF 6
ENDMDL
