MODEL 1
REMARK VINA RESULT:      -2.0      0.000      0.000
REMARK  5 active torsions:
REMARK  status: ('A' for Active; 'I' for Inactive)
REMARK    1  A    between atoms: N_3  and  C_1 
REMARK    2  A    between atoms: C_12  and  N_2 
REMARK       I    between atoms: C_6  and  N_3 
REMARK    3  A    between atoms: C_8  and  C_6 
REMARK    4  A    between atoms: C_16  and  C_12 
REMARK    5  A    between atoms: O_22  and  C_16 
ROOT
ATOM      1  C   UNL d   1      57.431  -0.458  31.349  0.00  0.00     0.183 A 
ATOM      2  N   UNL d   1      57.606   0.104  31.922  0.00  0.00    -0.280 N 
ATOM      3  S   UNL d   1      56.701  -0.794  31.536  0.00  0.00    -0.048 SA
ATOM      4  C   UNL d   1      56.424  -0.436  32.230  0.00  0.00     0.051 A 
ATOM      5  C   UNL d   1      56.986   0.122  32.470  0.00  0.00     0.072 A 
ATOM      6  C   UNL d   1      55.736  -0.545  32.673  0.00  0.00     0.038 A 
ATOM      7  C   UNL d   1      56.859   0.569  33.151  0.00  0.00     0.020 A 
ATOM      8  C   UNL d   1      55.610  -0.098  33.354  0.00  0.00     0.141 A 
ATOM      9  C   UNL d   1      56.172   0.459  33.594  0.00  0.00     0.031 A 
ATOM     10  F   UNL d   1      54.927  -0.210  33.790  0.00  0.00    -0.204 F 
ENDROOT
BRANCH   1  11
ATOM     11  N   UNL d   1      57.908  -0.648  30.700  0.00  0.00    -0.183 NA
ATOM     12  C   UNL d   1      57.852  -1.398  30.361  0.00  0.00     0.287 C 
ATOM     13  O   UNL d   1      57.324  -1.951  30.670  0.00  0.00    -0.265 OA
BRANCH  12  14
ATOM     14  C   UNL d   1      58.318  -1.592  29.723  0.00  0.00     0.088 A 
ATOM     15  S   UNL d   1      58.883  -2.200  29.692  0.00  0.00    -0.071 SA
ATOM     16  C   UNL d   1      59.218  -2.198  28.950  0.00  0.00     0.087 A 
ATOM     17 CL   UNL d   1      59.801  -2.700  28.666  0.00  0.00    -0.075 Cl
ATOM     18  C   UNL d   1      58.869  -1.598  28.524  0.00  0.00     0.019 A 
ATOM     19  C   UNL d   1      58.318  -1.229  29.000  0.00  0.00     0.013 A 
ENDBRANCH  12  14
ENDBRANCH   1  11
BRANCH   2  20
ATOM     20  C   UNL d   1      58.093   0.680  32.250  0.00  0.00     0.151 C 
BRANCH  20  21
ATOM     21  C   UNL d   1      58.895   0.669  32.096  0.00  0.00     0.314 C 
ATOM     22  O   UNL d   1      59.156   0.671  31.321  0.00  0.00    -0.257 OA
BRANCH  21  23
ATOM     23  O   UNL d   1      59.430   0.655  32.707  0.00  0.00    -0.295 OA
ATOM     24  C   UNL d   1      60.228   0.682  32.552  0.00  0.00     0.185 C 
ENDBRANCH  21  23
ENDBRANCH  20  21
ENDBRANCH   2  20
TORSDOF 5
ENDMDL
MODEL 2
REMARK VINA RESULT:      -0.3      1.571      2.155
REMARK  5 active torsions:
REMARK  status: ('A' for Active; 'I' for Inactive)
REMARK    1  A    between atoms: N_3  and  C_1 
REMARK    2  A    between atoms: C_12  and  N_2 
REMARK       I    between atoms: C_6  and  N_3 
REMARK    3  A    between atoms: C_8  and  C_6 
REMARK    4  A    between atoms: C_16  and  C_12 
REMARK    5  A    between atoms: O_22  and  C_16 
ROOT
ATOM      1  C   UNL d   1      58.305  -1.168  30.072  0.00  0.00     0.183 A 
ATOM      2  N   UNL d   1      58.262  -0.348  30.078  0.00  0.00    -0.280 N 
ATOM      3  S   UNL d   1      57.784  -1.455  30.645  0.00  0.00    -0.048 SA
ATOM      4  C   UNL d   1      57.417  -0.805  31.006  0.00  0.00     0.051 A 
ATOM      5  C   UNL d   1      57.714  -0.118  30.654  0.00  0.00     0.072 A 
ATOM      6  C   UNL d   1      56.854  -0.752  31.607  0.00  0.00     0.038 A 
ATOM      7  C   UNL d   1      57.447   0.621  30.904  0.00  0.00     0.020 A 
ATOM      8  C   UNL d   1      56.588  -0.012  31.856  0.00  0.00     0.141 A 
ATOM      9  C   UNL d   1      56.884   0.675  31.504  0.00  0.00     0.031 A 
ATOM     10  F   UNL d   1      56.030   0.036  32.452  0.00  0.00    -0.204 F 
ENDROOT
BRANCH   1  11
ATOM     11  N   UNL d   1      58.788  -1.621  29.577  0.00  0.00    -0.183 NA
ATOM     12  C   UNL d   1      59.012  -2.380  29.811  0.00  0.00     0.287 C 
ATOM     13  O   UNL d   1      58.754  -2.680  30.534  0.00  0.00    -0.265 OA
BRANCH  12  14
ATOM     14  C   UNL d   1      59.488  -2.831  29.328  0.00  0.00     0.088 A 
ATOM     15  S   UNL d   1      59.467  -3.657  29.249  0.00  0.00    -0.071 SA
ATOM     16  C   UNL d   1      60.036  -3.875  28.709  0.00  0.00     0.087 A 
ATOM     17 CL   UNL d   1      60.217  -4.633  28.456  0.00  0.00    -0.075 Cl
ATOM     18  C   UNL d   1      60.407  -3.196  28.455  0.00  0.00     0.019 A 
ATOM     19  C   UNL d   1      60.069  -2.558  28.836  0.00  0.00     0.013 A 
ENDBRANCH  12  14
ENDBRANCH   1  11
BRANCH   2  20
ATOM     20  C   UNL d   1      58.486   0.393  29.801  0.00  0.00     0.151 C 
BRANCH  20  21
ATOM     21  C   UNL d   1      59.264   0.530  29.594  0.00  0.00     0.314 C 
ATOM     22  O   UNL d   1      59.844   0.513  30.170  0.00  0.00    -0.257 OA
BRANCH  21  23
ATOM     23  O   UNL d   1      59.462   0.682  28.821  0.00  0.00    -0.295 OA
ATOM     24  C   UNL d   1      60.236   0.620  28.577  0.00  0.00     0.185 C 
ENDBRANCH  21  23
ENDBRANCH  20  21
ENDBRANCH   2  20
TORSDOF 5
ENDMDL
MODEL 3
REMARK VINA RESULT:       0.1      1.419      1.849
REMARK  5 active torsions:
REMARK  status: ('A' for Active; 'I' for Inactive)
REMARK    1  A    between atoms: N_3  and  C_1 
REMARK    2  A    between atoms: C_12  and  N_2 
REMARK       I    between atoms: C_6  and  N_3 
REMARK    3  A    between atoms: C_8  and  C_6 
REMARK    4  A    between atoms: C_16  and  C_12 
REMARK    5  A    between atoms: O_22  and  C_16 
ROOT
ATOM      1  C   UNL d   1      56.702   0.157  32.650  0.00  0.00     0.183 A 
ATOM      2  N   UNL d   1      56.821   0.406  33.425  0.00  0.00    -0.280 N 
ATOM      3  S   UNL d   1      55.891   0.057  32.536  0.00  0.00    -0.048 SA
ATOM      4  C   UNL d   1      55.506   0.245  33.246  0.00  0.00     0.051 A 
ATOM      5  C   UNL d   1      56.083   0.462  33.798  0.00  0.00     0.072 A 
ATOM      6  C   UNL d   1      54.710   0.247  33.460  0.00  0.00     0.038 A 
ATOM      7  C   UNL d   1      55.863   0.680  34.562  0.00  0.00     0.020 A 
ATOM      8  C   UNL d   1      54.489   0.465  34.224  0.00  0.00     0.141 A 
ATOM      9  C   UNL d   1      55.066   0.682  34.775  0.00  0.00     0.031 A 
ATOM     10  F   UNL d   1      53.698   0.466  34.432  0.00  0.00    -0.204 F 
ENDROOT
BRANCH   1  11
ATOM     11  N   UNL d   1      57.297   0.032  32.090  0.00  0.00    -0.183 NA
ATOM     12  C   UNL d   1      57.108   0.050  31.287  0.00  0.00     0.287 C 
ATOM     13  O   UNL d   1      56.331   0.192  31.050  0.00  0.00    -0.265 OA
BRANCH  12  14
ATOM     14  C   UNL d   1      57.688  -0.073  30.729  0.00  0.00     0.088 A 
ATOM     15  S   UNL d   1      57.941  -0.806  30.434  0.00  0.00    -0.071 SA
ATOM     16  C   UNL d   1      58.529  -0.672  29.888  0.00  0.00     0.087 A 
ATOM     17 CL   UNL d   1      58.943  -1.231  29.454  0.00  0.00    -0.075 Cl
ATOM     18  C   UNL d   1      58.643   0.134  29.842  0.00  0.00     0.019 A 
ATOM     19  C   UNL d   1      58.126   0.498  30.359  0.00  0.00     0.013 A 
ENDBRANCH  12  14
ENDBRANCH   1  11
BRANCH   2  20
ATOM     20  C   UNL d   1      57.305   0.637  34.048  0.00  0.00     0.151 C 
BRANCH  20  21
ATOM     21  C   UNL d   1      58.115   0.663  33.943  0.00  0.00     0.314 C 
ATOM     22  O   UNL d   1      58.422   0.682  33.185  0.00  0.00    -0.257 OA
BRANCH  21  23
ATOM     23  O   UNL d   1      58.612   0.670  34.585  0.00  0.00    -0.295 OA
ATOM     24  C   UNL d   1      59.419   0.682  34.478  0.00  0.00     0.185 C 
ENDBRANCH  21  23
ENDBRANCH  20  21
ENDBRANCH   2  20
TORSDOF 5
ENDMDL
