MODEL 1
REMARK VINA RESULT:      61.0      0.000      0.000
REMARK  2 active torsions:
REMARK  status: ('A' for Active; 'I' for Inactive)
REMARK    1  A    between atoms: C_2  and  S_1 
REMARK    2  A    between atoms: N_3  and  S_1 
ROOT
ATOM      1  S   UNL d   1      59.138  49.639  52.255  0.00  0.00     0.272 S 
ATOM      2  O   UNL d   1      59.935  49.560  52.451  0.00  0.00    -0.200 OA
ATOM      3  O   UNL d   1      58.915  49.699  51.461  0.00  0.00    -0.200 OA
ENDROOT
BRANCH   1   4
ATOM      4  C   UNL d   1      59.708  49.621  51.660  0.00  0.00     0.115 A 
ATOM      5  C   UNL d   1      59.475  49.641  50.878  0.00  0.00     0.071 A 
ATOM      6  C   UNL d   1      60.036  49.624  50.280  0.00  0.00     0.024 A 
ATOM      7 CL   UNL d   1      58.677  49.679  50.668  0.00  0.00    -0.082 Cl
ATOM      8  C   UNL d   1      60.842  49.585  50.471  0.00  0.00     0.059 A 
ATOM      9  C   UNL d   1      61.069  49.565  51.264  0.00  0.00     0.011 A 
ATOM     10 CL   UNL d   1      61.408  49.568  49.872  0.00  0.00    -0.082 Cl
ATOM     11  C   UNL d   1      60.505  49.583  51.859  0.00  0.00     0.015 A 
ATOM     12  C   UNL d   1      61.872  49.527  51.451  0.00  0.00     0.001 C 
ENDBRANCH   1   4
BRANCH   1  13
ATOM     13  N   UNL d   1      58.565  49.657  52.848  0.00  0.00    -0.229 N 
ATOM     14  C   UNL d   1      58.898  49.676  53.633  0.00  0.00     0.092 A 
ATOM     15  C   UNL d   1      58.619  49.695  54.297  0.00  0.00     0.020 A 
ATOM     16  C   UNL d   1      57.809  49.704  54.491  0.00  0.00     0.002 A 
ATOM     17  C   UNL d   1      57.140  49.692  53.926  0.00  0.00     0.002 A 
ATOM     18  C   UNL d   1      57.169  49.668  53.042  0.00  0.00     0.020 A 
ATOM     19  C   UNL d   1      57.873  49.653  52.574  0.00  0.00     0.092 A 
ENDBRANCH   1  13
TORSDOF 2
ENDMDL
