MODEL 1
REMARK VINA RESULT:      73.1      0.000      0.000
REMARK  7 active torsions:
REMARK  status: ('A' for Active; 'I' for Inactive)
REMARK    1  A    between atoms: S_2  and  C_1 
REMARK    2  A    between atoms: C_6  and  S_2 
REMARK    3  A    between atoms: C_24  and  C_16 
REMARK    4  A    between atoms: C_25  and  C_24 
REMARK    5  A    between atoms: C_28  and  C_25 
REMARK    6  A    between atoms: C_26  and  C_27 
REMARK    7  A    between atoms: C_27  and  C_28 
ROOT
ATOM      1  C   UNL d   1     -48.351  28.336  34.553  0.00  0.00     0.151 A 
ATOM      2  C   UNL d   1     -47.799  27.722  34.558  0.00  0.00     0.311 A 
ATOM      3  C   UNL d   1     -49.122  28.194  34.304  0.00  0.00     0.019 A 
ATOM      4  O   UNL d   1     -48.018  26.968  34.312  0.00  0.00    -0.272 OA
ATOM      5  C   UNL d   1     -48.791  26.827  34.062  0.00  0.00     0.106 A 
ATOM      6  C   UNL d   1     -49.343  27.440  34.058  0.00  0.00     0.024 A 
ATOM      7  C   UNL d   1     -49.010  26.072  33.817  0.00  0.00     0.067 A 
ATOM      8  C   UNL d   1     -49.791  25.923  33.562  0.00  0.00     0.198 A 
ATOM      9  C   UNL d   1     -50.114  27.298  33.808  0.00  0.00     0.005 A 
ATOM     10  C   UNL d   1     -50.343  26.536  33.558  0.00  0.00     0.039 A 
ATOM     11  O   UNL d   1     -47.013  27.865  34.812  0.00  0.00    -0.258 OA
ATOM     12  O   UNL d   1     -50.010  25.168  33.317  0.00  0.00    -0.286 OA
ENDROOT
BRANCH   1  13
ATOM     13  S   UNL d   1     -48.123  29.098  34.803  0.00  0.00     0.215 S 
ATOM     14  O   UNL d   1     -47.380  28.797  35.037  0.00  0.00    -0.217 OA
ATOM     15  O   UNL d   1     -48.860  29.399  34.571  0.00  0.00    -0.217 OA
BRANCH  13  16
ATOM     16  C   UNL d   1     -47.890  29.847  35.052  0.00  0.00     0.089 A 
ATOM     17  C   UNL d   1     -47.953  30.491  34.536  0.00  0.00     0.025 A 
ATOM     18  C   UNL d   1     -47.719  31.249  34.783  0.00  0.00     0.086 A 
ATOM     19 CL   UNL d   1     -47.782  31.889  34.268  0.00  0.00    -0.080 Cl
ATOM     20  C   UNL d   1     -47.425  31.360  35.546  0.00  0.00     0.151 A 
ATOM     21  C   UNL d   1     -47.362  30.719  36.060  0.00  0.00     0.031 A 
ATOM     22  F   UNL d   1     -47.192  32.114  35.793  0.00  0.00    -0.203 F 
ATOM     23  C   UNL d   1     -47.594  29.970  35.812  0.00  0.00     0.014 A 
ENDBRANCH  13  16
ENDBRANCH   1  13
BRANCH  10  24
ATOM     24  C   UNL d   1     -51.119  26.389  33.306  0.00  0.00     0.003 C 
BRANCH  24  25
ATOM     25  C   UNL d   1     -51.489  25.672  33.479  0.00  0.00     0.000 C 
BRANCH  25  26
ATOM     26  C   UNL d   1     -52.250  25.661  33.793  0.00  0.00     0.000 C 
BRANCH  26  27
ATOM     27  C   UNL d   1     -52.638  24.946  33.931  0.00  0.00     0.000 C 
BRANCH  27  28
ATOM     28  C   UNL d   1     -52.963  24.513  33.306  0.00  0.00     0.000 C 
ATOM     29  C   UNL d   1     -53.124  23.713  33.397  0.00  0.00     0.000 C 
ENDBRANCH  27  28
ENDBRANCH  26  27
ENDBRANCH  25  26
ENDBRANCH  24  25
ENDBRANCH  10  24
TORSDOF 7
ENDMDL
MODEL 2
REMARK VINA RESULT:      75.8      1.203      1.798
REMARK  7 active torsions:
REMARK  status: ('A' for Active; 'I' for Inactive)
REMARK    1  A    between atoms: S_2  and  C_1 
REMARK    2  A    between atoms: C_6  and  S_2 
REMARK    3  A    between atoms: C_24  and  C_16 
REMARK    4  A    between atoms: C_25  and  C_24 
REMARK    5  A    between atoms: C_28  and  C_25 
REMARK    6  A    between atoms: C_26  and  C_27 
REMARK    7  A    between atoms: C_27  and  C_28 
ROOT
ATOM      1  C   UNL d   1     -48.170  29.769  35.019  0.00  0.00     0.151 A 
ATOM      2  C   UNL d   1     -47.893  29.430  35.718  0.00  0.00     0.311 A 
ATOM      3  C   UNL d   1     -48.672  29.344  34.525  0.00  0.00     0.019 A 
ATOM      4  O   UNL d   1     -48.118  28.665  35.923  0.00  0.00    -0.272 OA
ATOM      5  C   UNL d   1     -48.620  28.239  35.428  0.00  0.00     0.106 A 
ATOM      6  C   UNL d   1     -48.897  28.579  34.729  0.00  0.00     0.024 A 
ATOM      7  C   UNL d   1     -48.845  27.474  35.633  0.00  0.00     0.067 A 
ATOM      8  C   UNL d   1     -49.355  27.038  35.136  0.00  0.00     0.198 A 
ATOM      9  C   UNL d   1     -49.399  28.153  34.235  0.00  0.00     0.005 A 
ATOM     10  C   UNL d   1     -49.632  27.377  34.437  0.00  0.00     0.039 A 
ATOM     11  O   UNL d   1     -47.381  29.862  36.222  0.00  0.00    -0.258 OA
ATOM     12  O   UNL d   1     -49.579  26.273  35.341  0.00  0.00    -0.286 OA
ENDROOT
BRANCH   1  13
ATOM     13  S   UNL d   1     -47.938  30.544  34.818  0.00  0.00     0.215 S 
ATOM     14  O   UNL d   1     -48.203  30.816  35.561  0.00  0.00    -0.217 OA
ATOM     15  O   UNL d   1     -47.674  30.277  34.078  0.00  0.00    -0.217 OA
BRANCH  13  16
ATOM     16  C   UNL d   1     -47.711  31.312  34.625  0.00  0.00     0.089 A 
ATOM     17  C   UNL d   1     -48.208  31.785  34.163  0.00  0.00     0.025 A 
ATOM     18  C   UNL d   1     -47.983  32.561  33.966  0.00  0.00     0.086 A 
ATOM     19 CL   UNL d   1     -48.479  33.031  33.505  0.00  0.00    -0.080 Cl
ATOM     20  C   UNL d   1     -47.262  32.859  34.233  0.00  0.00     0.151 A 
ATOM     21  C   UNL d   1     -46.767  32.389  34.694  0.00  0.00     0.031 A 
ATOM     22  F   UNL d   1     -47.037  33.630  34.038  0.00  0.00    -0.203 F 
ATOM     23  C   UNL d   1     -46.993  31.621  34.887  0.00  0.00     0.014 A 
ENDBRANCH  13  16
ENDBRANCH   1  13
BRANCH  10  24
ATOM     24  C   UNL d   1     -50.137  26.945  33.941  0.00  0.00     0.003 C 
BRANCH  24  25
ATOM     25  C   UNL d   1     -50.000  26.145  33.796  0.00  0.00     0.000 C 
BRANCH  25  26
ATOM     26  C   UNL d   1     -50.541  25.702  33.361  0.00  0.00     0.000 C 
BRANCH  26  27
ATOM     27  C   UNL d   1     -51.216  25.391  33.721  0.00  0.00     0.000 C 
BRANCH  27  28
ATOM     28  C   UNL d   1     -51.623  24.757  33.380  0.00  0.00     0.000 C 
ATOM     29  C   UNL d   1     -52.442  24.773  33.325  0.00  0.00     0.000 C 
ENDBRANCH  27  28
ENDBRANCH  26  27
ENDBRANCH  25  26
ENDBRANCH  24  25
ENDBRANCH  10  24
TORSDOF 7
ENDMDL
