MODEL 1
REMARK VINA RESULT:      -5.0      0.000      0.000
REMARK  4 active torsions:
REMARK  status: ('A' for Active; 'I' for Inactive)
REMARK    1  A    between atoms: C_6  and  C_1 
REMARK    2  A    between atoms: C_7  and  C_5 
REMARK    3  A    between atoms: O_15  and  C_12 
REMARK    4  A    between atoms: C_16  and  O_15 
ROOT
ATOM      1  C   UNL d   1      56.964  -0.190  31.567  0.00  0.00     0.020 A 
ATOM      2  C   UNL d   1      56.646  -0.899  31.875  0.00  0.00     0.004 A 
ATOM      3  C   UNL d   1      56.815   0.526  31.948  0.00  0.00     0.004 A 
ATOM      4  C   UNL d   1      56.035  -0.146  32.943  0.00  0.00     0.100 A 
ATOM      5  C   UNL d   1      56.184  -0.878  32.558  0.00  0.00     0.025 A 
ATOM      6  C   UNL d   1      56.354   0.548  32.631  0.00  0.00     0.025 A 
ENDROOT
BRANCH   1   7
ATOM      7  C   UNL d   1      57.428  -0.209  30.882  0.00  0.00     0.105 A 
ATOM      8  C   UNL d   1      58.280  -1.113  30.325  0.00  0.00     0.048 A 
ATOM      9  C   UNL d   1      58.410  -0.611  29.722  0.00  0.00     0.169 A 
ATOM     10  N   UNL d   1      58.050   0.089  29.698  0.00  0.00    -0.142 NA
ATOM     11  N   UNL d   1      57.559   0.283  30.283  0.00  0.00    -0.148 NA
BRANCH   9  12
ATOM     12  C   UNL d   1      58.907  -0.822  29.141  0.00  0.00     0.231 C 
ATOM     13  O   UNL d   1      58.617  -1.090  28.456  0.00  0.00    -0.643 OA
ATOM     14  O   UNL d   1      59.721  -0.760  29.256  0.00  0.00    -0.643 OA
ENDBRANCH   9  12
ENDBRANCH   1   7
BRANCH   4  15
ATOM     15  O   UNL d   1      55.568  -0.133  33.633  0.00  0.00    -0.305 OA
BRANCH  15  16
ATOM     16  C   UNL d   1      55.047   0.497  33.757  0.00  0.00     0.123 C 
ATOM     17  C   UNL d   1      54.627   0.553  34.472  0.00  0.00     0.029 C 
ENDBRANCH  15  16
ENDBRANCH   4  15
TORSDOF 4
ENDMDL
MODEL 2
REMARK VINA RESULT:      -4.7      1.595      4.692
REMARK  4 active torsions:
REMARK  status: ('A' for Active; 'I' for Inactive)
REMARK    1  A    between atoms: C_6  and  C_1 
REMARK    2  A    between atoms: C_7  and  C_5 
REMARK    3  A    between atoms: O_15  and  C_12 
REMARK    4  A    between atoms: C_16  and  O_15 
ROOT
ATOM      1  C   UNL d   1      56.774   0.076  32.139  0.00  0.00     0.020 A 
ATOM      2  C   UNL d   1      56.952  -0.719  31.950  0.00  0.00     0.004 A 
ATOM      3  C   UNL d   1      56.956   0.675  31.601  0.00  0.00     0.004 A 
ATOM      4  C   UNL d   1      57.493  -0.286  30.685  0.00  0.00     0.100 A 
ATOM      5  C   UNL d   1      57.309  -0.899  31.229  0.00  0.00     0.025 A 
ATOM      6  C   UNL d   1      57.313   0.496  30.880  0.00  0.00     0.025 A 
ENDROOT
BRANCH   1   7
ATOM      7  C   UNL d   1      56.415   0.259  32.862  0.00  0.00     0.105 A 
ATOM      8  C   UNL d   1      55.137   0.244  33.329  0.00  0.00     0.048 A 
ATOM      9  C   UNL d   1      55.398   0.500  34.035  0.00  0.00     0.169 A 
ATOM     10  N   UNL d   1      56.164   0.635  34.155  0.00  0.00    -0.142 NA
ATOM     11  N   UNL d   1      56.668   0.511  33.561  0.00  0.00    -0.148 NA
BRANCH   9  12
ATOM     12  C   UNL d   1      54.878   0.619  34.622  0.00  0.00     0.231 C 
ATOM     13  O   UNL d   1      55.134   0.677  35.367  0.00  0.00    -0.643 OA
ATOM     14  O   UNL d   1      54.074   0.682  34.449  0.00  0.00    -0.643 OA
ENDBRANCH   9  12
ENDBRANCH   1   7
BRANCH   4  15
ATOM     15  O   UNL d   1      57.854  -0.475  29.959  0.00  0.00    -0.305 OA
BRANCH  15  16
ATOM     16  C   UNL d   1      58.658  -0.316  29.852  0.00  0.00     0.123 C 
ATOM     17  C   UNL d   1      59.024  -0.494  29.128  0.00  0.00     0.029 C 
ENDBRANCH  15  16
ENDBRANCH   4  15
TORSDOF 4
ENDMDL
MODEL 3
REMARK VINA RESULT:      -4.2      1.271      4.577
REMARK  4 active torsions:
REMARK  status: ('A' for Active; 'I' for Inactive)
REMARK    1  A    between atoms: C_6  and  C_1 
REMARK    2  A    between atoms: C_7  and  C_5 
REMARK    3  A    between atoms: O_15  and  C_12 
REMARK    4  A    between atoms: C_16  and  O_15 
ROOT
ATOM      1  C   UNL d   1      57.384  -0.142  31.190  0.00  0.00     0.020 A 
ATOM      2  C   UNL d   1      57.718   0.604  31.014  0.00  0.00     0.004 A 
ATOM      3  C   UNL d   1      57.587  -0.800  30.734  0.00  0.00     0.004 A 
ATOM      4  C   UNL d   1      58.453   0.006  29.926  0.00  0.00     0.100 A 
ATOM      5  C   UNL d   1      58.249   0.677  30.387  0.00  0.00     0.025 A 
ATOM      6  C   UNL d   1      58.117  -0.726  30.107  0.00  0.00     0.025 A 
ENDROOT
BRANCH   1   7
ATOM      7  C   UNL d   1      56.851  -0.218  31.818  0.00  0.00     0.105 A 
ATOM      8  C   UNL d   1      56.092   0.648  32.542  0.00  0.00     0.048 A 
ATOM      9  C   UNL d   1      55.814   0.039  32.971  0.00  0.00     0.169 A 
ATOM     10  N   UNL d   1      56.053  -0.697  32.824  0.00  0.00    -0.142 NA
ATOM     11  N   UNL d   1      56.574  -0.818  32.245  0.00  0.00    -0.148 NA
BRANCH   9  12
ATOM     12  C   UNL d   1      55.291   0.178  33.551  0.00  0.00     0.231 C 
ATOM     13  O   UNL d   1      54.693   0.679  33.426  0.00  0.00    -0.643 OA
ATOM     14  O   UNL d   1      55.376  -0.201  34.278  0.00  0.00    -0.643 OA
ENDBRANCH   9  12
ENDBRANCH   1   7
BRANCH   4  15
ATOM     15  O   UNL d   1      58.989   0.088  29.294  0.00  0.00    -0.305 OA
BRANCH  15  16
ATOM     16  C   UNL d   1      59.799   0.002  29.437  0.00  0.00     0.123 C 
ATOM     17  C   UNL d   1      60.340   0.069  28.810  0.00  0.00     0.029 C 
ENDBRANCH  15  16
ENDBRANCH   4  15
TORSDOF 4
ENDMDL
MODEL 4
REMARK VINA RESULT:      -2.3      9.621     10.254
REMARK  4 active torsions:
REMARK  status: ('A' for Active; 'I' for Inactive)
REMARK    1  A    between atoms: C_6  and  C_1 
REMARK    2  A    between atoms: C_7  and  C_5 
REMARK    3  A    between atoms: O_15  and  C_12 
REMARK    4  A    between atoms: C_16  and  O_15 
ROOT
ATOM      1  C   UNL d   1      58.567  -9.687  32.269  0.00  0.00     0.020 A 
ATOM      2  C   UNL d   1      59.040  -9.742  31.581  0.00  0.00     0.004 A 
ATOM      3  C   UNL d   1      57.745  -9.675  32.202  0.00  0.00     0.004 A 
ATOM      4  C   UNL d   1      57.842  -9.774  30.776  0.00  0.00     0.100 A 
ATOM      5  C   UNL d   1      58.680  -9.785  30.840  0.00  0.00     0.025 A 
ATOM      6  C   UNL d   1      57.385  -9.719  31.461  0.00  0.00     0.025 A 
ENDROOT
BRANCH   1   7
ATOM      7  C   UNL d   1      58.926  -9.643  33.013  0.00  0.00     0.105 A 
ATOM      8  C   UNL d   1      60.143  -9.240  33.470  0.00  0.00     0.048 A 
ATOM      9  C   UNL d   1      59.917  -9.416  34.212  0.00  0.00     0.169 A 
ATOM     10  N   UNL d   1      59.199  -9.705  34.355  0.00  0.00    -0.142 NA
ATOM     11  N   UNL d   1      58.707  -9.816  33.748  0.00  0.00    -0.148 NA
BRANCH   9  12
ATOM     12  C   UNL d   1      60.424  -9.299  34.810  0.00  0.00     0.231 C 
ATOM     13  O   UNL d   1      61.100  -9.707  34.837  0.00  0.00    -0.643 OA
ATOM     14  O   UNL d   1      60.242  -8.751  35.399  0.00  0.00    -0.643 OA
ENDBRANCH   9  12
ENDBRANCH   1   7
BRANCH   4  15
ATOM     15  O   UNL d   1      57.487  -9.818  30.024  0.00  0.00    -0.305 OA
BRANCH  15  16
ATOM     16  C   UNL d   1      57.650  -9.233  29.464  0.00  0.00     0.123 C 
ATOM     17  C   UNL d   1      57.416  -9.338  28.674  0.00  0.00     0.029 C 
ENDBRANCH  15  16
ENDBRANCH   4  15
TORSDOF 4
ENDMDL
