MODEL 1
REMARK VINA RESULT:      -0.2      0.000      0.000
REMARK  2 active torsions:
REMARK  status: ('A' for Active; 'I' for Inactive)
REMARK    1  A    between atoms: C_13  and  C_5 
REMARK    2  A    between atoms: C_16  and  C_13 
ROOT
ATOM      1  C   UNL d   1     -41.126-121.393 -51.380  0.00  0.00     0.111 A 
ATOM      2  C   UNL d   1     -41.129-122.472 -52.313  0.00  0.00     0.062 A 
ATOM      3  C   UNL d   1     -41.127-120.860 -51.996  0.00  0.00     0.213 A 
ATOM      4  C   UNL d   1     -41.130-121.938 -52.929  0.00  0.00     0.101 A 
ATOM      5  C   UNL d   1     -41.127-122.193 -51.535  0.00  0.00     0.018 A 
ATOM      6  O   UNL d   1     -41.129-121.130 -52.765  0.00  0.00    -0.288 OA
ATOM      7  C   UNL d   1     -41.130-123.272 -52.468  0.00  0.00     0.194 A 
ATOM      8  C   UNL d   1     -41.125-121.073 -50.587  0.00  0.00     0.105 C 
ATOM      9  N   UNL d   1     -41.123-120.778 -49.795  0.00  0.00    -0.191 NA
ATOM     10  C   UNL d   1     -41.131-122.208 -53.698  0.00  0.00     0.002 A 
ATOM     11  C   UNL d   1     -41.132-123.019 -53.864  0.00  0.00     0.042 A 
ATOM     12  C   UNL d   1     -41.131-123.552 -53.248  0.00  0.00     0.019 A 
ATOM     13  O   UNL d   1     -41.129-123.817 -51.838  0.00  0.00    -0.287 OA
ATOM     14  N   UNL d   1     -41.126-120.029 -51.793  0.00  0.00    -0.120 N 
ATOM     15  C   UNL d   1     -41.133-123.756 -54.211  0.00  0.00     0.009 C 
ATOM     16  C   UNL d   1     -41.133-123.102 -54.671  0.00  0.00     0.009 C 
ENDROOT
BRANCH   5  17
ATOM     17  C   UNL d   1     -41.126-122.739 -50.904  0.00  0.00     0.001 C 
BRANCH  17  18
ATOM     18  C   UNL d   1     -41.813-122.884 -50.483  0.00  0.00     0.000 A 
ATOM     19  C   UNL d   1     -41.790-123.355 -49.793  0.00  0.00     0.000 A 
ATOM     20  C   UNL d   1     -42.497-123.500 -49.365  0.00  0.00     0.000 A 
ATOM     21  C   UNL d   1     -43.191-123.195 -49.610  0.00  0.00     0.000 A 
ATOM     22  C   UNL d   1     -43.229-122.720 -50.301  0.00  0.00     0.000 A 
ATOM     23  C   UNL d   1     -42.540-122.564 -50.740  0.00  0.00     0.000 A 
ENDBRANCH  17  18
ENDBRANCH   5  17
TORSDOF 2
ENDMDL
