MODEL 1
REMARK VINA RESULT:      -5.3      0.000      0.000
REMARK  4 active torsions:
REMARK  status: ('A' for Active; 'I' for Inactive)
REMARK    1  A    between atoms: C_10  and  N_1 
REMARK       I    between atoms: C_3  and  N_9 
REMARK    2  A    between atoms: C_6  and  C_3 
REMARK    3  A    between atoms: N_9  and  C_11 
REMARK    4  A    between atoms: C_11  and  C_10 
ROOT
ATOM      1  N   UNL d   1      56.819  -0.304  31.799  0.00  0.00    -0.303 N 
ATOM      2  C   UNL d   1      56.852  -1.131  31.765  0.00  0.00     0.080 A 
ATOM      3  C   UNL d   1      56.299  -0.099  32.413  0.00  0.00     0.064 A 
ATOM      4  C   UNL d   1      56.359  -1.431  32.352  0.00  0.00     0.021 A 
ATOM      5  C   UNL d   1      56.016  -0.797  32.753  0.00  0.00     0.018 A 
ATOM      6  C   UNL d   1      56.057   0.635  32.694  0.00  0.00     0.018 A 
ATOM      7  C   UNL d   1      55.486  -0.752  33.381  0.00  0.00     0.002 A 
ATOM      8  C   UNL d   1      55.527   0.680  33.322  0.00  0.00     0.002 A 
ATOM      9  C   UNL d   1      55.232  -0.017  33.676  0.00  0.00     0.000 A 
ENDROOT
BRANCH   1  10
ATOM     10  C   UNL d   1      57.230   0.216  31.308  0.00  0.00     0.101 C 
BRANCH  10  11
ATOM     11  C   UNL d   1      57.649  -0.073  30.660  0.00  0.00     0.121 C 
BRANCH  11  12
ATOM     12  N   UNL d   1      57.586   0.302  29.928  0.00  0.00    -0.209 NA
ATOM     13  C   UNL d   1      58.206   0.267  29.388  0.00  0.00     0.255 C 
ATOM     14  O   UNL d   1      58.143   0.642  28.656  0.00  0.00    -0.270 OA
BRANCH  13  15
ATOM     15  C   UNL d   1      58.897  -0.150  29.581  0.00  0.00     0.073 C 
ATOM     16  C   UNL d   1      58.579  -0.837  29.242  0.00  0.00     0.009 C 
ATOM     17  C   UNL d   1      59.585  -0.558  29.775  0.00  0.00     0.009 C 
ATOM     18  C   UNL d   1      59.206   0.537  29.915  0.00  0.00     0.009 C 
ENDBRANCH  13  15
ENDBRANCH  11  12
ENDBRANCH  10  11
ENDBRANCH   1  10
TORSDOF 4
ENDMDL
MODEL 2
REMARK VINA RESULT:      -4.7      0.605      1.082
REMARK  4 active torsions:
REMARK  status: ('A' for Active; 'I' for Inactive)
REMARK    1  A    between atoms: C_10  and  N_1 
REMARK       I    between atoms: C_3  and  N_9 
REMARK    2  A    between atoms: C_6  and  C_3 
REMARK    3  A    between atoms: N_9  and  C_11 
REMARK    4  A    between atoms: C_11  and  C_10 
ROOT
ATOM      1  N   UNL d   1      57.237  -0.048  31.815  0.00  0.00    -0.303 N 
ATOM      2  C   UNL d   1      57.602   0.604  32.171  0.00  0.00     0.080 A 
ATOM      3  C   UNL d   1      56.707  -0.371  32.367  0.00  0.00     0.064 A 
ATOM      4  C   UNL d   1      57.302   0.682  32.933  0.00  0.00     0.021 A 
ATOM      5  C   UNL d   1      56.749   0.082  33.057  0.00  0.00     0.018 A 
ATOM      6  C   UNL d   1      56.200  -1.016  32.317  0.00  0.00     0.018 A 
ATOM      7  C   UNL d   1      56.276  -0.119  33.699  0.00  0.00     0.002 A 
ATOM      8  C   UNL d   1      55.727  -1.217  32.959  0.00  0.00     0.002 A 
ATOM      9  C   UNL d   1      55.758  -0.769  33.663  0.00  0.00     0.000 A 
ENDROOT
BRANCH   1  10
ATOM     10  C   UNL d   1      57.377  -0.324  31.049  0.00  0.00     0.101 C 
BRANCH  10  11
ATOM     11  C   UNL d   1      57.965   0.025  30.588  0.00  0.00     0.121 C 
BRANCH  11  12
ATOM     12  N   UNL d   1      57.795   0.261  29.816  0.00  0.00    -0.209 NA
ATOM     13  C   UNL d   1      58.368   0.199  29.228  0.00  0.00     0.255 C 
ATOM     14  O   UNL d   1      58.199   0.435  28.455  0.00  0.00    -0.270 OA
BRANCH  13  15
ATOM     15  C   UNL d   1      59.119  -0.101  29.414  0.00  0.00     0.073 C 
ATOM     16  C   UNL d   1      58.852  -0.870  29.251  0.00  0.00     0.009 C 
ATOM     17  C   UNL d   1      59.865  -0.394  29.599  0.00  0.00     0.009 C 
ATOM     18  C   UNL d   1      59.375   0.665  29.574  0.00  0.00     0.009 C 
ENDBRANCH  13  15
ENDBRANCH  11  12
ENDBRANCH  10  11
ENDBRANCH   1  10
TORSDOF 4
ENDMDL
MODEL 3
REMARK VINA RESULT:      -3.8      1.486      4.237
REMARK  4 active torsions:
REMARK  status: ('A' for Active; 'I' for Inactive)
REMARK    1  A    between atoms: C_10  and  N_1 
REMARK       I    between atoms: C_3  and  N_9 
REMARK    2  A    between atoms: C_6  and  C_3 
REMARK    3  A    between atoms: N_9  and  C_11 
REMARK    4  A    between atoms: C_11  and  C_10 
ROOT
ATOM      1  N   UNL d   1      57.816  -0.346  30.437  0.00  0.00    -0.303 N 
ATOM      2  C   UNL d   1      57.750   0.473  30.331  0.00  0.00     0.080 A 
ATOM      3  C   UNL d   1      58.298  -0.639  29.827  0.00  0.00     0.064 A 
ATOM      4  C   UNL d   1      58.186   0.681  29.665  0.00  0.00     0.021 A 
ATOM      5  C   UNL d   1      58.525  -0.002  29.351  0.00  0.00     0.018 A 
ATOM      6  C   UNL d   1      58.550  -1.403  29.657  0.00  0.00     0.018 A 
ATOM      7  C   UNL d   1      59.009  -0.139  28.700  0.00  0.00     0.002 A 
ATOM      8  C   UNL d   1      59.034  -1.540  29.006  0.00  0.00     0.002 A 
ATOM      9  C   UNL d   1      59.272  -0.907  28.516  0.00  0.00     0.000 A 
ENDROOT
BRANCH   1  10
ATOM     10  C   UNL d   1      57.465  -0.786  31.040  0.00  0.00     0.101 C 
BRANCH  10  11
ATOM     11  C   UNL d   1      56.962  -0.417  31.579  0.00  0.00     0.121 C 
BRANCH  11  12
ATOM     12  N   UNL d   1      56.336  -0.838  31.912  0.00  0.00    -0.209 NA
ATOM     13  C   UNL d   1      56.029  -0.618  32.644  0.00  0.00     0.255 C 
ATOM     14  O   UNL d   1      55.403  -1.039  32.977  0.00  0.00    -0.270 OA
BRANCH  13  15
ATOM     15  C   UNL d   1      56.353   0.030  33.048  0.00  0.00     0.073 C 
ATOM     16  C   UNL d   1      55.839   0.540  32.642  0.00  0.00     0.009 C 
ATOM     17  C   UNL d   1      56.677   0.670  33.450  0.00  0.00     0.009 C 
ATOM     18  C   UNL d   1      56.859  -0.483  33.446  0.00  0.00     0.009 C 
ENDBRANCH  13  15
ENDBRANCH  11  12
ENDBRANCH  10  11
ENDBRANCH   1  10
TORSDOF 4
ENDMDL
MODEL 4
REMARK VINA RESULT:      -2.8      9.438     10.237
REMARK  4 active torsions:
REMARK  status: ('A' for Active; 'I' for Inactive)
REMARK    1  A    between atoms: C_10  and  N_1 
REMARK       I    between atoms: C_3  and  N_9 
REMARK    2  A    between atoms: C_6  and  C_3 
REMARK    3  A    between atoms: N_9  and  C_11 
REMARK    4  A    between atoms: C_11  and  C_10 
ROOT
ATOM      1  N   UNL d   1      58.649  -9.803  32.620  0.00  0.00    -0.303 N 
ATOM      2  C   UNL d   1      57.873  -9.805  32.906  0.00  0.00     0.080 A 
ATOM      3  C   UNL d   1      58.611  -9.807  31.790  0.00  0.00     0.064 A 
ATOM      4  C   UNL d   1      57.361  -9.810  32.261  0.00  0.00     0.021 A 
ATOM      5  C   UNL d   1      57.813  -9.811  31.571  0.00  0.00     0.018 A 
ATOM      6  C   UNL d   1      59.204  -9.806  31.221  0.00  0.00     0.018 A 
ATOM      7  C   UNL d   1      57.616  -9.815  30.772  0.00  0.00     0.002 A 
ATOM      8  C   UNL d   1      59.006  -9.811  30.422  0.00  0.00     0.002 A 
ATOM      9  C   UNL d   1      58.205  -9.815  30.185  0.00  0.00     0.000 A 
ENDROOT
BRANCH   1  10
ATOM     10  C   UNL d   1      59.335  -9.798  33.079  0.00  0.00     0.101 C 
BRANCH  10  11
ATOM     11  C   UNL d   1      59.358  -9.360  33.777  0.00  0.00     0.121 C 
BRANCH  11  12
ATOM     12  N   UNL d   1      60.010  -8.879  33.938  0.00  0.00    -0.209 NA
ATOM     13  C   UNL d   1      60.176  -8.650  34.712  0.00  0.00     0.255 C 
ATOM     14  O   UNL d   1      60.826  -8.170  34.874  0.00  0.00    -0.270 OA
BRANCH  13  15
ATOM     15  C   UNL d   1      59.685  -8.905  35.331  0.00  0.00     0.073 C 
ATOM     16  C   UNL d   1      59.235  -8.210  35.260  0.00  0.00     0.009 C 
ATOM     17  C   UNL d   1      59.201  -9.161  35.945  0.00  0.00     0.009 C 
ATOM     18  C   UNL d   1      60.136  -9.590  35.394  0.00  0.00     0.009 C 
ENDBRANCH  13  15
ENDBRANCH  11  12
ENDBRANCH  10  11
ENDBRANCH   1  10
TORSDOF 4
ENDMDL
MODEL 5
REMARK VINA RESULT:      -2.5      2.268      4.744
REMARK  4 active torsions:
REMARK  status: ('A' for Active; 'I' for Inactive)
REMARK    1  A    between atoms: C_10  and  N_1 
REMARK       I    between atoms: C_3  and  N_9 
REMARK    2  A    between atoms: C_6  and  C_3 
REMARK    3  A    between atoms: N_9  and  C_11 
REMARK    4  A    between atoms: C_11  and  C_10 
ROOT
ATOM      1  N   UNL d   1      59.123  -2.371  28.775  0.00  0.00    -0.303 N 
ATOM      2  C   UNL d   1      58.472  -2.865  28.912  0.00  0.00     0.080 A 
ATOM      3  C   UNL d   1      59.790  -2.857  28.677  0.00  0.00     0.064 A 
ATOM      4  C   UNL d   1      58.735  -3.645  28.898  0.00  0.00     0.021 A 
ATOM      5  C   UNL d   1      59.547  -3.643  28.753  0.00  0.00     0.018 A 
ATOM      6  C   UNL d   1      60.576  -2.671  28.529  0.00  0.00     0.018 A 
ATOM      7  C   UNL d   1      60.104  -4.244  28.679  0.00  0.00     0.002 A 
ATOM      8  C   UNL d   1      61.133  -3.272  28.455  0.00  0.00     0.002 A 
ATOM      9  C   UNL d   1      60.904  -4.072  28.530  0.00  0.00     0.000 A 
ENDROOT
BRANCH   1  10
ATOM     10  C   UNL d   1      59.106  -1.547  28.744  0.00  0.00     0.101 C 
BRANCH  10  11
ATOM     11  C   UNL d   1      58.672  -1.123  29.302  0.00  0.00     0.121 C 
BRANCH  11  12
ATOM     12  N   UNL d   1      58.135  -0.548  29.053  0.00  0.00    -0.209 NA
ATOM     13  C   UNL d   1      57.978   0.107  29.528  0.00  0.00     0.255 C 
ATOM     14  O   UNL d   1      57.440   0.682  29.280  0.00  0.00    -0.270 OA
BRANCH  13  15
ATOM     15  C   UNL d   1      58.363   0.188  30.258  0.00  0.00     0.073 C 
ATOM     16  C   UNL d   1      58.955   0.643  29.896  0.00  0.00     0.009 C 
ATOM     17  C   UNL d   1      58.742   0.265  30.984  0.00  0.00     0.009 C 
ATOM     18  C   UNL d   1      57.772  -0.265  30.609  0.00  0.00     0.009 C 
ENDBRANCH  13  15
ENDBRANCH  11  12
ENDBRANCH  10  11
ENDBRANCH   1  10
TORSDOF 4
ENDMDL
