MODEL 1
REMARK VINA RESULT:     108.8      0.000      0.000
REMARK  5 active torsions:
REMARK  status: ('A' for Active; 'I' for Inactive)
REMARK    1  A    between atoms: C_12  and  N_1 
REMARK    2  A    between atoms: S_9  and  C_2 
REMARK       I    between atoms: N_7  and  C_10 
REMARK    3  A    between atoms: C_19  and  N_8 
REMARK    4  A    between atoms: C_14  and  S_9 
REMARK    5  A    between atoms: C_10  and  C_14 
ROOT
ATOM      1  N   UNL d   1      58.037  49.519  51.871  0.00  0.00    -0.254 N 
ATOM      2  C   UNL d   1      58.853  49.523  51.990  0.00  0.00     0.182 A 
ATOM      3  C   UNL d   1      57.526  49.566  52.517  0.00  0.00     0.274 A 
ATOM      4  C   UNL d   1      57.831  49.617  53.278  0.00  0.00     0.104 A 
ATOM      5  N   UNL d   1      59.158  49.574  52.756  0.00  0.00    -0.222 NA
ATOM      6  C   UNL d   1      58.647  49.621  53.397  0.00  0.00     0.095 A 
ATOM      7  S   UNL d   1      57.468  49.670  54.015  0.00  0.00    -0.080 SA
ATOM      8  O   UNL d   1      56.709  49.563  52.398  0.00  0.00    -0.266 OA
ATOM      9  C   UNL d   1      58.788  49.676  54.208  0.00  0.00     0.027 A 
ATOM     10  C   UNL d   1      58.065  49.706  54.587  0.00  0.00     0.037 A 
ENDROOT
BRANCH   2  11
ATOM     11  S   UNL d   1      59.375  49.476  51.341  0.00  0.00    -0.044 SA
BRANCH  11  12
ATOM     12  C   UNL d   1      60.140  49.186  51.452  0.00  0.00     0.099 C 
BRANCH  12  13
ATOM     13  C   UNL d   1      60.632  49.059  50.801  0.00  0.00     0.272 C 
ATOM     14  N   UNL d   1      60.838  48.290  50.583  0.00  0.00    -0.269 N 
ATOM     15  C   UNL d   1      60.552  47.648  51.016  0.00  0.00     0.102 A 
ATOM     16  C   UNL d   1      61.329  48.164  49.932  0.00  0.00     0.102 A 
ATOM     17  C   UNL d   1      60.762  46.887  50.792  0.00  0.00     0.100 A 
ATOM     18  N   UNL d   1      61.248  46.758  50.148  0.00  0.00    -0.301 N 
ATOM     19  C   UNL d   1      61.534  47.400  49.715  0.00  0.00     0.100 A 
ATOM     20  O   UNL d   1      60.917  49.701  50.368  0.00  0.00    -0.266 OA
BRANCH  18  21
ATOM     21  C   UNL d   1      61.454  45.989  49.930  0.00  0.00     0.064 A 
ATOM     22  C   UNL d   1      61.159  45.346  50.355  0.00  0.00     0.018 A 
ATOM     23  C   UNL d   1      61.365  44.578  50.137  0.00  0.00     0.002 A 
ATOM     24  C   UNL d   1      61.866  44.452  49.494  0.00  0.00     0.000 A 
ATOM     25  C   UNL d   1      62.162  45.094  49.068  0.00  0.00     0.002 A 
ATOM     26  C   UNL d   1      61.956  45.863  49.286  0.00  0.00     0.018 A 
ENDBRANCH  18  21
ENDBRANCH  12  13
ENDBRANCH  11  12
ENDBRANCH   2  11
BRANCH   1  27
ATOM     27  C   UNL d   1      57.731  49.469  51.115  0.00  0.00     0.069 A 
ATOM     28  C   UNL d   1      56.968  49.181  50.993  0.00  0.00     0.018 A 
ATOM     29  C   UNL d   1      56.662  49.132  50.227  0.00  0.00     0.002 A 
ATOM     30  C   UNL d   1      57.121  49.371  49.584  0.00  0.00     0.000 A 
ATOM     31  C   UNL d   1      57.884  49.659  49.705  0.00  0.00     0.002 A 
ATOM     32  C   UNL d   1      58.189  49.708  50.471  0.00  0.00     0.018 A 
ENDBRANCH   1  27
TORSDOF 5
ENDMDL
MODEL 2
REMARK VINA RESULT:     110.9      0.936      2.314
REMARK  5 active torsions:
REMARK  status: ('A' for Active; 'I' for Inactive)
REMARK    1  A    between atoms: C_12  and  N_1 
REMARK    2  A    between atoms: S_9  and  C_2 
REMARK       I    between atoms: N_7  and  C_10 
REMARK    3  A    between atoms: C_19  and  N_8 
REMARK    4  A    between atoms: C_14  and  S_9 
REMARK    5  A    between atoms: C_10  and  C_14 
ROOT
ATOM      1  N   UNL d   1      59.025  49.704  52.276  0.00  0.00    -0.254 N 
ATOM      2  C   UNL d   1      59.177  49.703  51.465  0.00  0.00     0.182 A 
ATOM      3  C   UNL d   1      58.247  49.705  52.549  0.00  0.00     0.274 A 
ATOM      4  C   UNL d   1      57.625  49.704  52.013  0.00  0.00     0.104 A 
ATOM      5  N   UNL d   1      58.551  49.701  50.927  0.00  0.00    -0.222 NA
ATOM      6  C   UNL d   1      57.777  49.702  51.202  0.00  0.00     0.095 A 
ATOM      7  S   UNL d   1      56.808  49.704  52.116  0.00  0.00    -0.080 SA
ATOM      8  O   UNL d   1      58.095  49.707  53.360  0.00  0.00    -0.266 OA
ATOM      9  C   UNL d   1      57.054  49.701  50.805  0.00  0.00     0.027 A 
ATOM     10  C   UNL d   1      56.459  49.703  51.365  0.00  0.00     0.037 A 
ENDROOT
BRANCH   2  11
ATOM     11  S   UNL d   1      59.963  49.702  51.183  0.00  0.00    -0.044 SA
BRANCH  11  12
ATOM     12  C   UNL d   1      60.127  49.395  50.434  0.00  0.00     0.099 C 
BRANCH  12  13
ATOM     13  C   UNL d   1      60.893  49.145  50.249  0.00  0.00     0.272 C 
ATOM     14  N   UNL d   1      61.052  48.342  50.150  0.00  0.00    -0.269 N 
ATOM     15  C   UNL d   1      60.446  47.788  50.236  0.00  0.00     0.102 A 
ATOM     16  C   UNL d   1      61.817  48.094  49.966  0.00  0.00     0.102 A 
ATOM     17  C   UNL d   1      60.614  46.991  50.135  0.00  0.00     0.100 A 
ATOM     18  N   UNL d   1      61.370  46.740  49.953  0.00  0.00    -0.301 N 
ATOM     19  C   UNL d   1      61.976  47.294  49.867  0.00  0.00     0.100 A 
ATOM     20  O   UNL d   1      61.498  49.700  50.164  0.00  0.00    -0.266 OA
BRANCH  18  21
ATOM     21  C   UNL d   1      61.530  45.937  49.853  0.00  0.00     0.064 A 
ATOM     22  C   UNL d   1      61.996  45.683  49.221  0.00  0.00     0.018 A 
ATOM     23  C   UNL d   1      62.155  44.880  49.122  0.00  0.00     0.002 A 
ATOM     24  C   UNL d   1      61.849  44.330  49.655  0.00  0.00     0.000 A 
ATOM     25  C   UNL d   1      61.383  44.583  50.288  0.00  0.00     0.002 A 
ATOM     26  C   UNL d   1      61.223  45.386  50.387  0.00  0.00     0.018 A 
ENDBRANCH  18  21
ENDBRANCH  12  13
ENDBRANCH  11  12
ENDBRANCH   2  11
BRANCH   1  27
ATOM     27  C   UNL d   1      59.643  49.705  52.811  0.00  0.00     0.069 A 
ATOM     28  C   UNL d   1      59.491  49.707  53.621  0.00  0.00     0.018 A 
ATOM     29  C   UNL d   1      60.118  49.708  54.159  0.00  0.00     0.002 A 
ATOM     30  C   UNL d   1      60.897  49.708  53.885  0.00  0.00     0.000 A 
ATOM     31  C   UNL d   1      61.049  49.706  53.074  0.00  0.00     0.002 A 
ATOM     32  C   UNL d   1      60.422  49.705  52.538  0.00  0.00     0.018 A 
ENDBRANCH   1  27
TORSDOF 5
ENDMDL
