MODEL 1
REMARK VINA RESULT:      -8.4      0.000      0.000
REMARK  5 active torsions:
REMARK  status: ('A' for Active; 'I' for Inactive)
REMARK    1  A    between atoms: N_2  and  S_1 
REMARK    2  A    between atoms: C_7  and  S_1 
REMARK    3  A    between atoms: C_3  and  N_2 
REMARK    4  A    between atoms: C_6  and  O_8 
REMARK    5  A    between atoms: O_8  and  C_9 
ROOT
ATOM      1  C   UNL d   1      52.002  33.442  52.899  0.00  0.00     0.117 A 
ATOM      2  C   UNL d   1      51.396  33.975  53.063  0.00  0.00     0.118 A 
ATOM      3  C   UNL d   1      52.785  33.698  52.976  0.00  0.00     0.022 A 
ATOM      4  C   UNL d   1      51.564  34.743  53.299  0.00  0.00     0.026 A 
ATOM      5  C   UNL d   1      52.953  34.466  53.211  0.00  0.00     0.002 A 
ATOM      6  C   UNL d   1      52.342  34.996  53.375  0.00  0.00     0.002 A 
ENDROOT
BRANCH   1   7
ATOM      7  N   UNL d   1      51.834  32.673  52.663  0.00  0.00    -0.156 NA
BRANCH   7   8
ATOM      8  S   UNL d   1      52.314  32.050  52.907  0.00  0.00     0.285 S 
ATOM      9  O   UNL d   1      52.761  32.118  52.196  0.00  0.00    -0.198 OA
ATOM     10  O   UNL d   1      51.874  31.985  53.605  0.00  0.00    -0.198 OA
BRANCH   8  11
ATOM     11  C   UNL d   1      52.806  31.413  53.156  0.00  0.00     0.105 A 
ATOM     12  C   UNL d   1      52.591  30.633  52.968  0.00  0.00     0.013 A 
ATOM     13  C   UNL d   1      53.080  30.014  53.216  0.00  0.00     0.001 A 
ATOM     14  C   UNL d   1      53.782  30.170  53.651  0.00  0.00     0.000 A 
ATOM     15  C   UNL d   1      53.983  30.942  53.829  0.00  0.00     0.001 A 
ATOM     16  C   UNL d   1      53.509  31.569  53.591  0.00  0.00     0.013 A 
ENDBRANCH   8  11
ENDBRANCH   7   8
ENDBRANCH   1   7
BRANCH   2  17
ATOM     17  O   UNL d   1      50.592  33.707  52.983  0.00  0.00    -0.306 OA
BRANCH  17  18
ATOM     18  C   UNL d   1      50.016  34.192  52.653  0.00  0.00     0.100 A 
ATOM     19  C   UNL d   1      49.846  34.152  51.842  0.00  0.00     0.025 A 
ATOM     20  C   UNL d   1      49.262  34.649  51.526  0.00  0.00     0.002 A 
ATOM     21  C   UNL d   1      49.083  34.640  50.801  0.00  0.00     0.000 C 
ATOM     22  C   UNL d   1      48.853  35.176  52.010  0.00  0.00     0.000 A 
ATOM     23  C   UNL d   1      49.033  35.206  52.819  0.00  0.00     0.002 A 
ATOM     24  C   UNL d   1      49.616  34.710  53.130  0.00  0.00     0.025 A 
ATOM     25  C   UNL d   1      48.614  35.719  53.206  0.00  0.00     0.000 C 
ENDBRANCH  17  18
ENDBRANCH   2  17
TORSDOF 5
ENDMDL
MODEL 2
REMARK VINA RESULT:      -8.0      1.653      4.828
REMARK  5 active torsions:
REMARK  status: ('A' for Active; 'I' for Inactive)
REMARK    1  A    between atoms: N_2  and  S_1 
REMARK    2  A    between atoms: C_7  and  S_1 
REMARK    3  A    between atoms: C_3  and  N_2 
REMARK    4  A    between atoms: C_6  and  O_8 
REMARK    5  A    between atoms: O_8  and  C_9 
ROOT
ATOM      1  C   UNL d   1      51.784  33.210  53.143  0.00  0.00     0.117 A 
ATOM      2  C   UNL d   1      52.583  33.051  53.268  0.00  0.00     0.118 A 
ATOM      3  C   UNL d   1      51.277  32.579  52.976  0.00  0.00     0.022 A 
ATOM      4  C   UNL d   1      52.870  32.282  53.227  0.00  0.00     0.026 A 
ATOM      5  C   UNL d   1      51.564  31.811  52.935  0.00  0.00     0.002 A 
ATOM      6  C   UNL d   1      52.364  31.656  53.061  0.00  0.00     0.002 A 
ENDROOT
BRANCH   1   7
ATOM      7  N   UNL d   1      51.498  33.980  53.184  0.00  0.00    -0.156 NA
BRANCH   7   8
ATOM      8  S   UNL d   1      50.812  34.188  52.780  0.00  0.00     0.285 S 
ATOM      9  O   UNL d   1      51.276  34.418  52.115  0.00  0.00    -0.198 OA
ATOM     10  O   UNL d   1      50.358  33.961  53.433  0.00  0.00    -0.198 OA
BRANCH   8  11
ATOM     11  C   UNL d   1      50.110  34.402  52.364  0.00  0.00     0.105 A 
ATOM     12  C   UNL d   1      49.496  34.786  52.771  0.00  0.00     0.013 A 
ATOM     13  C   UNL d   1      48.812  34.992  52.355  0.00  0.00     0.001 A 
ATOM     14  C   UNL d   1      48.738  34.816  51.536  0.00  0.00     0.000 A 
ATOM     15  C   UNL d   1      49.349  34.437  51.148  0.00  0.00     0.001 A 
ATOM     16  C   UNL d   1      50.036  34.226  51.545  0.00  0.00     0.013 A 
ENDBRANCH   8  11
ENDBRANCH   7   8
ENDBRANCH   1   7
BRANCH   2  17
ATOM     17  O   UNL d   1      53.102  33.703  53.440  0.00  0.00    -0.306 OA
BRANCH  17  18
ATOM     18  C   UNL d   1      53.799  33.589  53.860  0.00  0.00     0.100 A 
ATOM     19  C   UNL d   1      53.795  33.588  54.690  0.00  0.00     0.025 A 
ATOM     20  C   UNL d   1      54.508  33.472  55.098  0.00  0.00     0.002 A 
ATOM     21  C   UNL d   1      54.541  33.465  55.844  0.00  0.00     0.000 C 
ATOM     22  C   UNL d   1      55.213  33.359  54.687  0.00  0.00     0.000 A 
ATOM     23  C   UNL d   1      55.203  33.362  53.858  0.00  0.00     0.002 A 
ATOM     24  C   UNL d   1      54.491  33.478  53.455  0.00  0.00     0.025 A 
ATOM     25  C   UNL d   1      55.894  33.251  53.544  0.00  0.00     0.000 C 
ENDBRANCH  17  18
ENDBRANCH   2  17
TORSDOF 5
ENDMDL
MODEL 3
REMARK VINA RESULT:      -7.8      1.368      2.081
REMARK  5 active torsions:
REMARK  status: ('A' for Active; 'I' for Inactive)
REMARK    1  A    between atoms: N_2  and  S_1 
REMARK    2  A    between atoms: C_7  and  S_1 
REMARK    3  A    between atoms: C_3  and  N_2 
REMARK    4  A    between atoms: C_6  and  O_8 
REMARK    5  A    between atoms: O_8  and  C_9 
ROOT
ATOM      1  C   UNL d   1      53.265  32.008  53.643  0.00  0.00     0.117 A 
ATOM      2  C   UNL d   1      52.759  32.658  53.654  0.00  0.00     0.118 A 
ATOM      3  C   UNL d   1      54.010  32.082  53.995  0.00  0.00     0.022 A 
ATOM      4  C   UNL d   1      52.987  33.364  54.006  0.00  0.00     0.026 A 
ATOM      5  C   UNL d   1      54.238  32.788  54.348  0.00  0.00     0.002 A 
ATOM      6  C   UNL d   1      53.728  33.436  54.356  0.00  0.00     0.002 A 
ENDROOT
BRANCH   1   7
ATOM      7  N   UNL d   1      53.037  31.302  53.290  0.00  0.00    -0.156 NA
BRANCH   7   8
ATOM      8  S   UNL d   1      53.172  30.586  53.672  0.00  0.00     0.285 S 
ATOM      9  O   UNL d   1      53.941  30.551  53.328  0.00  0.00    -0.198 OA
ATOM     10  O   UNL d   1      52.418  30.622  54.009  0.00  0.00    -0.198 OA
BRANCH   8  11
ATOM     11  C   UNL d   1      53.313  29.852  54.062  0.00  0.00     0.105 A 
ATOM     12  C   UNL d   1      53.770  29.271  53.685  0.00  0.00     0.013 A 
ATOM     13  C   UNL d   1      53.903  28.554  54.075  0.00  0.00     0.001 A 
ATOM     14  C   UNL d   1      53.582  28.415  54.839  0.00  0.00     0.000 A 
ATOM     15  C   UNL d   1      53.133  28.996  55.199  0.00  0.00     0.001 A 
ATOM     16  C   UNL d   1      52.991  29.713  54.827  0.00  0.00     0.013 A 
ENDBRANCH   8  11
ENDBRANCH   7   8
ENDBRANCH   1   7
BRANCH   2  17
ATOM     17  O   UNL d   1      51.993  32.578  53.290  0.00  0.00    -0.306 OA
BRANCH  17  18
ATOM     18  C   UNL d   1      51.608  33.228  52.969  0.00  0.00     0.100 A 
ATOM     19  C   UNL d   1      51.862  33.556  52.249  0.00  0.00     0.025 A 
ATOM     20  C   UNL d   1      51.461  34.212  51.940  0.00  0.00     0.002 A 
ATOM     21  C   UNL d   1      51.662  34.532  51.296  0.00  0.00     0.000 C 
ATOM     22  C   UNL d   1      50.818  34.538  52.339  0.00  0.00     0.000 A 
ATOM     23  C   UNL d   1      50.574  34.201  53.056  0.00  0.00     0.002 A 
ATOM     24  C   UNL d   1      50.976  33.547  53.362  0.00  0.00     0.025 A 
ATOM     25  C   UNL d   1      49.970  34.556  53.370  0.00  0.00     0.000 C 
ENDBRANCH  17  18
ENDBRANCH   2  17
TORSDOF 5
ENDMDL
MODEL 4
REMARK VINA RESULT:      -7.6      1.559      2.199
REMARK  5 active torsions:
REMARK  status: ('A' for Active; 'I' for Inactive)
REMARK    1  A    between atoms: N_2  and  S_1 
REMARK    2  A    between atoms: C_7  and  S_1 
REMARK    3  A    between atoms: C_3  and  N_2 
REMARK    4  A    between atoms: C_6  and  O_8 
REMARK    5  A    between atoms: O_8  and  C_9 
ROOT
ATOM      1  C   UNL d   1      51.896  33.448  53.244  0.00  0.00     0.117 A 
ATOM      2  C   UNL d   1      51.120  33.627  53.031  0.00  0.00     0.118 A 
ATOM      3  C   UNL d   1      52.089  32.660  53.404  0.00  0.00     0.022 A 
ATOM      4  C   UNL d   1      50.551  33.037  52.980  0.00  0.00     0.026 A 
ATOM      5  C   UNL d   1      51.520  32.070  53.353  0.00  0.00     0.002 A 
ATOM      6  C   UNL d   1      50.745  32.254  53.140  0.00  0.00     0.002 A 
ENDROOT
BRANCH   1   7
ATOM      7  N   UNL d   1      52.465  34.038  53.295  0.00  0.00    -0.156 NA
BRANCH   7   8
ATOM      8  S   UNL d   1      53.143  33.922  53.746  0.00  0.00     0.285 S 
ATOM      9  O   UNL d   1      52.745  34.233  54.421  0.00  0.00    -0.198 OA
ATOM     10  O   UNL d   1      53.533  33.617  53.083  0.00  0.00    -0.198 OA
BRANCH   8  11
ATOM     11  C   UNL d   1      53.837  33.803  54.210  0.00  0.00     0.105 A 
ATOM     12  C   UNL d   1      54.503  33.447  53.865  0.00  0.00     0.013 A 
ATOM     13  C   UNL d   1      55.179  33.334  54.328  0.00  0.00     0.001 A 
ATOM     14  C   UNL d   1      55.192  33.576  55.133  0.00  0.00     0.000 A 
ATOM     15  C   UNL d   1      54.530  33.926  55.460  0.00  0.00     0.001 A 
ATOM     16  C   UNL d   1      53.851  34.045  55.016  0.00  0.00     0.013 A 
ENDBRANCH   8  11
ENDBRANCH   7   8
ENDBRANCH   1   7
BRANCH   2  17
ATOM     17  O   UNL d   1      50.924  34.439  52.867  0.00  0.00    -0.306 OA
BRANCH  17  18
ATOM     18  C   UNL d   1      50.176  34.648  52.602  0.00  0.00     0.100 A 
ATOM     19  C   UNL d   1      49.940  34.476  51.825  0.00  0.00     0.025 A 
ATOM     20  C   UNL d   1      49.180  34.695  51.575  0.00  0.00     0.002 A 
ATOM     21  C   UNL d   1      48.935  34.555  50.883  0.00  0.00     0.000 C 
ATOM     22  C   UNL d   1      48.663  35.079  52.089  0.00  0.00     0.000 A 
ATOM     23  C   UNL d   1      48.911  35.245  52.863  0.00  0.00     0.002 A 
ATOM     24  C   UNL d   1      49.669  35.026  53.108  0.00  0.00     0.025 A 
ATOM     25  C   UNL d   1      48.379  35.603  53.283  0.00  0.00     0.000 C 
ENDBRANCH  17  18
ENDBRANCH   2  17
TORSDOF 5
ENDMDL
MODEL 5
REMARK VINA RESULT:      -7.4      0.938      4.653
REMARK  5 active torsions:
REMARK  status: ('A' for Active; 'I' for Inactive)
REMARK    1  A    between atoms: N_2  and  S_1 
REMARK    2  A    between atoms: C_7  and  S_1 
REMARK    3  A    between atoms: C_3  and  N_2 
REMARK    4  A    between atoms: C_6  and  O_8 
REMARK    5  A    between atoms: O_8  and  C_9 
ROOT
ATOM      1  C   UNL d   1      51.577  34.076  52.954  0.00  0.00     0.117 A 
ATOM      2  C   UNL d   1      52.329  33.739  52.952  0.00  0.00     0.118 A 
ATOM      3  C   UNL d   1      51.466  34.791  53.356  0.00  0.00     0.022 A 
ATOM      4  C   UNL d   1      52.954  34.103  53.339  0.00  0.00     0.026 A 
ATOM      5  C   UNL d   1      52.091  35.155  53.743  0.00  0.00     0.002 A 
ATOM      6  C   UNL d   1      52.842  34.813  53.738  0.00  0.00     0.002 A 
ENDROOT
BRANCH   1   7
ATOM      7  N   UNL d   1      50.950  33.712  52.566  0.00  0.00    -0.156 NA
BRANCH   7   8
ATOM      8  S   UNL d   1      50.269  34.137  52.389  0.00  0.00     0.285 S 
ATOM      9  O   UNL d   1      49.932  33.899  53.124  0.00  0.00    -0.198 OA
ATOM     10  O   UNL d   1      50.601  34.370  51.668  0.00  0.00    -0.198 OA
BRANCH   8  11
ATOM     11  C   UNL d   1      49.570  34.573  52.209  0.00  0.00     0.105 A 
ATOM     12  C   UNL d   1      49.255  34.541  51.441  0.00  0.00     0.013 A 
ATOM     13  C   UNL d   1      48.569  34.971  51.274  0.00  0.00     0.001 A 
ATOM     14  C   UNL d   1      48.196  35.433  51.870  0.00  0.00     0.000 A 
ATOM     15  C   UNL d   1      48.516  35.455  52.621  0.00  0.00     0.001 A 
ATOM     16  C   UNL d   1      49.197  35.035  52.805  0.00  0.00     0.013 A 
ENDBRANCH   8  11
ENDBRANCH   7   8
ENDBRANCH   1   7
BRANCH   2  17
ATOM     17  O   UNL d   1      52.439  33.004  52.537  0.00  0.00    -0.306 OA
BRANCH  17  18
ATOM     18  C   UNL d   1      52.849  32.382  52.882  0.00  0.00     0.100 A 
ATOM     19  C   UNL d   1      53.603  32.503  53.208  0.00  0.00     0.025 A 
ATOM     20  C   UNL d   1      54.003  31.863  53.552  0.00  0.00     0.002 A 
ATOM     21  C   UNL d   1      54.681  31.936  53.854  0.00  0.00     0.000 C 
ATOM     22  C   UNL d   1      53.658  31.115  53.572  0.00  0.00     0.000 A 
ATOM     23  C   UNL d   1      52.905  31.007  53.243  0.00  0.00     0.002 A 
ATOM     24  C   UNL d   1      52.510  31.647  52.901  0.00  0.00     0.025 A 
ATOM     25  C   UNL d   1      52.648  30.286  53.297  0.00  0.00     0.000 C 
ENDBRANCH  17  18
ENDBRANCH   2  17
TORSDOF 5
ENDMDL
MODEL 6
REMARK VINA RESULT:      -7.1      1.697      3.182
REMARK  5 active torsions:
REMARK  status: ('A' for Active; 'I' for Inactive)
REMARK    1  A    between atoms: N_2  and  S_1 
REMARK    2  A    between atoms: C_7  and  S_1 
REMARK    3  A    between atoms: C_3  and  N_2 
REMARK    4  A    between atoms: C_6  and  O_8 
REMARK    5  A    between atoms: O_8  and  C_9 
ROOT
ATOM      1  C   UNL d   1      52.269  32.531  53.002  0.00  0.00     0.117 A 
ATOM      2  C   UNL d   1      52.321  33.339  53.156  0.00  0.00     0.118 A 
ATOM      3  C   UNL d   1      51.522  32.178  52.989  0.00  0.00     0.022 A 
ATOM      4  C   UNL d   1      51.645  33.784  53.294  0.00  0.00     0.026 A 
ATOM      5  C   UNL d   1      50.846  32.624  53.126  0.00  0.00     0.002 A 
ATOM      6  C   UNL d   1      50.902  33.432  53.280  0.00  0.00     0.002 A 
ENDROOT
BRANCH   1   7
ATOM      7  N   UNL d   1      52.946  32.085  52.865  0.00  0.00    -0.156 NA
BRANCH   7   8
ATOM      8  S   UNL d   1      52.971  31.292  53.084  0.00  0.00     0.285 S 
ATOM      9  O   UNL d   1      52.810  31.069  52.287  0.00  0.00    -0.198 OA
ATOM     10  O   UNL d   1      53.129  31.512  53.865  0.00  0.00    -0.198 OA
BRANCH   8  11
ATOM     11  C   UNL d   1      52.996  30.479  53.307  0.00  0.00     0.105 A 
ATOM     12  C   UNL d   1      52.602  29.917  52.841  0.00  0.00     0.013 A 
ATOM     13  C   UNL d   1      52.632  29.122  53.067  0.00  0.00     0.001 A 
ATOM     14  C   UNL d   1      53.054  28.887  53.755  0.00  0.00     0.000 A 
ATOM     15  C   UNL d   1      53.438  29.451  54.205  0.00  0.00     0.001 A 
ATOM     16  C   UNL d   1      53.419  30.244  53.995  0.00  0.00     0.013 A 
ENDBRANCH   8  11
ENDBRANCH   7   8
ENDBRANCH   1   7
BRANCH   2  17
ATOM     17  O   UNL d   1      53.092  33.698  53.169  0.00  0.00    -0.306 OA
BRANCH  17  18
ATOM     18  C   UNL d   1      53.323  34.182  53.791  0.00  0.00     0.100 A 
ATOM     19  C   UNL d   1      53.027  34.955  53.857  0.00  0.00     0.025 A 
ATOM     20  C   UNL d   1      53.271  35.429  54.492  0.00  0.00     0.002 A 
ATOM     21  C   UNL d   1      53.025  36.128  54.581  0.00  0.00     0.000 C 
ATOM     22  C   UNL d   1      53.800  35.139  55.053  0.00  0.00     0.000 A 
ATOM     23  C   UNL d   1      54.088  34.366  54.976  0.00  0.00     0.002 A 
ATOM     24  C   UNL d   1      53.843  33.896  54.342  0.00  0.00     0.025 A 
ATOM     25  C   UNL d   1      54.576  34.165  55.534  0.00  0.00     0.000 C 
ENDBRANCH  17  18
ENDBRANCH   2  17
TORSDOF 5
ENDMDL
