MODEL 1
REMARK VINA RESULT:      10.8      0.000      0.000
REMARK  3 active torsions:
REMARK  status: ('A' for Active; 'I' for Inactive)
REMARK    1  A    between atoms: C_6  and  N_2 
REMARK    2  A    between atoms: C_7  and  C_6 
REMARK    3  A    between atoms: C_8  and  C_7 
ROOT
ATOM      1  N   UNL d   1      46.120 -18.616  42.646  0.00  0.00    -0.224 NA
ATOM      2  N   UNL d   1      46.056 -17.793  43.682  0.00  0.00    -0.287 N 
ATOM      3  C   UNL d   1      45.981 -17.872  42.893  0.00  0.00     0.183 A 
ATOM      4  C   UNL d   1      46.261 -18.552  43.977  0.00  0.00     0.083 A 
ATOM      5  C   UNL d   1      46.300 -19.046  43.355  0.00  0.00     0.099 A 
ATOM      6  C   UNL d   1      46.416 -18.850  44.723  0.00  0.00     0.019 A 
ATOM      7  C   UNL d   1      46.497 -19.883  43.423  0.00  0.00     0.021 A 
ATOM      8  C   UNL d   1      46.608 -19.633  44.857  0.00  0.00     0.002 A 
ATOM      9  C   UNL d   1      46.647 -20.127  44.235  0.00  0.00     0.002 A 
ENDROOT
BRANCH   2  10
ATOM     10  C   UNL d   1      45.957 -17.109  44.159  0.00  0.00     0.082 C 
BRANCH  10  11
ATOM     11  C   UNL d   1      46.121 -16.386  43.850  0.00  0.00     0.019 C 
BRANCH  11  12
ATOM     12  C   UNL d   1      45.789 -15.708  44.209  0.00  0.00     0.002 A 
ATOM     13  C   UNL d   1      46.212 -14.983  44.170  0.00  0.00     0.000 A 
ATOM     14  C   UNL d   1      45.881 -14.300  44.530  0.00  0.00     0.000 A 
ATOM     15  C   UNL d   1      45.156 -14.361  44.909  0.00  0.00     0.000 A 
ATOM     16  C   UNL d   1      44.736 -15.088  44.946  0.00  0.00     0.000 A 
ATOM     17  C   UNL d   1      45.062 -15.746  44.595  0.00  0.00     0.000 A 
ENDBRANCH  11  12
ENDBRANCH  10  11
ENDBRANCH   2  10
TORSDOF 3
ENDMDL
