MODEL 1
REMARK VINA RESULT:      -5.1      0.000      0.000
REMARK  3 active torsions:
REMARK  status: ('A' for Active; 'I' for Inactive)
REMARK    1  A    between atoms: N_4  and  C_2 
REMARK    2  A    between atoms: C_10  and  C_3 
REMARK       I    between atoms: C_7  and  N_4 
REMARK    3  A    between atoms: C_8  and  C_7 
ROOT
ATOM      1  N   UNL d   1      58.510  -0.067  30.675  0.00  0.00    -0.051 NA
ATOM      2  C   UNL d   1      57.750   0.230  30.768  0.00  0.00     0.760 A 
ATOM      3  C   UNL d   1      58.749   0.104  29.898  0.00  0.00     0.147 A 
ATOM      4  N   UNL d   1      57.512   0.585  30.052  0.00  0.00    -0.019 NA
ATOM      5  S   UNL d   1      58.134   0.502  29.525  0.00  0.00     0.052 SA
ENDROOT
BRANCH   2   6
ATOM      6  N   UNL d   1      57.229   0.226  31.418  0.00  0.00    -0.018 NA
ATOM      7  C   UNL d   1      56.871  -0.474  31.665  0.00  0.00     0.301 C 
ATOM      8  O   UNL d   1      57.032  -1.183  31.263  0.00  0.00    -0.264 OA
BRANCH   7   9
ATOM      9  C   UNL d   1      56.356  -0.473  32.308  0.00  0.00     0.088 A 
ATOM     10  S   UNL d   1      56.084  -1.148  32.715  0.00  0.00    -0.082 SA
ATOM     11  C   UNL d   1      55.577  -0.892  33.323  0.00  0.00     0.036 A 
ATOM     12  C   UNL d   1      55.538  -0.069  33.290  0.00  0.00     0.008 A 
ATOM     13  C   UNL d   1      56.017   0.187  32.667  0.00  0.00     0.012 A 
ENDBRANCH   7   9
ENDBRANCH   2   6
BRANCH   3  14
ATOM     14  C   UNL d   1      59.478  -0.097  29.573  0.00  0.00     0.026 A 
ATOM     15  C   UNL d   1      60.129   0.414  29.681  0.00  0.00     0.002 A 
ATOM     16  C   UNL d   1      60.866   0.214  29.354  0.00  0.00     0.000 A 
ATOM     17  C   UNL d   1      60.951  -0.484  28.926  0.00  0.00     0.000 A 
ATOM     18  C   UNL d   1      60.311  -0.993  28.815  0.00  0.00     0.000 A 
ATOM     19  C   UNL d   1      59.576  -0.801  29.137  0.00  0.00     0.002 A 
ENDBRANCH   3  14
TORSDOF 3
ENDMDL
