MODEL 1
REMARK VINA RESULT:      -2.0      0.000      0.000
REMARK  4 active torsions:
REMARK  status: ('A' for Active; 'I' for Inactive)
REMARK    1  A    between atoms: C_8  and  C_1 
REMARK    2  A    between atoms: C_6  and  O_10 
REMARK       I    between atoms: N_13  and  C_6 
REMARK    3  A    between atoms: C_11  and  C_8 
REMARK    4  A    between atoms: O_10  and  C_9 
ROOT
ATOM      1  C   UNL d   1      33.215  22.683 -20.795  0.00  0.00     0.141 A 
ATOM      2  C   UNL d   1      33.208  21.405 -21.213  0.00  0.00     0.105 A 
ATOM      3  O   UNL d   1      33.231  21.890 -20.541  0.00  0.00    -0.304 OA
ATOM      4  C   UNL d   1      33.177  21.890 -21.885  0.00  0.00     0.064 A 
ATOM      5  C   UNL d   1      33.181  22.678 -21.635  0.00  0.00     0.220 A 
ATOM      6  C   UNL d   1      33.210  20.586 -21.294  0.00  0.00     0.046 A 
ATOM      7  C   UNL d   1      33.183  20.247 -22.046  0.00  0.00     0.107 A 
ATOM      8  C   UNL d   1      33.150  21.550 -22.632  0.00  0.00     0.007 A 
ATOM      9  O   UNL d   1      33.157  23.350 -22.119  0.00  0.00    -0.284 OA
ATOM     10  C   UNL d   1      33.152  20.732 -22.719  0.00  0.00     0.025 A 
ATOM     11  C   UNL d   1      33.241  20.099 -20.628  0.00  0.00     0.004 C 
ENDROOT
BRANCH   1  12
ATOM     12  C   UNL d   1      33.229  23.353 -20.313  0.00  0.00     0.053 C 
BRANCH  12  13
ATOM     13  C   UNL d   1      32.861  23.338 -19.575  0.00  0.00     0.102 A 
ATOM     14  O   UNL d   1      32.044  23.376 -19.439  0.00  0.00    -0.305 OA
ATOM     15  C   UNL d   1      31.919  23.344 -18.625  0.00  0.00     0.123 A 
ATOM     16  C   UNL d   1      32.662  23.287 -18.258  0.00  0.00     0.029 A 
ATOM     17  C   UNL d   1      33.238  23.284 -18.849  0.00  0.00     0.027 A 
ENDBRANCH  12  13
ENDBRANCH   1  12
BRANCH   7  18
ATOM     18  O   UNL d   1      33.186  19.430 -22.132  0.00  0.00    -0.259 OA
BRANCH  18  19
ATOM     19  C   UNL d   1      32.982  19.082 -22.853  0.00  0.00     0.378 C 
ATOM     20  N   UNL d   1      32.987  18.257 -22.928  0.00  0.00    -0.249 N 
ATOM     21  C   UNL d   1      32.783  17.904 -23.651  0.00  0.00     0.104 C 
ATOM     22  C   UNL d   1      33.196  17.779 -22.282  0.00  0.00     0.104 C 
ATOM     23  O   UNL d   1      32.774  19.553 -23.498  0.00  0.00    -0.237 OA
ENDBRANCH  18  19
ENDBRANCH   7  18
TORSDOF 4
ENDMDL
MODEL 2
REMARK VINA RESULT:      -0.0      1.934      5.436
REMARK  4 active torsions:
REMARK  status: ('A' for Active; 'I' for Inactive)
REMARK    1  A    between atoms: C_8  and  C_1 
REMARK    2  A    between atoms: C_6  and  O_10 
REMARK       I    between atoms: N_13  and  C_6 
REMARK    3  A    between atoms: C_11  and  C_8 
REMARK    4  A    between atoms: O_10  and  C_9 
ROOT
ATOM      1  C   UNL d   1      32.781  17.536 -23.663  0.00  0.00     0.141 A 
ATOM      2  C   UNL d   1      32.960  18.699 -23.012  0.00  0.00     0.105 A 
ATOM      3  O   UNL d   1      32.899  17.879 -22.913  0.00  0.00    -0.304 OA
ATOM      4  C   UNL d   1      32.881  18.872 -23.820  0.00  0.00     0.064 A 
ATOM      5  C   UNL d   1      32.770  18.160 -24.226  0.00  0.00     0.220 A 
ATOM      6  C   UNL d   1      33.077  19.307 -22.469  0.00  0.00     0.046 A 
ATOM      7  C   UNL d   1      33.116  20.089 -22.730  0.00  0.00     0.107 A 
ATOM      8  C   UNL d   1      32.920  19.652 -24.075  0.00  0.00     0.007 A 
ATOM      9  O   UNL d   1      32.666  18.069 -25.043  0.00  0.00    -0.284 OA
ATOM     10  C   UNL d   1      33.037  20.262 -23.538  0.00  0.00     0.025 A 
ATOM     11  C   UNL d   1      33.157  19.140 -21.665  0.00  0.00     0.004 C 
ENDROOT
BRANCH   1  12
ATOM     12  C   UNL d   1      32.691  16.733 -23.827  0.00  0.00     0.053 C 
BRANCH  12  13
ATOM     13  C   UNL d   1      31.936  16.403 -23.875  0.00  0.00     0.102 A 
ATOM     14  O   UNL d   1      31.339  16.633 -24.402  0.00  0.00    -0.305 OA
ATOM     15  C   UNL d   1      30.678  16.161 -24.261  0.00  0.00     0.123 A 
ATOM     16  C   UNL d   1      30.869  15.638 -23.644  0.00  0.00     0.029 A 
ATOM     17  C   UNL d   1      31.645  15.793 -23.411  0.00  0.00     0.027 A 
ENDBRANCH  12  13
ENDBRANCH   1  12
BRANCH   7  18
ATOM     18  O   UNL d   1      33.233  20.698 -22.191  0.00  0.00    -0.259 OA
BRANCH  18  19
ATOM     19  C   UNL d   1      33.130  21.487 -22.418  0.00  0.00     0.378 C 
ATOM     20  N   UNL d   1      33.025  22.071 -21.841  0.00  0.00    -0.249 N 
ATOM     21  C   UNL d   1      32.922  22.863 -22.066  0.00  0.00     0.104 C 
ATOM     22  C   UNL d   1      33.023  21.868 -21.036  0.00  0.00     0.104 C 
ATOM     23  O   UNL d   1      33.133  21.692 -23.217  0.00  0.00    -0.237 OA
ENDBRANCH  18  19
ENDBRANCH   7  18
TORSDOF 4
ENDMDL
