MODEL 1
REMARK VINA RESULT:      27.4      0.000      0.000
REMARK  6 active torsions:
REMARK  status: ('A' for Active; 'I' for Inactive)
REMARK    1  A    between atoms: C_6  and  N_3 
REMARK    2  A    between atoms: C_14  and  C_6 
REMARK    3  A    between atoms: C_7  and  O_8 
REMARK    4  A    between atoms: O_8  and  C_11 
REMARK    5  A    between atoms: C_11  and  C_15 
REMARK    6  A    between atoms: C_15  and  C_14 
ROOT
ATOM      1  C   UNL d   1     -54.732 -99.836 -43.952  0.00  0.00     0.082 C 
ENDROOT
BRANCH   1   2
ATOM      2  N   UNL d   1     -54.900-100.640 -43.856  0.00  0.00    -0.287 N 
ATOM      3  C   UNL d   1     -55.144-100.851 -43.077  0.00  0.00     0.183 A 
ATOM      4  N   UNL d   1     -55.294-101.684 -43.068  0.00  0.00    -0.224 NA
ATOM      5  C   UNL d   1     -55.144-101.983 -43.836  0.00  0.00     0.099 A 
ATOM      6  C   UNL d   1     -54.901-101.334 -44.321  0.00  0.00     0.083 A 
ATOM      7  C   UNL d   1     -55.196-102.743 -44.153  0.00  0.00     0.021 A 
ATOM      8  C   UNL d   1     -54.714-101.476 -45.122  0.00  0.00     0.019 A 
ATOM      9  C   UNL d   1     -54.768-102.242 -45.435  0.00  0.00     0.002 A 
ATOM     10  C   UNL d   1     -55.010-102.875 -44.944  0.00  0.00     0.002 A 
ENDBRANCH   1   2
BRANCH   1  11
ATOM     11  C   UNL d   1     -54.955 -99.447 -44.641  0.00  0.00     0.021 C 
BRANCH  11  12
ATOM     12  C   UNL d   1     -55.409 -98.774 -44.604  0.00  0.00     0.028 C 
BRANCH  12  13
ATOM     13  C   UNL d   1     -56.233 -98.810 -44.734  0.00  0.00     0.123 C 
BRANCH  13  14
ATOM     14  O   UNL d   1     -56.750 -98.785 -44.096  0.00  0.00    -0.305 OA
BRANCH  14  15
ATOM     15  C   UNL d   1     -57.564 -98.816 -44.226  0.00  0.00     0.100 A 
ATOM     16  C   UNL d   1     -58.079 -98.894 -43.583  0.00  0.00     0.025 A 
ATOM     17  C   UNL d   1     -58.881 -98.924 -43.717  0.00  0.00     0.002 A 
ATOM     18  C   UNL d   1     -59.184 -98.878 -44.474  0.00  0.00     0.000 A 
ATOM     19  C   UNL d   1     -58.667 -98.800 -45.119  0.00  0.00     0.002 A 
ATOM     20  C   UNL d   1     -57.855 -98.769 -44.994  0.00  0.00     0.025 A 
ENDBRANCH  14  15
ENDBRANCH  13  14
ENDBRANCH  12  13
ENDBRANCH  11  12
ENDBRANCH   1  11
TORSDOF 6
ENDMDL
MODEL 2
REMARK VINA RESULT:      28.9      0.760      1.285
REMARK  6 active torsions:
REMARK  status: ('A' for Active; 'I' for Inactive)
REMARK    1  A    between atoms: C_6  and  N_3 
REMARK    2  A    between atoms: C_14  and  C_6 
REMARK    3  A    between atoms: C_7  and  O_8 
REMARK    4  A    between atoms: O_8  and  C_11 
REMARK    5  A    between atoms: C_11  and  C_15 
REMARK    6  A    between atoms: C_15  and  C_14 
ROOT
ATOM      1  C   UNL d   1     -54.963-100.253 -44.705  0.00  0.00     0.082 C 
ENDROOT
BRANCH   1   2
ATOM      2  N   UNL d   1     -54.918-101.041 -44.456  0.00  0.00    -0.287 N 
ATOM      3  C   UNL d   1     -54.953-101.603 -45.082  0.00  0.00     0.183 A 
ATOM      4  N   UNL d   1     -54.901-102.376 -44.740  0.00  0.00    -0.224 NA
ATOM      5  C   UNL d   1     -54.835-102.289 -43.910  0.00  0.00     0.099 A 
ATOM      6  C   UNL d   1     -54.846-101.460 -43.737  0.00  0.00     0.083 A 
ATOM      7  C   UNL d   1     -54.768-102.840 -43.299  0.00  0.00     0.021 A 
ATOM      8  C   UNL d   1     -54.788-101.212 -42.943  0.00  0.00     0.019 A 
ATOM      9  C   UNL d   1     -54.721-101.771 -42.333  0.00  0.00     0.002 A 
ATOM     10  C   UNL d   1     -54.711-102.587 -42.518  0.00  0.00     0.002 A 
ENDBRANCH   1   2
BRANCH   1  11
ATOM     11  C   UNL d   1     -54.829 -99.642 -44.171  0.00  0.00     0.021 C 
BRANCH  11  12
ATOM     12  C   UNL d   1     -55.103 -98.893 -44.328  0.00  0.00     0.028 C 
BRANCH  12  13
ATOM     13  C   UNL d   1     -55.894 -98.770 -44.561  0.00  0.00     0.123 C 
BRANCH  13  14
ATOM     14  O   UNL d   1     -56.496 -98.793 -44.002  0.00  0.00    -0.305 OA
BRANCH  14  15
ATOM     15  C   UNL d   1     -57.282 -98.836 -44.246  0.00  0.00     0.100 A 
ATOM     16  C   UNL d   1     -57.880 -98.947 -43.685  0.00  0.00     0.025 A 
ATOM     17  C   UNL d   1     -58.654 -98.988 -43.932  0.00  0.00     0.002 A 
ATOM     18  C   UNL d   1     -58.849 -98.922 -44.723  0.00  0.00     0.000 A 
ATOM     19  C   UNL d   1     -58.249 -98.810 -45.285  0.00  0.00     0.002 A 
ATOM     20  C   UNL d   1     -57.464 -98.767 -45.045  0.00  0.00     0.025 A 
ENDBRANCH  14  15
ENDBRANCH  13  14
ENDBRANCH  12  13
ENDBRANCH  11  12
ENDBRANCH   1  11
TORSDOF 6
ENDMDL
