MODEL 1
REMARK VINA RESULT:      -3.9      0.000      0.000
REMARK  3 active torsions:
REMARK  status: ('A' for Active; 'I' for Inactive)
REMARK    1  A    between atoms: C_2  and  N_1 
REMARK    2  A    between atoms: N_6  and  C_5 
REMARK    3  A    between atoms: C_12  and  N_6 
ROOT
ATOM      1  C   UNL d   1      57.536   0.122  31.240  0.00  0.00     0.128 A 
ATOM      2  C   UNL d   1      57.177  -0.619  31.189  0.00  0.00     0.046 A 
ATOM      3  C   UNL d   1      56.761  -0.921  31.835  0.00  0.00     0.122 A 
ATOM      4  C   UNL d   1      56.705  -0.483  32.530  0.00  0.00     0.101 A 
ATOM      5  C   UNL d   1      57.479   0.561  31.935  0.00  0.00     0.025 A 
ATOM      6  C   UNL d   1      57.064   0.257  32.577  0.00  0.00     0.022 A 
ATOM      7  N   UNL d   1      56.403  -1.662  31.784  0.00  0.00    -0.146 N 
ENDROOT
BRANCH   4   8
ATOM      8  N   UNL d   1      56.290  -0.787  33.172  0.00  0.00    -0.244 NA
BRANCH   8   9
ATOM      9  C   UNL d   1      55.783  -0.297  33.601  0.00  0.00     0.081 A 
ATOM     10  C   UNL d   1      55.976  -0.079  34.374  0.00  0.00     0.019 A 
ATOM     11  C   UNL d   1      55.470   0.410  34.802  0.00  0.00     0.002 A 
ATOM     12  C   UNL d   1      54.770   0.682  34.459  0.00  0.00     0.000 A 
ATOM     13  C   UNL d   1      54.578   0.464  33.687  0.00  0.00     0.002 A 
ATOM     14  C   UNL d   1      55.084  -0.025  33.259  0.00  0.00     0.019 A 
ENDBRANCH   8   9
ENDBRANCH   4   8
BRANCH   1  15
ATOM     15  N   UNL d   1      57.951   0.424  30.594  0.00  0.00    -0.114 N 
ATOM     16  O   UNL d   1      58.773   0.487  30.626  0.00  0.00    -0.532 OA
ATOM     17  O   UNL d   1      57.544   0.661  29.916  0.00  0.00    -0.532 OA
ENDBRANCH   1  15
TORSDOF 3
ENDMDL
MODEL 2
REMARK VINA RESULT:      -3.8      1.420      2.032
REMARK  3 active torsions:
REMARK  status: ('A' for Active; 'I' for Inactive)
REMARK    1  A    between atoms: C_2  and  N_1 
REMARK    2  A    between atoms: N_6  and  C_5 
REMARK    3  A    between atoms: C_12  and  N_6 
ROOT
ATOM      1  C   UNL d   1      58.278   0.397  29.856  0.00  0.00     0.128 A 
ATOM      2  C   UNL d   1      58.832   0.462  30.464  0.00  0.00     0.046 A 
ATOM      3  C   UNL d   1      58.578   0.557  31.244  0.00  0.00     0.122 A 
ATOM      4  C   UNL d   1      57.773   0.586  31.415  0.00  0.00     0.101 A 
ATOM      5  C   UNL d   1      57.472   0.426  30.027  0.00  0.00     0.025 A 
ATOM      6  C   UNL d   1      57.223   0.521  30.805  0.00  0.00     0.022 A 
ATOM      7  N   UNL d   1      59.132   0.622  31.851  0.00  0.00    -0.146 N 
ENDROOT
BRANCH   4   8
ATOM      8  N   UNL d   1      57.524   0.681  32.193  0.00  0.00    -0.244 NA
BRANCH   8   9
ATOM      9  C   UNL d   1      56.861   0.271  32.463  0.00  0.00     0.081 A 
ATOM     10  C   UNL d   1      56.896  -0.548  32.566  0.00  0.00     0.019 A 
ATOM     11  C   UNL d   1      56.234  -0.957  32.836  0.00  0.00     0.002 A 
ATOM     12  C   UNL d   1      55.536  -0.550  33.005  0.00  0.00     0.000 A 
ATOM     13  C   UNL d   1      55.502   0.268  32.903  0.00  0.00     0.002 A 
ATOM     14  C   UNL d   1      56.164   0.678  32.632  0.00  0.00     0.019 A 
ENDBRANCH   8   9
ENDBRANCH   4   8
BRANCH   1  15
ATOM     15  N   UNL d   1      58.531   0.302  29.077  0.00  0.00    -0.114 N 
ATOM     16  O   UNL d   1      59.333   0.185  28.915  0.00  0.00    -0.532 OA
ATOM     17  O   UNL d   1      57.985   0.323  28.459  0.00  0.00    -0.532 OA
ENDBRANCH   1  15
TORSDOF 3
ENDMDL
MODEL 3
REMARK VINA RESULT:      -3.7      2.020      3.980
REMARK  3 active torsions:
REMARK  status: ('A' for Active; 'I' for Inactive)
REMARK    1  A    between atoms: C_2  and  N_1 
REMARK    2  A    between atoms: N_6  and  C_5 
REMARK    3  A    between atoms: C_12  and  N_6 
ROOT
ATOM      1  C   UNL d   1      56.392  -0.655  32.666  0.00  0.00     0.128 A 
ATOM      2  C   UNL d   1      56.959  -0.209  33.065  0.00  0.00     0.046 A 
ATOM      3  C   UNL d   1      57.509   0.235  32.638  0.00  0.00     0.122 A 
ATOM      4  C   UNL d   1      57.491   0.233  31.814  0.00  0.00     0.101 A 
ATOM      5  C   UNL d   1      56.374  -0.657  31.842  0.00  0.00     0.025 A 
ATOM      6  C   UNL d   1      56.923  -0.214  31.420  0.00  0.00     0.022 A 
ATOM      7  N   UNL d   1      58.077   0.681  33.037  0.00  0.00    -0.146 N 
ENDROOT
BRANCH   4   8
ATOM      8  N   UNL d   1      58.041   0.676  31.393  0.00  0.00    -0.244 NA
BRANCH   8   9
ATOM      9  C   UNL d   1      58.276   0.429  30.642  0.00  0.00     0.081 A 
ATOM     10  C   UNL d   1      57.860   0.682  29.975  0.00  0.00     0.019 A 
ATOM     11  C   UNL d   1      58.096   0.435  29.224  0.00  0.00     0.002 A 
ATOM     12  C   UNL d   1      58.748  -0.065  29.140  0.00  0.00     0.000 A 
ATOM     13  C   UNL d   1      59.163  -0.317  29.807  0.00  0.00     0.002 A 
ATOM     14  C   UNL d   1      58.927  -0.070  30.557  0.00  0.00     0.019 A 
ENDBRANCH   8   9
ENDBRANCH   4   8
BRANCH   1  15
ATOM     15  N   UNL d   1      55.843  -1.098  33.093  0.00  0.00    -0.114 N 
ATOM     16  O   UNL d   1      55.309  -0.719  33.596  0.00  0.00    -0.532 OA
ATOM     17  O   UNL d   1      55.826  -1.919  33.016  0.00  0.00    -0.532 OA
ENDBRANCH   1  15
TORSDOF 3
ENDMDL
MODEL 4
REMARK VINA RESULT:      -3.3      2.187      3.247
REMARK  3 active torsions:
REMARK  status: ('A' for Active; 'I' for Inactive)
REMARK    1  A    between atoms: C_2  and  N_1 
REMARK    2  A    between atoms: N_6  and  C_5 
REMARK    3  A    between atoms: C_12  and  N_6 
ROOT
ATOM      1  C   UNL d   1      58.924  -1.423  29.239  0.00  0.00     0.128 A 
ATOM      2  C   UNL d   1      58.899  -0.672  28.898  0.00  0.00     0.046 A 
ATOM      3  C   UNL d   1      58.463  -0.070  29.258  0.00  0.00     0.122 A 
ATOM      4  C   UNL d   1      58.054  -0.220  29.958  0.00  0.00     0.101 A 
ATOM      5  C   UNL d   1      58.515  -1.572  29.938  0.00  0.00     0.025 A 
ATOM      6  C   UNL d   1      58.082  -0.971  30.294  0.00  0.00     0.022 A 
ATOM      7  N   UNL d   1      58.437   0.680  28.917  0.00  0.00    -0.146 N 
ENDROOT
BRANCH   4   8
ATOM      8  N   UNL d   1      57.621   0.382  30.314  0.00  0.00    -0.244 NA
BRANCH   8   9
ATOM      9  C   UNL d   1      57.484   0.361  31.127  0.00  0.00     0.081 A 
ATOM     10  C   UNL d   1      56.792   0.019  31.421  0.00  0.00     0.019 A 
ATOM     11  C   UNL d   1      56.655  -0.001  32.233  0.00  0.00     0.002 A 
ATOM     12  C   UNL d   1      57.210   0.320  32.754  0.00  0.00     0.000 A 
ATOM     13  C   UNL d   1      57.901   0.661  32.460  0.00  0.00     0.002 A 
ATOM     14  C   UNL d   1      58.038   0.682  31.648  0.00  0.00     0.019 A 
ENDBRANCH   8   9
ENDBRANCH   4   8
BRANCH   1  15
ATOM     15  N   UNL d   1      59.360  -2.024  28.878  0.00  0.00    -0.114 N 
ATOM     16  O   UNL d   1      60.184  -2.016  28.919  0.00  0.00    -0.532 OA
ATOM     17  O   UNL d   1      58.972  -2.631  28.477  0.00  0.00    -0.532 OA
ENDBRANCH   1  15
TORSDOF 3
ENDMDL
MODEL 5
REMARK VINA RESULT:      -2.6      3.442      4.576
REMARK  3 active torsions:
REMARK  status: ('A' for Active; 'I' for Inactive)
REMARK    1  A    between atoms: C_2  and  N_1 
REMARK    2  A    between atoms: N_6  and  C_5 
REMARK    3  A    between atoms: C_12  and  N_6 
ROOT
ATOM      1  C   UNL d   1      59.658  -2.589  29.018  0.00  0.00     0.128 A 
ATOM      2  C   UNL d   1      60.142  -1.991  28.719  0.00  0.00     0.046 A 
ATOM      3  C   UNL d   1      59.893  -1.204  28.754  0.00  0.00     0.122 A 
ATOM      4  C   UNL d   1      59.162  -1.017  29.087  0.00  0.00     0.101 A 
ATOM      5  C   UNL d   1      58.928  -2.402  29.350  0.00  0.00     0.025 A 
ATOM      6  C   UNL d   1      58.683  -1.617  29.383  0.00  0.00     0.022 A 
ATOM      7  N   UNL d   1      60.376  -0.606  28.456  0.00  0.00    -0.146 N 
ENDROOT
BRANCH   4   8
ATOM      8  N   UNL d   1      58.918  -0.233  29.120  0.00  0.00    -0.244 NA
BRANCH   8   9
ATOM      9  C   UNL d   1      58.614   0.072  29.824  0.00  0.00     0.081 A 
ATOM     10  C   UNL d   1      59.124   0.378  30.396  0.00  0.00     0.019 A 
ATOM     11  C   UNL d   1      58.821   0.682  31.099  0.00  0.00     0.002 A 
ATOM     12  C   UNL d   1      58.006   0.681  31.231  0.00  0.00     0.000 A 
ATOM     13  C   UNL d   1      57.496   0.376  30.659  0.00  0.00     0.002 A 
ATOM     14  C   UNL d   1      57.800   0.071  29.956  0.00  0.00     0.019 A 
ENDBRANCH   8   9
ENDBRANCH   4   8
BRANCH   1  15
ATOM     15  N   UNL d   1      59.907  -3.374  28.983  0.00  0.00    -0.114 N 
ATOM     16  O   UNL d   1      60.516  -3.636  29.475  0.00  0.00    -0.532 OA
ATOM     17  O   UNL d   1      59.549  -3.898  28.456  0.00  0.00    -0.532 OA
ENDBRANCH   1  15
TORSDOF 3
ENDMDL
MODEL 6
REMARK VINA RESULT:      -2.2      2.361      4.484
REMARK  3 active torsions:
REMARK  status: ('A' for Active; 'I' for Inactive)
REMARK    1  A    between atoms: C_2  and  N_1 
REMARK    2  A    between atoms: N_6  and  C_5 
REMARK    3  A    between atoms: C_12  and  N_6 
ROOT
ATOM      1  C   UNL d   1      57.315   0.017  31.538  0.00  0.00     0.128 A 
ATOM      2  C   UNL d   1      57.359  -0.756  31.254  0.00  0.00     0.046 A 
ATOM      3  C   UNL d   1      57.759  -0.914  30.549  0.00  0.00     0.122 A 
ATOM      4  C   UNL d   1      58.113  -0.299  30.129  0.00  0.00     0.101 A 
ATOM      5  C   UNL d   1      57.668   0.632  31.118  0.00  0.00     0.025 A 
ATOM      6  C   UNL d   1      58.066   0.471  30.416  0.00  0.00     0.022 A 
ATOM      7  N   UNL d   1      57.803  -1.687  30.265  0.00  0.00    -0.146 N 
ENDROOT
BRANCH   4   8
ATOM      8  N   UNL d   1      58.510  -0.460  29.427  0.00  0.00    -0.244 NA
BRANCH   8   9
ATOM      9  C   UNL d   1      59.259  -0.140  29.299  0.00  0.00     0.081 A 
ATOM     10  C   UNL d   1      59.879  -0.321  29.813  0.00  0.00     0.019 A 
ATOM     11  C   UNL d   1      60.628  -0.002  29.684  0.00  0.00     0.002 A 
ATOM     12  C   UNL d   1      60.758   0.499  29.041  0.00  0.00     0.000 A 
ATOM     13  C   UNL d   1      60.139   0.680  28.528  0.00  0.00     0.002 A 
ATOM     14  C   UNL d   1      59.390   0.360  28.656  0.00  0.00     0.019 A 
ENDBRANCH   8   9
ENDBRANCH   4   8
BRANCH   1  15
ATOM     15  N   UNL d   1      56.915   0.174  32.242  0.00  0.00    -0.114 N 
ATOM     16  O   UNL d   1      57.333   0.212  32.953  0.00  0.00    -0.532 OA
ATOM     17  O   UNL d   1      56.099   0.294  32.236  0.00  0.00    -0.532 OA
ENDBRANCH   1  15
TORSDOF 3
ENDMDL
