MODEL 1
REMARK VINA RESULT:      75.8      0.000      0.000
REMARK  3 active torsions:
REMARK  status: ('A' for Active; 'I' for Inactive)
REMARK    1  A    between atoms: N_3  and  S_1 
REMARK    2  A    between atoms: C_5  and  S_1 
REMARK       I    between atoms: C_2  and  N_4 
REMARK       I    between atoms: N_6  and  C_2 
REMARK    3  A    between atoms: C_13  and  N_6 
ROOT
ATOM      1  C   UNL d   1      14.502  18.044  -5.097  0.00  0.00     0.339 C 
ATOM      2  N   UNL d   1      13.847  15.678  -4.694  0.00  0.00    -0.226 N 
ATOM      3  N   UNL d   1      14.285  17.259  -4.963  0.00  0.00    -0.254 N 
ATOM      4  N   UNL d   1      14.149  18.477  -5.704  0.00  0.00    -0.257 N 
ATOM      5  C   UNL d   1      13.487  16.107  -5.307  0.00  0.00     0.111 A 
ATOM      6  C   UNL d   1      14.420  16.038  -4.221  0.00  0.00     0.111 A 
ATOM      7  O   UNL d   1      15.080  18.391  -4.613  0.00  0.00    -0.245 OA
ATOM      8  C   UNL d   1      13.705  16.896  -5.442  0.00  0.00     0.104 A 
ATOM      9  C   UNL d   1      14.638  16.823  -4.355  0.00  0.00     0.104 A 
ATOM     10  C   UNL d   1      13.579  18.128  -6.179  0.00  0.00     0.104 C 
ENDROOT
BRANCH   2  11
ATOM     11  S   UNL d   1      13.631  14.897  -4.561  0.00  0.00     0.271 S 
ATOM     12  O   UNL d   1      14.309  14.651  -4.961  0.00  0.00    -0.200 OA
ATOM     13  O   UNL d   1      12.957  15.161  -4.164  0.00  0.00    -0.200 OA
BRANCH  11  14
ATOM     14  C   UNL d   1      13.414  14.113  -4.427  0.00  0.00     0.104 A 
ATOM     15  C   UNL d   1      13.635  13.745  -3.730  0.00  0.00     0.013 A 
ATOM     16  C   UNL d   1      13.421  12.973  -3.598  0.00  0.00     0.001 A 
ATOM     17  C   UNL d   1      13.640  12.597  -2.898  0.00  0.00     0.000 C 
ATOM     18  C   UNL d   1      12.990  12.564  -4.152  0.00  0.00     0.000 A 
ATOM     19  C   UNL d   1      12.771  12.940  -4.851  0.00  0.00     0.001 A 
ATOM     20  C   UNL d   1      12.773  11.779  -4.019  0.00  0.00     0.000 C 
ATOM     21  C   UNL d   1      12.985  13.712  -4.983  0.00  0.00     0.013 A 
ENDBRANCH  11  14
ENDBRANCH   2  11
BRANCH   4  22
ATOM     22  C   UNL d   1      14.376  19.268  -5.830  0.00  0.00     0.068 A 
ATOM     23  C   UNL d   1      15.162  19.504  -5.726  0.00  0.00     0.018 A 
ATOM     24  C   UNL d   1      15.372  20.291  -5.854  0.00  0.00     0.002 A 
ATOM     25  C   UNL d   1      14.804  20.841  -6.085  0.00  0.00     0.000 A 
ATOM     26  C   UNL d   1      14.013  20.598  -6.189  0.00  0.00     0.002 A 
ATOM     27  C   UNL d   1      15.018  21.628  -6.212  0.00  0.00     0.000 C 
ATOM     28  C   UNL d   1      13.807  19.810  -6.059  0.00  0.00     0.018 A 
ENDBRANCH   4  22
TORSDOF 3
ENDMDL
MODEL 2
REMARK VINA RESULT:      77.3      1.911      2.682
REMARK  3 active torsions:
REMARK  status: ('A' for Active; 'I' for Inactive)
REMARK    1  A    between atoms: N_3  and  S_1 
REMARK    2  A    between atoms: C_5  and  S_1 
REMARK       I    between atoms: C_2  and  N_4 
REMARK       I    between atoms: N_6  and  C_2 
REMARK    3  A    between atoms: C_13  and  N_6 
ROOT
ATOM      1  C   UNL d   1      14.727  17.226  -3.744  0.00  0.00     0.339 C 
ATOM      2  N   UNL d   1      14.721  15.177  -2.332  0.00  0.00    -0.226 N 
ATOM      3  N   UNL d   1      14.725  16.546  -3.276  0.00  0.00    -0.254 N 
ATOM      4  N   UNL d   1      14.461  17.195  -4.525  0.00  0.00    -0.257 N 
ATOM      5  C   UNL d   1      14.452  15.138  -3.117  0.00  0.00     0.111 A 
ATOM      6  C   UNL d   1      14.990  15.895  -2.024  0.00  0.00     0.111 A 
ATOM      7  O   UNL d   1      15.000  17.939  -3.420  0.00  0.00    -0.245 OA
ATOM      8  C   UNL d   1      14.454  15.821  -3.588  0.00  0.00     0.104 A 
ATOM      9  C   UNL d   1      14.992  16.574  -2.493  0.00  0.00     0.104 A 
ATOM     10  C   UNL d   1      14.192  16.487  -4.839  0.00  0.00     0.104 C 
ENDROOT
BRANCH   2  11
ATOM     11  S   UNL d   1      14.720  14.501  -1.866  0.00  0.00     0.271 S 
ATOM     12  O   UNL d   1      14.680  14.041  -2.550  0.00  0.00    -0.200 OA
ATOM     13  O   UNL d   1      14.759  14.976  -1.193  0.00  0.00    -0.200 OA
BRANCH  11  14
ATOM     14  C   UNL d   1      14.718  13.823  -1.399  0.00  0.00     0.104 A 
ATOM     15  C   UNL d   1      14.365  13.139  -1.679  0.00  0.00     0.013 A 
ATOM     16  C   UNL d   1      14.363  12.470  -1.218  0.00  0.00     0.001 A 
ATOM     17  C   UNL d   1      14.009  11.779  -1.494  0.00  0.00     0.000 C 
ATOM     18  C   UNL d   1      14.708  12.475  -0.482  0.00  0.00     0.000 A 
ATOM     19  C   UNL d   1      15.061  13.165  -0.207  0.00  0.00     0.001 A 
ATOM     20  C   UNL d   1      14.706  11.795  -0.014  0.00  0.00     0.000 C 
ATOM     21  C   UNL d   1      15.063  13.834  -0.668  0.00  0.00     0.013 A 
ENDBRANCH  11  14
ENDBRANCH   2  11
BRANCH   4  22
ATOM     22  C   UNL d   1      14.467  17.887  -4.988  0.00  0.00     0.068 A 
ATOM     23  C   UNL d   1      14.969  18.517  -4.800  0.00  0.00     0.018 A 
ATOM     24  C   UNL d   1      14.964  19.196  -5.269  0.00  0.00     0.002 A 
ATOM     25  C   UNL d   1      14.463  19.249  -5.920  0.00  0.00     0.000 A 
ATOM     26  C   UNL d   1      13.959  18.610  -6.105  0.00  0.00     0.002 A 
ATOM     27  C   UNL d   1      14.461  19.929  -6.387  0.00  0.00     0.000 C 
ATOM     28  C   UNL d   1      13.966  17.933  -5.634  0.00  0.00     0.018 A 
ENDBRANCH   4  22
TORSDOF 3
ENDMDL
