MODEL 1
REMARK VINA RESULT:      -7.7      0.000      0.000
REMARK  7 active torsions:
REMARK  status: ('A' for Active; 'I' for Inactive)
REMARK    1  A    between atoms: C_2  and  S_1 
REMARK    2  A    between atoms: N_11  and  S_1 
REMARK    3  A    between atoms: O_14  and  C_4 
REMARK    4  A    between atoms: N_10  and  C_15 
REMARK    5  A    between atoms: C_19  and  N_11 
REMARK    6  A    between atoms: C_15  and  C_16 
REMARK    7  A    between atoms: C_16  and  C_19 
ROOT
ATOM      1  S   UNL d   1      51.620  33.695  53.104  0.00  0.00     0.287 S 
ATOM      2  O   UNL d   1      51.182  33.319  53.688  0.00  0.00    -0.198 OA
ATOM      3  O   UNL d   1      52.061  34.075  52.515  0.00  0.00    -0.198 OA
ENDROOT
BRANCH   1   4
ATOM      4  C   UNL d   1      52.311  33.530  53.516  0.00  0.00     0.128 A 
ATOM      5  C   UNL d   1      52.612  34.086  54.052  0.00  0.00     0.026 A 
ATOM      6  C   UNL d   1      53.313  33.919  54.469  0.00  0.00     0.059 A 
ATOM      7 CL   UNL d   1      53.608  34.466  54.996  0.00  0.00    -0.082 Cl
ATOM      8  C   UNL d   1      53.703  33.197  54.344  0.00  0.00     0.013 A 
ATOM      9  C   UNL d   1      53.400  32.651  53.813  0.00  0.00     0.026 A 
ATOM     10  C   UNL d   1      54.393  33.032  54.755  0.00  0.00     0.001 C 
ATOM     11  C   UNL d   1      52.699  32.819  53.396  0.00  0.00     0.106 A 
BRANCH  11  12
ATOM     12  O   UNL d   1      52.398  32.269  52.862  0.00  0.00    -0.327 OA
ATOM     13  C   UNL d   1      52.736  31.522  52.817  0.00  0.00     0.181 C 
ENDBRANCH  11  12
ENDBRANCH   1   4
BRANCH   1  14
ATOM     14  N   UNL d   1      50.922  33.862  52.689  0.00  0.00    -0.157 NA
BRANCH  14  15
ATOM     15  C   UNL d   1      50.398  34.437  52.979  0.00  0.00     0.114 C 
BRANCH  15  16
ATOM     16  C   UNL d   1      49.719  34.625  52.550  0.00  0.00     0.041 C 
BRANCH  16  17
ATOM     17  C   UNL d   1      49.181  35.165  52.850  0.00  0.00     0.082 C 
BRANCH  17  18
ATOM     18  N   UNL d   1      48.519  35.372  52.411  0.00  0.00    -0.299 N 
ATOM     19  C   UNL d   1      47.966  35.916  52.718  0.00  0.00     0.107 A 
ATOM     20  C   UNL d   1      47.304  36.122  52.280  0.00  0.00     0.142 A 
ATOM     21  O   UNL d   1      47.181  35.796  51.537  0.00  0.00    -0.300 OA
ATOM     22  C   UNL d   1      47.726  35.254  51.225  0.00  0.00     0.142 A 
ATOM     23  C   UNL d   1      48.399  35.044  51.670  0.00  0.00     0.107 A 
ENDBRANCH  17  18
ENDBRANCH  16  17
ENDBRANCH  15  16
ENDBRANCH  14  15
ENDBRANCH   1  14
TORSDOF 7
ENDMDL
MODEL 2
REMARK VINA RESULT:      -5.5      1.782      5.231
REMARK  7 active torsions:
REMARK  status: ('A' for Active; 'I' for Inactive)
REMARK    1  A    between atoms: C_2  and  S_1 
REMARK    2  A    between atoms: N_11  and  S_1 
REMARK    3  A    between atoms: O_14  and  C_4 
REMARK    4  A    between atoms: N_10  and  C_15 
REMARK    5  A    between atoms: C_19  and  N_11 
REMARK    6  A    between atoms: C_15  and  C_16 
REMARK    7  A    between atoms: C_16  and  C_19 
ROOT
ATOM      1  S   UNL d   1      50.031  34.481  52.732  0.00  0.00     0.287 S 
ATOM      2  O   UNL d   1      49.615  33.879  53.104  0.00  0.00    -0.198 OA
ATOM      3  O   UNL d   1      50.451  35.089  52.357  0.00  0.00    -0.198 OA
ENDROOT
BRANCH   1   4
ATOM      4  C   UNL d   1      49.343  34.925  52.679  0.00  0.00     0.128 A 
ATOM      5  C   UNL d   1      49.103  35.389  53.324  0.00  0.00     0.026 A 
ATOM      6  C   UNL d   1      48.404  35.839  53.270  0.00  0.00     0.059 A 
ATOM      7 CL   UNL d   1      48.170  36.295  53.904  0.00  0.00    -0.082 Cl
ATOM      8  C   UNL d   1      47.955  35.819  52.573  0.00  0.00     0.013 A 
ATOM      9  C   UNL d   1      48.197  35.358  51.939  0.00  0.00     0.026 A 
ATOM     10  C   UNL d   1      47.267  36.262  52.520  0.00  0.00     0.001 C 
ATOM     11  C   UNL d   1      48.896  34.908  51.993  0.00  0.00     0.106 A 
BRANCH  11  12
ATOM     12  O   UNL d   1      49.136  34.447  51.355  0.00  0.00    -0.327 OA
ATOM     13  C   UNL d   1      48.680  34.431  50.673  0.00  0.00     0.181 C 
ENDBRANCH  11  12
ENDBRANCH   1   4
BRANCH   1  14
ATOM     14  N   UNL d   1      50.727  34.033  52.785  0.00  0.00    -0.157 NA
BRANCH  14  15
ATOM     15  C   UNL d   1      51.389  34.348  53.174  0.00  0.00     0.114 C 
BRANCH  15  16
ATOM     16  C   UNL d   1      52.040  33.864  53.329  0.00  0.00     0.041 C 
BRANCH  16  17
ATOM     17  C   UNL d   1      52.712  34.180  53.675  0.00  0.00     0.082 C 
BRANCH  17  18
ATOM     18  N   UNL d   1      53.305  33.683  53.949  0.00  0.00    -0.299 N 
ATOM     19  C   UNL d   1      53.544  33.717  54.747  0.00  0.00     0.107 A 
ATOM     20  C   UNL d   1      54.136  33.220  55.021  0.00  0.00     0.142 A 
ATOM     21  O   UNL d   1      54.498  32.686  54.513  0.00  0.00    -0.300 OA
ATOM     22  C   UNL d   1      54.266  32.646  53.718  0.00  0.00     0.142 A 
ATOM     23  C   UNL d   1      53.663  33.152  53.439  0.00  0.00     0.107 A 
ENDBRANCH  17  18
ENDBRANCH  16  17
ENDBRANCH  15  16
ENDBRANCH  14  15
ENDBRANCH   1  14
TORSDOF 7
ENDMDL
MODEL 3
REMARK VINA RESULT:      -5.4      2.409      5.300
REMARK  7 active torsions:
REMARK  status: ('A' for Active; 'I' for Inactive)
REMARK    1  A    between atoms: C_2  and  S_1 
REMARK    2  A    between atoms: N_11  and  S_1 
REMARK    3  A    between atoms: O_14  and  C_4 
REMARK    4  A    between atoms: N_10  and  C_15 
REMARK    5  A    between atoms: C_19  and  N_11 
REMARK    6  A    between atoms: C_15  and  C_16 
REMARK    7  A    between atoms: C_16  and  C_19 
ROOT
ATOM      1  S   UNL d   1      52.579  32.609  53.084  0.00  0.00     0.287 S 
ATOM      2  O   UNL d   1      51.886  32.523  53.517  0.00  0.00    -0.198 OA
ATOM      3  O   UNL d   1      53.278  32.695  52.649  0.00  0.00    -0.198 OA
ENDROOT
BRANCH   1   4
ATOM      4  C   UNL d   1      52.654  33.379  53.358  0.00  0.00     0.128 A 
ATOM      5  C   UNL d   1      53.163  33.542  53.992  0.00  0.00     0.026 A 
ATOM      6  C   UNL d   1      53.239  34.324  54.269  0.00  0.00     0.059 A 
ATOM      7 CL   UNL d   1      53.739  34.483  54.892  0.00  0.00    -0.082 Cl
ATOM      8  C   UNL d   1      52.804  34.932  53.908  0.00  0.00     0.013 A 
ATOM      9  C   UNL d   1      52.303  34.764  53.281  0.00  0.00     0.026 A 
ATOM     10  C   UNL d   1      52.879  35.701  54.180  0.00  0.00     0.001 C 
ATOM     11  C   UNL d   1      52.227  33.982  53.004  0.00  0.00     0.106 A 
BRANCH  11  12
ATOM     12  O   UNL d   1      51.722  33.818  52.375  0.00  0.00    -0.327 OA
ATOM     13  C   UNL d   1      51.234  34.409  52.082  0.00  0.00     0.181 C 
ENDBRANCH  11  12
ENDBRANCH   1   4
BRANCH   1  14
ATOM     14  N   UNL d   1      52.504  31.830  52.809  0.00  0.00    -0.157 NA
BRANCH  14  15
ATOM     15  C   UNL d   1      53.067  31.261  53.026  0.00  0.00     0.114 C 
BRANCH  15  16
ATOM     16  C   UNL d   1      52.819  30.526  53.305  0.00  0.00     0.041 C 
BRANCH  16  17
ATOM     17  C   UNL d   1      53.350  29.904  53.353  0.00  0.00     0.082 C 
BRANCH  17  18
ATOM     18  N   UNL d   1      53.347  29.411  54.010  0.00  0.00    -0.299 N 
ATOM     19  C   UNL d   1      53.735  28.674  53.981  0.00  0.00     0.107 A 
ATOM     20  C   UNL d   1      53.733  28.181  54.637  0.00  0.00     0.142 A 
ATOM     21  O   UNL d   1      53.348  28.409  55.326  0.00  0.00    -0.300 OA
ATOM     22  C   UNL d   1      52.960  29.142  55.362  0.00  0.00     0.142 A 
ATOM     23  C   UNL d   1      52.963  29.643  54.695  0.00  0.00     0.107 A 
ENDBRANCH  17  18
ENDBRANCH  16  17
ENDBRANCH  15  16
ENDBRANCH  14  15
ENDBRANCH   1  14
TORSDOF 7
ENDMDL
MODEL 4
REMARK VINA RESULT:      -5.2     10.405     11.258
REMARK  7 active torsions:
REMARK  status: ('A' for Active; 'I' for Inactive)
REMARK    1  A    between atoms: C_2  and  S_1 
REMARK    2  A    between atoms: N_11  and  S_1 
REMARK    3  A    between atoms: O_14  and  C_4 
REMARK    4  A    between atoms: N_10  and  C_15 
REMARK    5  A    between atoms: C_19  and  N_11 
REMARK    6  A    between atoms: C_15  and  C_16 
REMARK    7  A    between atoms: C_16  and  C_19 
ROOT
ATOM      1  S   UNL d   1      45.120  27.078  57.018  0.00  0.00     0.287 S 
ATOM      2  O   UNL d   1      44.325  27.152  56.824  0.00  0.00    -0.198 OA
ATOM      3  O   UNL d   1      45.921  27.003  57.214  0.00  0.00    -0.198 OA
ENDROOT
BRANCH   1   4
ATOM      4  C   UNL d   1      45.025  27.632  57.616  0.00  0.00     0.128 A 
ATOM      5  C   UNL d   1      44.931  27.377  58.400  0.00  0.00     0.026 A 
ATOM      6  C   UNL d   1      44.835  27.940  59.007  0.00  0.00     0.059 A 
ATOM      7 CL   UNL d   1      44.743  27.688  59.777  0.00  0.00    -0.082 Cl
ATOM      8  C   UNL d   1      44.835  28.749  58.822  0.00  0.00     0.013 A 
ATOM      9  C   UNL d   1      44.929  28.994  58.046  0.00  0.00     0.026 A 
ATOM     10  C   UNL d   1      44.741  29.302  59.420  0.00  0.00     0.001 C 
ATOM     11  C   UNL d   1      45.024  28.432  57.438  0.00  0.00     0.106 A 
BRANCH  11  12
ATOM     12  O   UNL d   1      45.118  28.681  56.660  0.00  0.00    -0.327 OA
ATOM     13  C   UNL d   1      45.013  29.474  56.473  0.00  0.00     0.181 C 
ENDBRANCH  11  12
ENDBRANCH   1   4
BRANCH   1  14
ATOM     14  N   UNL d   1      45.215  26.518  56.414  0.00  0.00    -0.157 NA
BRANCH  14  15
ATOM     15  C   UNL d   1      44.912  25.752  56.512  0.00  0.00     0.114 C 
BRANCH  15  16
ATOM     16  C   UNL d   1      45.028  25.188  55.921  0.00  0.00     0.041 C 
BRANCH  16  17
ATOM     17  C   UNL d   1      44.673  24.452  55.981  0.00  0.00     0.082 C 
BRANCH  17  18
ATOM     18  N   UNL d   1      44.863  23.859  55.446  0.00  0.00    -0.299 N 
ATOM     19  C   UNL d   1      45.244  23.165  55.708  0.00  0.00     0.107 A 
ATOM     20  C   UNL d   1      45.435  22.573  55.174  0.00  0.00     0.142 A 
ATOM     21  O   UNL d   1      45.251  22.658  54.378  0.00  0.00    -0.300 OA
ATOM     22  C   UNL d   1      44.872  23.346  54.110  0.00  0.00     0.142 A 
ATOM     23  C   UNL d   1      44.679  23.948  54.653  0.00  0.00     0.107 A 
ENDBRANCH  17  18
ENDBRANCH  16  17
ENDBRANCH  15  16
ENDBRANCH  14  15
ENDBRANCH   1  14
TORSDOF 7
ENDMDL
MODEL 5
REMARK VINA RESULT:      -5.1      2.407      5.962
REMARK  7 active torsions:
REMARK  status: ('A' for Active; 'I' for Inactive)
REMARK    1  A    between atoms: C_2  and  S_1 
REMARK    2  A    between atoms: N_11  and  S_1 
REMARK    3  A    between atoms: O_14  and  C_4 
REMARK    4  A    between atoms: N_10  and  C_15 
REMARK    5  A    between atoms: C_19  and  N_11 
REMARK    6  A    between atoms: C_15  and  C_16 
REMARK    7  A    between atoms: C_16  and  C_19 
ROOT
ATOM      1  S   UNL d   1      48.203  35.855  53.179  0.00  0.00     0.287 S 
ATOM      2  O   UNL d   1      47.971  35.068  53.226  0.00  0.00    -0.198 OA
ATOM      3  O   UNL d   1      48.436  36.648  53.132  0.00  0.00    -0.198 OA
ENDROOT
BRANCH   1   4
ATOM      4  C   UNL d   1      47.438  36.068  52.970  0.00  0.00     0.128 A 
ATOM      5  C   UNL d   1      47.176  35.944  52.193  0.00  0.00     0.026 A 
ATOM      6  C   UNL d   1      46.400  36.161  51.981  0.00  0.00     0.059 A 
ATOM      7 CL   UNL d   1      46.144  36.039  51.217  0.00  0.00    -0.082 Cl
ATOM      8  C   UNL d   1      45.897  36.497  52.549  0.00  0.00     0.013 A 
ATOM      9  C   UNL d   1      46.162  36.616  53.315  0.00  0.00     0.026 A 
ATOM     10  C   UNL d   1      45.133  36.709  52.340  0.00  0.00     0.001 C 
ATOM     11  C   UNL d   1      46.938  36.400  53.527  0.00  0.00     0.106 A 
BRANCH  11  12
ATOM     12  O   UNL d   1      47.201  36.521  54.298  0.00  0.00    -0.327 OA
ATOM     13  C   UNL d   1      46.659  36.706  54.886  0.00  0.00     0.181 C 
ENDBRANCH  11  12
ENDBRANCH   1   4
BRANCH   1  14
ATOM     14  N   UNL d   1      48.975  35.640  53.391  0.00  0.00    -0.157 NA
BRANCH  14  15
ATOM     15  C   UNL d   1      49.402  35.115  52.910  0.00  0.00     0.114 C 
BRANCH  15  16
ATOM     16  C   UNL d   1      50.135  34.833  53.162  0.00  0.00     0.041 C 
BRANCH  16  17
ATOM     17  C   UNL d   1      50.630  34.450  52.635  0.00  0.00     0.082 C 
BRANCH  17  18
ATOM     18  N   UNL d   1      51.331  34.114  52.900  0.00  0.00    -0.299 N 
ATOM     19  C   UNL d   1      51.373  33.294  53.049  0.00  0.00     0.107 A 
ATOM     20  C   UNL d   1      52.073  32.959  53.313  0.00  0.00     0.142 A 
ATOM     21  O   UNL d   1      52.738  33.426  53.433  0.00  0.00    -0.300 OA
ATOM     22  C   UNL d   1      52.704  34.242  53.287  0.00  0.00     0.142 A 
ATOM     23  C   UNL d   1      51.992  34.583  53.018  0.00  0.00     0.107 A 
ENDBRANCH  17  18
ENDBRANCH  16  17
ENDBRANCH  15  16
ENDBRANCH  14  15
ENDBRANCH   1  14
TORSDOF 7
ENDMDL
