MODEL 1
REMARK VINA RESULT:      51.3      0.000      0.000
REMARK  5 active torsions:
REMARK  status: ('A' for Active; 'I' for Inactive)
REMARK    1  A    between atoms: C_6  and  N_1 
REMARK    2  A    between atoms: C_7  and  C_3 
REMARK    3  A    between atoms: C_10  and  C_7 
REMARK    4  A    between atoms: C_16  and  C_8 
REMARK    5  A    between atoms: C_14  and  C_18 
ROOT
ATOM      1  N   UNL d   1      45.154 -12.507  41.828  0.00  0.00    -0.252 N 
ATOM      2  C   UNL d   1      44.406 -12.339  41.537  0.00  0.00     0.203 A 
ATOM      3  C   UNL d   1      45.259 -12.303  40.519  0.00  0.00     0.091 A 
ATOM      4  C   UNL d   1      45.686 -12.485  41.201  0.00  0.00     0.272 A 
ATOM      5  S   UNL d   1      44.467 -12.213  40.730  0.00  0.00    -0.043 SA
ATOM      6  N   UNL d   1      43.707 -12.304  41.983  0.00  0.00    -0.121 N 
ATOM      7  O   UNL d   1      46.494 -12.620  41.241  0.00  0.00    -0.266 OA
ENDROOT
BRANCH   3   8
ATOM      8  C   UNL d   1      45.566 -12.223  39.758  0.00  0.00     0.036 C 
BRANCH   8   9
ATOM      9  C   UNL d   1      45.227 -12.629  39.117  0.00  0.00     0.101 A 
ATOM     10  O   UNL d   1      45.545 -13.302  38.760  0.00  0.00    -0.307 OA
ATOM     11  C   UNL d   1      45.038 -13.532  38.145  0.00  0.00     0.100 A 
ATOM     12  C   UNL d   1      44.406 -12.992  38.130  0.00  0.00     0.027 A 
ATOM     13  C   UNL d   1      44.531 -12.440  38.732  0.00  0.00     0.027 A 
BRANCH  11  14
ATOM     14  C   UNL d   1      45.140 -14.171  37.647  0.00  0.00     0.023 A 
ATOM     15  C   UNL d   1      44.514 -14.673  37.477  0.00  0.00     0.008 A 
ATOM     16  C   UNL d   1      44.628 -15.320  36.970  0.00  0.00     0.065 A 
ATOM     17  C   UNL d   1      45.354 -15.460  36.640  0.00  0.00     0.006 A 
ATOM     18  C   UNL d   1      45.991 -14.967  36.800  0.00  0.00     0.000 A 
ATOM     19  C   UNL d   1      45.874 -14.320  37.309  0.00  0.00     0.002 A 
BRANCH  16  20
ATOM     20  C   UNL d   1      43.978 -15.830  36.801  0.00  0.00     0.211 C 
ATOM     21  O   UNL d   1      43.235 -15.665  37.108  0.00  0.00    -0.644 OA
ATOM     22  O   UNL d   1      44.085 -16.490  36.332  0.00  0.00    -0.644 OA
ENDBRANCH  16  20
ENDBRANCH  11  14
ENDBRANCH   8   9
ENDBRANCH   3   8
BRANCH   1  23
ATOM     23  C   UNL d   1      45.339 -12.669  42.619  0.00  0.00     0.071 A 
ATOM     24  C   UNL d   1      45.226 -13.435  42.919  0.00  0.00     0.044 A 
ATOM     25  C   UNL d   1      45.411 -13.607  43.716  0.00  0.00     0.121 A 
ATOM     26  O   UNL d   1      45.353 -14.308  44.153  0.00  0.00    -0.299 OA
ATOM     27  C   UNL d   1      45.704 -13.013  44.199  0.00  0.00     0.119 A 
ATOM     28  C   UNL d   1      45.617 -14.141  44.916  0.00  0.00     0.304 A 
ATOM     29  O   UNL d   1      45.836 -13.338  44.951  0.00  0.00    -0.300 OA
ATOM     30  C   UNL d   1      45.819 -12.254  43.910  0.00  0.00     0.028 A 
ATOM     31  C   UNL d   1      45.636 -12.080  43.116  0.00  0.00     0.020 A 
ENDBRANCH   1  23
TORSDOF 5
ENDMDL
MODEL 2
REMARK VINA RESULT:      52.6      1.099      5.887
REMARK  5 active torsions:
REMARK  status: ('A' for Active; 'I' for Inactive)
REMARK    1  A    between atoms: C_6  and  N_1 
REMARK    2  A    between atoms: C_7  and  C_3 
REMARK    3  A    between atoms: C_10  and  C_7 
REMARK    4  A    between atoms: C_16  and  C_8 
REMARK    5  A    between atoms: C_14  and  C_18 
ROOT
ATOM      1  N   UNL d   1      44.864 -13.223  38.869  0.00  0.00    -0.252 N 
ATOM      2  C   UNL d   1      44.157 -12.852  39.059  0.00  0.00     0.203 A 
ATOM      3  C   UNL d   1      45.074 -12.460  39.936  0.00  0.00     0.091 A 
ATOM      4  C   UNL d   1      45.434 -12.983  39.410  0.00  0.00     0.272 A 
ATOM      5  S   UNL d   1      44.283 -12.381  39.716  0.00  0.00    -0.043 SA
ATOM      6  N   UNL d   1      43.438 -12.940  38.654  0.00  0.00    -0.121 N 
ATOM      7  O   UNL d   1      46.221 -13.217  39.428  0.00  0.00    -0.266 OA
ENDROOT
BRANCH   3   8
ATOM      8  C   UNL d   1      45.437 -12.080  40.572  0.00  0.00     0.036 C 
BRANCH   8   9
ATOM      9  C   UNL d   1      45.153 -12.182  41.347  0.00  0.00     0.101 A 
ATOM     10  O   UNL d   1      45.613 -12.407  41.995  0.00  0.00    -0.307 OA
ATOM     11  C   UNL d   1      45.120 -12.444  42.661  0.00  0.00     0.100 A 
ATOM     12  C   UNL d   1      44.353 -12.240  42.413  0.00  0.00     0.027 A 
ATOM     13  C   UNL d   1      44.383 -12.080  41.603  0.00  0.00     0.027 A 
BRANCH  11  14
ATOM     14  C   UNL d   1      45.347 -12.645  43.420  0.00  0.00     0.023 A 
ATOM     15  C   UNL d   1      45.186 -13.391  43.719  0.00  0.00     0.008 A 
ATOM     16  C   UNL d   1      45.420 -13.587  44.491  0.00  0.00     0.065 A 
ATOM     17  C   UNL d   1      45.807 -13.045  44.952  0.00  0.00     0.006 A 
ATOM     18  C   UNL d   1      45.975 -12.293  44.667  0.00  0.00     0.000 A 
ATOM     19  C   UNL d   1      45.739 -12.100  43.894  0.00  0.00     0.002 A 
BRANCH  16  20
ATOM     20  C   UNL d   1      45.251 -14.357  44.791  0.00  0.00     0.211 C 
ATOM     21  O   UNL d   1      45.862 -14.888  44.927  0.00  0.00    -0.644 OA
ATOM     22  O   UNL d   1      44.480 -14.576  44.945  0.00  0.00    -0.644 OA
ENDBRANCH  16  20
ENDBRANCH  11  14
ENDBRANCH   8   9
ENDBRANCH   3   8
BRANCH   1  23
ATOM     23  C   UNL d   1      44.979 -13.749  38.239  0.00  0.00     0.071 A 
ATOM     24  C   UNL d   1      44.401 -14.319  38.067  0.00  0.00     0.044 A 
ATOM     25  C   UNL d   1      44.510 -14.853  37.434  0.00  0.00     0.121 A 
ATOM     26  O   UNL d   1      44.033 -15.466  37.145  0.00  0.00    -0.299 OA
ATOM     27  C   UNL d   1      45.193 -14.809  36.983  0.00  0.00     0.119 A 
ATOM     28  C   UNL d   1      44.431 -15.802  36.506  0.00  0.00     0.304 A 
ATOM     29  O   UNL d   1      45.152 -15.399  36.401  0.00  0.00    -0.300 OA
ATOM     30  C   UNL d   1      45.770 -14.249  37.146  0.00  0.00     0.028 A 
ATOM     31  C   UNL d   1      45.663 -13.715  37.778  0.00  0.00     0.020 A 
ENDBRANCH   1  23
TORSDOF 5
ENDMDL
