MODEL 1
REMARK VINA RESULT:      16.7      0.000      0.000
REMARK  2 active torsions:
REMARK  status: ('A' for Active; 'I' for Inactive)
REMARK    1  A    between atoms: C_6  and  C_1 
REMARK    2  A    between atoms: O_16  and  C_13 
ROOT
ATOM      1  C   UNL d   1      13.407  12.306  -3.436  0.00  0.00     0.148 A 
ATOM      2  N   UNL d   1      13.242  13.055  -3.702  0.00  0.00    -0.289 N 
ATOM      3  N   UNL d   1      13.271  11.779  -4.048  0.00  0.00    -0.225 NA
ATOM      4  C   UNL d   1      12.994  13.020  -4.495  0.00  0.00     0.085 A 
ATOM      5  C   UNL d   1      13.016  12.210  -4.704  0.00  0.00     0.118 A 
ATOM      6  C   UNL d   1      13.280  13.831  -3.316  0.00  0.00     0.082 A 
ATOM      7  C   UNL d   1      12.790  13.690  -4.907  0.00  0.00     0.019 A 
ATOM      8  C   UNL d   1      13.076  14.502  -3.728  0.00  0.00     0.019 A 
ATOM      9  C   UNL d   1      12.820  14.443  -4.555  0.00  0.00     0.003 A 
ENDROOT
BRANCH   1  10
ATOM     10  C   UNL d   1      13.671  12.182  -2.649  0.00  0.00     0.035 A 
ATOM     11  C   UNL d   1      13.146  11.914  -2.064  0.00  0.00     0.005 A 
ATOM     12  C   UNL d   1      13.409  11.795  -1.297  0.00  0.00     0.024 A 
ATOM     13  C   UNL d   1      14.196  11.941  -1.100  0.00  0.00     0.094 A 
ATOM     14  C   UNL d   1      14.712  12.204  -1.670  0.00  0.00     0.024 A 
ATOM     15  C   UNL d   1      14.453  12.328  -2.455  0.00  0.00     0.005 A 
BRANCH  13  16
ATOM     16  O   UNL d   1      14.493  11.826  -0.314  0.00  0.00    -0.328 OA
ATOM     17  C   UNL d   1      15.097  12.303  -0.018  0.00  0.00     0.181 C 
ENDBRANCH  13  16
ENDBRANCH   1  10
TORSDOF 2
ENDMDL
MODEL 2
REMARK VINA RESULT:      16.8      1.766      3.682
REMARK  2 active torsions:
REMARK  status: ('A' for Active; 'I' for Inactive)
REMARK    1  A    between atoms: C_6  and  C_1 
REMARK    2  A    between atoms: O_16  and  C_13 
ROOT
ATOM      1  C   UNL d   1      13.387  12.048  -1.925  0.00  0.00     0.148 A 
ATOM      2  N   UNL d   1      14.099  12.048  -1.534  0.00  0.00    -0.289 N 
ATOM      3  N   UNL d   1      12.795  11.884  -1.384  0.00  0.00    -0.225 NA
ATOM      4  C   UNL d   1      13.972  11.882  -0.729  0.00  0.00     0.085 A 
ATOM      5  C   UNL d   1      13.146  11.780  -0.644  0.00  0.00     0.118 A 
ATOM      6  C   UNL d   1      14.912  12.184  -1.805  0.00  0.00     0.082 A 
ATOM      7  C   UNL d   1      14.589  11.846  -0.200  0.00  0.00     0.019 A 
ATOM      8  C   UNL d   1      15.529  12.148  -1.276  0.00  0.00     0.019 A 
ATOM      9  C   UNL d   1      15.375  11.973  -0.440  0.00  0.00     0.003 A 
ENDROOT
BRANCH   1  10
ATOM     10  C   UNL d   1      13.355  12.201  -2.749  0.00  0.00     0.035 A 
ATOM     11  C   UNL d   1      13.846  12.777  -3.093  0.00  0.00     0.005 A 
ATOM     12  C   UNL d   1      13.810  12.921  -3.898  0.00  0.00     0.024 A 
ATOM     13  C   UNL d   1      13.287  12.498  -4.374  0.00  0.00     0.094 A 
ATOM     14  C   UNL d   1      12.805  11.935  -4.042  0.00  0.00     0.024 A 
ATOM     15  C   UNL d   1      12.834  11.779  -3.221  0.00  0.00     0.005 A 
BRANCH  13  16
ATOM     16  O   UNL d   1      13.231  12.630  -5.211  0.00  0.00    -0.328 OA
ATOM     17  C   UNL d   1      13.264  11.998  -5.739  0.00  0.00     0.181 C 
ENDBRANCH  13  16
ENDBRANCH   1  10
TORSDOF 2
ENDMDL
