MODEL 1
REMARK VINA RESULT:      25.8      0.000      0.000
REMARK  7 active torsions:
REMARK  status: ('A' for Active; 'I' for Inactive)
REMARK    1  A    between atoms: C_25  and  N_5 
REMARK    2  A    between atoms: C_11  and  C_6 
REMARK       I    between atoms: N_19  and  C_11 
REMARK    3  A    between atoms: N_15  and  C_28 
REMARK    4  A    between atoms: C_27  and  N_19 
REMARK    5  A    between atoms: C_26  and  C_25 
REMARK    6  A    between atoms: C_28  and  C_26 
REMARK    7  A    between atoms: C_29  and  C_27 
ROOT
ATOM      1  C   UNL d   1     -41.254-121.303 -52.346  0.00  0.00     0.155 A 
ATOM      2  C   UNL d   1     -41.292-121.093 -51.549  0.00  0.00     0.091 A 
ATOM      3  N   UNL d   1     -41.204-120.716 -52.922  0.00  0.00    -0.210 NA
ATOM      4  N   UNL d   1     -41.229-119.717 -51.909  0.00  0.00    -0.258 N 
ATOM      5  N   UNL d   1     -41.267-122.096 -52.568  0.00  0.00    -0.274 N 
ATOM      6  C   UNL d   1     -41.356-122.477 -51.183  0.00  0.00     0.094 A 
ATOM      7  C   UNL d   1     -41.279-120.294 -51.330  0.00  0.00     0.269 A 
ATOM      8  C   UNL d   1     -41.318-122.689 -51.990  0.00  0.00     0.175 A 
ATOM      9  C   UNL d   1     -41.191-119.932 -52.703  0.00  0.00     0.152 A 
ATOM     10  C   UNL d   1     -41.343-121.678 -50.964  0.00  0.00     0.016 A 
ATOM     11  C   UNL d   1     -41.215-118.917 -51.699  0.00  0.00     0.084 A 
ATOM     12  C   UNL d   1     -41.140-119.347 -53.289  0.00  0.00     0.038 A 
ATOM     13  N   UNL d   1     -41.331-123.483 -52.210  0.00  0.00    -0.128 N 
ATOM     14  C   UNL d   1     -41.165-118.339 -52.278  0.00  0.00     0.018 A 
ATOM     15  C   UNL d   1     -41.128-118.554 -53.073  0.00  0.00     0.005 A 
ATOM     16  O   UNL d   1     -41.317-120.084 -50.533  0.00  0.00    -0.266 OA
ATOM     17  C   UNL d   1     -41.151-117.550 -52.071  0.00  0.00     0.002 C 
ENDROOT
BRANCH   6  18
ATOM     18  C   UNL d   1     -41.406-123.055 -50.609  0.00  0.00     0.282 C 
ATOM     19  N   UNL d   1     -41.744-122.879 -49.869  0.00  0.00    -0.206 NA
ATOM     20  O   UNL d   1     -41.125-123.818 -50.752  0.00  0.00    -0.265 OA
BRANCH  19  21
ATOM     21  C   UNL d   1     -41.795-123.459 -49.291  0.00  0.00     0.102 C 
BRANCH  21  22
ATOM     22  C   UNL d   1     -42.019-123.257 -48.515  0.00  0.00     0.019 A 
ATOM     23  C   UNL d   1     -41.446-123.229 -47.923  0.00  0.00     0.002 A 
ATOM     24  C   UNL d   1     -41.657-123.028 -47.147  0.00  0.00     0.000 A 
ATOM     25  C   UNL d   1     -42.449-122.856 -46.970  0.00  0.00     0.000 A 
ATOM     26  C   UNL d   1     -43.023-122.888 -47.576  0.00  0.00     0.000 A 
ATOM     27  C   UNL d   1     -42.804-123.088 -48.345  0.00  0.00     0.002 A 
ENDBRANCH  21  22
ENDBRANCH  19  21
ENDBRANCH   6  18
BRANCH   5  28
ATOM     28  C   UNL d   1     -41.229-122.303 -53.365  0.00  0.00     0.085 C 
BRANCH  28  29
ATOM     29  C   UNL d   1     -41.920-122.351 -53.811  0.00  0.00     0.038 C 
BRANCH  29  30
ATOM     30  C   UNL d   1     -41.894-122.623 -54.594  0.00  0.00     0.083 C 
BRANCH  30  31
ATOM     31  N   UNL d   1     -42.431-122.337 -55.150  0.00  0.00    -0.285 N 
ATOM     32  C   UNL d   1     -42.239-121.990 -55.865  0.00  0.00     0.183 A 
ATOM     33  N   UNL d   1     -42.965-121.787 -56.243  0.00  0.00    -0.222 NA
ATOM     34  C   UNL d   1     -43.572-122.011 -55.758  0.00  0.00     0.120 A 
ATOM     35  C   UNL d   1     -43.248-122.353 -55.079  0.00  0.00     0.102 A 
ENDBRANCH  30  31
ENDBRANCH  29  30
ENDBRANCH  28  29
ENDBRANCH   5  28
TORSDOF 7
ENDMDL
