MODEL 1
REMARK VINA RESULT:      -9.5      0.000      0.000
REMARK  3 active torsions:
REMARK  status: ('A' for Active; 'I' for Inactive)
REMARK    1  A    between atoms: C_4  and  C_1 
REMARK       I    between atoms: N_8  and  C_4 
REMARK    2  A    between atoms: C_15  and  C_11 
REMARK    3  A    between atoms: C_12  and  C_15 
ROOT
ATOM      1  C   UNL d   1      51.908  33.865  52.784  0.00  0.00     0.120 A 
ATOM      2  C   UNL d   1      52.324  34.397  53.265  0.00  0.00     0.305 A 
ATOM      3  O   UNL d   1      52.969  34.127  53.727  0.00  0.00    -0.273 OA
ATOM      4  C   UNL d   1      52.129  33.056  52.757  0.00  0.00     0.012 A 
ATOM      5  C   UNL d   1      53.188  33.336  53.703  0.00  0.00     0.103 A 
ATOM      6  C   UNL d   1      52.768  32.798  53.217  0.00  0.00     0.023 A 
ATOM      7  O   UNL d   1      52.106  35.191  53.291  0.00  0.00    -0.259 OA
ATOM      8  C   UNL d   1      53.827  33.057  54.157  0.00  0.00     0.023 A 
ATOM      9  C   UNL d   1      52.991  31.998  53.194  0.00  0.00     0.002 A 
ATOM     10  C   UNL d   1      53.629  31.737  53.652  0.00  0.00     0.000 A 
ATOM     11  C   UNL d   1      54.045  32.263  54.131  0.00  0.00     0.002 A 
ENDROOT
BRANCH   1  12
ATOM     12  C   UNL d   1      51.275  34.131  52.331  0.00  0.00     0.270 C 
ATOM     13  N   UNL d   1      50.503  34.059  52.610  0.00  0.00    -0.269 N 
ATOM     14  C   UNL d   1      49.869  34.326  52.156  0.00  0.00     0.102 C 
ATOM     15  C   UNL d   1      50.369  33.719  53.349  0.00  0.00     0.102 C 
ATOM     16  O   UNL d   1      51.409  34.471  51.592  0.00  0.00    -0.266 OA
ENDBRANCH   1  12
BRANCH   8  17
ATOM     17  C   UNL d   1      54.243  33.584  54.637  0.00  0.00     0.002 C 
BRANCH  17  18
ATOM     18  C   UNL d   1      54.889  33.322  55.076  0.00  0.00     0.000 C 
ATOM     19  C   UNL d   1      55.386  33.865  55.445  0.00  0.00     0.000 C 
ENDBRANCH  17  18
ENDBRANCH   8  17
TORSDOF 3
ENDMDL
MODEL 2
REMARK VINA RESULT:      -9.1      1.926      3.130
REMARK  3 active torsions:
REMARK  status: ('A' for Active; 'I' for Inactive)
REMARK    1  A    between atoms: C_4  and  C_1 
REMARK       I    between atoms: N_8  and  C_4 
REMARK    2  A    between atoms: C_15  and  C_11 
REMARK    3  A    between atoms: C_12  and  C_15 
ROOT
ATOM      1  C   UNL d   1      53.624  32.908  54.152  0.00  0.00     0.120 A 
ATOM      2  C   UNL d   1      53.816  32.382  54.763  0.00  0.00     0.305 A 
ATOM      3  O   UNL d   1      53.707  31.558  54.654  0.00  0.00    -0.273 OA
ATOM      4  C   UNL d   1      53.321  32.622  53.424  0.00  0.00     0.012 A 
ATOM      5  C   UNL d   1      53.410  31.273  53.944  0.00  0.00     0.103 A 
ATOM      6  C   UNL d   1      53.216  31.805  53.326  0.00  0.00     0.023 A 
ATOM      7  O   UNL d   1      54.114  32.665  55.477  0.00  0.00    -0.259 OA
ATOM      8  C   UNL d   1      53.298  30.458  53.825  0.00  0.00     0.023 A 
ATOM      9  C   UNL d   1      52.916  31.516  52.608  0.00  0.00     0.002 A 
ATOM     10  C   UNL d   1      52.810  30.701  52.506  0.00  0.00     0.000 A 
ATOM     11  C   UNL d   1      53.000  30.175  53.111  0.00  0.00     0.002 A 
ENDROOT
BRANCH   1  12
ATOM     12  C   UNL d   1      53.732  33.717  54.259  0.00  0.00     0.270 C 
ATOM     13  N   UNL d   1      53.086  34.228  54.254  0.00  0.00    -0.269 N 
ATOM     14  C   UNL d   1      53.193  35.038  54.361  0.00  0.00     0.102 C 
ATOM     15  C   UNL d   1      52.328  33.923  54.140  0.00  0.00     0.102 C 
ATOM     16  O   UNL d   1      54.488  34.023  54.373  0.00  0.00    -0.266 OA
ENDBRANCH   1  12
BRANCH   8  17
ATOM     17  C   UNL d   1      53.488  29.931  54.431  0.00  0.00     0.002 C 
BRANCH  17  18
ATOM     18  C   UNL d   1      53.315  29.129  54.351  0.00  0.00     0.000 C 
ATOM     19  C   UNL d   1      53.453  28.612  54.977  0.00  0.00     0.000 C 
ENDBRANCH  17  18
ENDBRANCH   8  17
TORSDOF 3
ENDMDL
MODEL 3
REMARK VINA RESULT:      -9.1      1.885      2.969
REMARK  3 active torsions:
REMARK  status: ('A' for Active; 'I' for Inactive)
REMARK    1  A    between atoms: C_4  and  C_1 
REMARK       I    between atoms: N_8  and  C_4 
REMARK    2  A    between atoms: C_15  and  C_11 
REMARK    3  A    between atoms: C_12  and  C_15 
ROOT
ATOM      1  C   UNL d   1      53.177  31.754  53.344  0.00  0.00     0.120 A 
ATOM      2  C   UNL d   1      52.597  32.345  53.314  0.00  0.00     0.305 A 
ATOM      3  O   UNL d   1      52.733  33.084  53.686  0.00  0.00    -0.273 OA
ATOM      4  C   UNL d   1      53.901  31.890  53.745  0.00  0.00     0.012 A 
ATOM      5  C   UNL d   1      53.440  33.221  54.080  0.00  0.00     0.103 A 
ATOM      6  C   UNL d   1      54.027  32.624  54.111  0.00  0.00     0.023 A 
ATOM      7  O   UNL d   1      51.886  32.211  52.920  0.00  0.00    -0.259 OA
ATOM      8  C   UNL d   1      53.585  33.951  54.453  0.00  0.00     0.023 A 
ATOM      9  C   UNL d   1      54.742  32.764  54.509  0.00  0.00     0.002 A 
ATOM     10  C   UNL d   1      54.871  33.495  54.875  0.00  0.00     0.000 A 
ATOM     11  C   UNL d   1      54.296  34.085  54.847  0.00  0.00     0.002 A 
ENDROOT
BRANCH   1  12
ATOM     12  C   UNL d   1      53.043  31.029  52.979  0.00  0.00     0.270 C 
ATOM     13  N   UNL d   1      53.006  30.338  53.425  0.00  0.00    -0.269 N 
ATOM     14  C   UNL d   1      52.871  29.612  53.059  0.00  0.00     0.102 C 
ATOM     15  C   UNL d   1      53.104  30.377  54.243  0.00  0.00     0.102 C 
ATOM     16  O   UNL d   1      52.944  30.990  52.162  0.00  0.00    -0.266 OA
ENDBRANCH   1  12
BRANCH   8  17
ATOM     17  C   UNL d   1      53.010  34.541  54.424  0.00  0.00     0.002 C 
BRANCH  17  18
ATOM     18  C   UNL d   1      53.199  35.312  54.645  0.00  0.00     0.000 C 
ATOM     19  C   UNL d   1      52.618  35.897  54.639  0.00  0.00     0.000 C 
ENDBRANCH  17  18
ENDBRANCH   8  17
TORSDOF 3
ENDMDL
MODEL 4
REMARK VINA RESULT:      -7.9      1.548      2.613
REMARK  3 active torsions:
REMARK  status: ('A' for Active; 'I' for Inactive)
REMARK    1  A    between atoms: C_4  and  C_1 
REMARK       I    between atoms: N_8  and  C_4 
REMARK    2  A    between atoms: C_15  and  C_11 
REMARK    3  A    between atoms: C_12  and  C_15 
ROOT
ATOM      1  C   UNL d   1      52.814  33.981  53.670  0.00  0.00     0.120 A 
ATOM      2  C   UNL d   1      52.207  33.422  53.584  0.00  0.00     0.305 A 
ATOM      3  O   UNL d   1      52.397  32.615  53.460  0.00  0.00    -0.273 OA
ATOM      4  C   UNL d   1      53.618  33.744  53.633  0.00  0.00     0.012 A 
ATOM      5  C   UNL d   1      53.182  32.379  53.424  0.00  0.00     0.103 A 
ATOM      6  C   UNL d   1      53.796  32.943  53.510  0.00  0.00     0.023 A 
ATOM      7  O   UNL d   1      51.418  33.656  53.621  0.00  0.00    -0.259 OA
ATOM      8  C   UNL d   1      53.382  31.581  53.301  0.00  0.00     0.023 A 
ATOM      9  C   UNL d   1      54.590  32.703  53.473  0.00  0.00     0.002 A 
ATOM     10  C   UNL d   1      54.771  31.905  53.350  0.00  0.00     0.000 A 
ATOM     11  C   UNL d   1      54.171  31.347  53.265  0.00  0.00     0.002 A 
ENDROOT
BRANCH   1  12
ATOM     12  C   UNL d   1      52.627  34.773  53.792  0.00  0.00     0.270 C 
ATOM     13  N   UNL d   1      52.831  35.146  54.497  0.00  0.00    -0.269 N 
ATOM     14  C   UNL d   1      52.644  35.939  54.619  0.00  0.00     0.102 C 
ATOM     15  C   UNL d   1      53.225  34.719  55.083  0.00  0.00     0.102 C 
ATOM     16  O   UNL d   1      52.234  35.200  53.207  0.00  0.00    -0.266 OA
ENDBRANCH   1  12
BRANCH   8  17
ATOM     17  C   UNL d   1      52.781  31.022  53.216  0.00  0.00     0.002 C 
BRANCH  17  18
ATOM     18  C   UNL d   1      52.964  30.219  53.190  0.00  0.00     0.000 C 
ATOM     19  C   UNL d   1      52.361  29.658  53.169  0.00  0.00     0.000 C 
ENDBRANCH  17  18
ENDBRANCH   8  17
TORSDOF 3
ENDMDL
MODEL 5
REMARK VINA RESULT:      -7.6      1.534      3.658
REMARK  3 active torsions:
REMARK  status: ('A' for Active; 'I' for Inactive)
REMARK    1  A    between atoms: C_4  and  C_1 
REMARK       I    between atoms: N_8  and  C_4 
REMARK    2  A    between atoms: C_15  and  C_11 
REMARK    3  A    between atoms: C_12  and  C_15 
ROOT
ATOM      1  C   UNL d   1      53.769  33.500  54.662  0.00  0.00     0.120 A 
ATOM      2  C   UNL d   1      53.223  34.123  54.641  0.00  0.00     0.305 A 
ATOM      3  O   UNL d   1      52.547  34.070  54.148  0.00  0.00    -0.273 OA
ATOM      4  C   UNL d   1      53.649  32.815  54.193  0.00  0.00     0.012 A 
ATOM      5  C   UNL d   1      52.426  33.401  53.688  0.00  0.00     0.103 A 
ATOM      6  C   UNL d   1      52.977  32.771  53.709  0.00  0.00     0.023 A 
ATOM      7  O   UNL d   1      53.342  34.796  55.101  0.00  0.00    -0.259 OA
ATOM      8  C   UNL d   1      51.758  33.338  53.196  0.00  0.00     0.023 A 
ATOM      9  C   UNL d   1      52.854  32.095  53.243  0.00  0.00     0.002 A 
ATOM     10  C   UNL d   1      52.184  32.047  52.759  0.00  0.00     0.000 A 
ATOM     11  C   UNL d   1      51.639  32.665  52.735  0.00  0.00     0.002 A 
ENDROOT
BRANCH   1  12
ATOM     12  C   UNL d   1      54.433  33.552  55.146  0.00  0.00     0.270 C 
ATOM     13  N   UNL d   1      55.176  33.692  54.820  0.00  0.00    -0.269 N 
ATOM     14  C   UNL d   1      55.841  33.745  55.304  0.00  0.00     0.102 C 
ATOM     15  C   UNL d   1      55.251  33.779  54.003  0.00  0.00     0.102 C 
ATOM     16  O   UNL d   1      54.358  33.466  55.962  0.00  0.00    -0.266 OA
ENDBRANCH   1  12
BRANCH   8  17
ATOM     17  C   UNL d   1      51.213  33.957  53.172  0.00  0.00     0.002 C 
BRANCH  17  18
ATOM     18  C   UNL d   1      50.598  33.945  52.623  0.00  0.00     0.000 C 
ATOM     19  C   UNL d   1      50.021  34.533  52.637  0.00  0.00     0.000 C 
ENDBRANCH  17  18
ENDBRANCH   8  17
TORSDOF 3
ENDMDL
