MODEL 1
REMARK VINA RESULT:      48.0      0.000      0.000
REMARK  5 active torsions:
REMARK  status: ('A' for Active; 'I' for Inactive)
REMARK    1  A    between atoms: N_2  and  S_1 
REMARK    2  A    between atoms: C_4  and  S_1 
REMARK    3  A    between atoms: C_5  and  C_9 
REMARK       I    between atoms: N_8  and  C_5 
REMARK    4  A    between atoms: C_17  and  N_8 
REMARK    5  A    between atoms: C_18  and  C_17 
ROOT
ATOM      1  C   UNL d   1      45.722 -18.387  40.800  0.00  0.00     0.104 A 
ATOM      2  C   UNL d   1      45.185 -17.673  39.478  0.00  0.00     0.058 A 
ATOM      3  C   UNL d   1      46.239 -18.187  40.220  0.00  0.00     0.013 A 
ATOM      4  C   UNL d   1      44.925 -18.230  40.724  0.00  0.00     0.013 A 
ATOM      5  C   UNL d   1      45.969 -17.829  39.557  0.00  0.00     0.005 A 
ATOM      6  C   UNL d   1      44.669 -17.869  40.050  0.00  0.00     0.005 A 
ENDROOT
BRANCH   1   7
ATOM      7  S   UNL d   1      45.984 -18.746  41.470  0.00  0.00     0.271 S 
ATOM      8  O   UNL d   1      46.647 -18.980  41.103  0.00  0.00    -0.200 OA
ATOM      9  O   UNL d   1      45.174 -18.438  41.845  0.00  0.00    -0.200 OA
BRANCH   7  10
ATOM     10  N   UNL d   1      46.192 -19.111  42.239  0.00  0.00    -0.231 N 
ATOM     11  C   UNL d   1      46.262 -18.596  42.946  0.00  0.00     0.075 A 
ATOM     12  C   UNL d   1      46.470 -18.954  43.717  0.00  0.00     0.017 A 
ATOM     13  C   UNL d   1      46.131 -17.743  42.901  0.00  0.00     0.018 A 
ATOM     14  C   UNL d   1      46.544 -18.458  44.432  0.00  0.00     0.002 A 
ATOM     15  C   UNL d   1      46.608 -19.823  43.782  0.00  0.00     0.003 A 
ATOM     16  C   UNL d   1      46.411 -17.604  44.375  0.00  0.00     0.000 A 
ATOM     17  C   UNL d   1      46.202 -17.240  43.605  0.00  0.00     0.002 A 
ATOM     18  C   UNL d   1      46.535 -20.324  43.072  0.00  0.00     0.020 A 
ATOM     19  C   UNL d   1      46.326 -19.965  42.296  0.00  0.00     0.092 A 
ENDBRANCH   7  10
ENDBRANCH   1   7
BRANCH   2  20
ATOM     20  C   UNL d   1      44.915 -17.312  38.807  0.00  0.00     0.279 C 
ATOM     21  N   UNL d   1      45.326 -16.694  38.490  0.00  0.00    -0.206 NA
ATOM     22  O   UNL d   1      44.244 -17.560  38.454  0.00  0.00    -0.265 OA
BRANCH  21  23
ATOM     23  C   UNL d   1      45.062 -16.334  37.826  0.00  0.00     0.102 C 
BRANCH  23  24
ATOM     24  C   UNL d   1      45.467 -15.691  37.507  0.00  0.00     0.019 A 
ATOM     25  C   UNL d   1      45.086 -15.206  36.964  0.00  0.00     0.002 A 
ATOM     26  C   UNL d   1      45.485 -14.561  36.641  0.00  0.00     0.000 A 
ATOM     27  C   UNL d   1      46.275 -14.401  36.865  0.00  0.00     0.000 A 
ATOM     28  C   UNL d   1      46.647 -14.895  37.410  0.00  0.00     0.000 A 
ATOM     29  C   UNL d   1      46.243 -15.543  37.734  0.00  0.00     0.002 A 
ENDBRANCH  23  24
ENDBRANCH  21  23
ENDBRANCH   2  20
TORSDOF 5
ENDMDL
