MODEL 1
REMARK VINA RESULT:      15.1      0.000      0.000
REMARK  1 active torsions:
REMARK  status: ('A' for Active; 'I' for Inactive)
REMARK    1  A    between atoms: C_7  and  C_3 
ROOT
ATOM      1  C   UNL d   1     -52.885  24.480  33.458  0.00  0.00     0.179 A 
ATOM      2  N   UNL d   1     -52.592  25.232  33.483  0.00  0.00    -0.221 NA
ATOM      3  C   UNL d   1     -51.771  25.206  33.398  0.00  0.00     0.101 A 
ATOM      4  N   UNL d   1     -52.251  23.976  33.357  0.00  0.00    -0.282 N 
ATOM      5  C   UNL d   1     -51.572  24.435  33.322  0.00  0.00     0.101 A 
ATOM      6  S   UNL d   1     -53.564  24.003  33.491  0.00  0.00    -0.048 SA
ATOM      7  C   UNL d   1     -52.541  23.195  33.330  0.00  0.00     0.089 A 
ATOM      8  C   UNL d   1     -53.339  23.196  33.410  0.00  0.00     0.057 A 
ENDROOT
BRANCH   3   9
ATOM      9  C   UNL d   1     -51.222  25.823  33.387  0.00  0.00     0.019 A 
ATOM     10  C   UNL d   1     -51.461  26.606  33.442  0.00  0.00     0.002 A 
ATOM     11  C   UNL d   1     -50.911  27.227  33.432  0.00  0.00     0.011 A 
ATOM     12  C   UNL d   1     -50.130  27.064  33.367  0.00  0.00     0.058 A 
ATOM     13  C   UNL d   1     -49.861  26.260  33.309  0.00  0.00     0.011 A 
ATOM     14 CL   UNL d   1     -49.570  27.696  33.356  0.00  0.00    -0.082 Cl
ATOM     15  C   UNL d   1     -50.418  25.649  33.320  0.00  0.00     0.002 A 
ENDBRANCH   3   9
TORSDOF 1
ENDMDL
MODEL 2
REMARK VINA RESULT:      16.7      2.244      3.628
REMARK  1 active torsions:
REMARK  status: ('A' for Active; 'I' for Inactive)
REMARK    1  A    between atoms: C_7  and  C_3 
ROOT
ATOM      1  C   UNL d   1     -50.501  25.731  33.419  0.00  0.00     0.179 A 
ATOM      2  N   UNL d   1     -51.300  25.615  33.446  0.00  0.00    -0.221 NA
ATOM      3  C   UNL d   1     -51.458  24.806  33.388  0.00  0.00     0.101 A 
ATOM      4  N   UNL d   1     -50.153  24.998  33.342  0.00  0.00    -0.282 N 
ATOM      5  C   UNL d   1     -50.752  24.438  33.324  0.00  0.00     0.101 A 
ATOM      6  S   UNL d   1     -49.885  26.287  33.435  0.00  0.00    -0.048 SA
ATOM      7  C   UNL d   1     -49.326  25.104  33.312  0.00  0.00     0.089 A 
ATOM      8  C   UNL d   1     -49.148  25.885  33.368  0.00  0.00     0.057 A 
ENDROOT
BRANCH   3   9
ATOM      9  C   UNL d   1     -52.182  24.409  33.389  0.00  0.00     0.019 A 
ATOM     10  C   UNL d   1     -52.218  23.591  33.456  0.00  0.00     0.002 A 
ATOM     11  C   UNL d   1     -52.945  23.191  33.458  0.00  0.00     0.011 A 
ATOM     12  C   UNL d   1     -53.627  23.604  33.393  0.00  0.00     0.058 A 
ATOM     13  C   UNL d   1     -53.611  24.451  33.322  0.00  0.00     0.011 A 
ATOM     14 CL   UNL d   1     -54.366  23.197  33.394  0.00  0.00    -0.082 Cl
ATOM     15  C   UNL d   1     -52.882  24.841  33.321  0.00  0.00     0.002 A 
ENDBRANCH   3   9
TORSDOF 1
ENDMDL
