MODEL 1
REMARK VINA RESULT:      50.8      0.000      0.000
REMARK  6 active torsions:
REMARK  status: ('A' for Active; 'I' for Inactive)
REMARK    1  A    between atoms: C_2  and  C_1 
REMARK    2  A    between atoms: C_3  and  C_1 
REMARK    3  A    between atoms: N_4  and  C_1 
REMARK       I    between atoms: N_9  and  C_2 
REMARK    4  A    between atoms: C_7  and  C_3 
REMARK       I    between atoms: C_8  and  N_4 
REMARK    5  A    between atoms: C_14  and  C_5 
REMARK    6  A    between atoms: C_15  and  C_8 
ROOT
ATOM      1  C   UNL d   1      13.812  13.068  -2.932  0.00  0.00     0.143 C 
ENDROOT
BRANCH   1   2
ATOM      2  C   UNL d   1      13.304  12.527  -3.301  0.00  0.00     0.283 C 
ATOM      3  N   UNL d   1      13.325  12.423  -4.119  0.00  0.00    -0.267 N 
ATOM      4  C   UNL d   1      13.858  12.863  -4.575  0.00  0.00     0.110 A 
ATOM      5  C   UNL d   1      12.823  11.888  -4.485  0.00  0.00     0.110 A 
ATOM      6  C   UNL d   1      13.880  12.759  -5.398  0.00  0.00     0.142 A 
ATOM      7  O   UNL d   1      13.372  12.219  -5.754  0.00  0.00    -0.300 OA
ATOM      8  C   UNL d   1      12.842  11.782  -5.294  0.00  0.00     0.142 A 
ATOM      9  O   UNL d   1      12.772  12.088  -2.840  0.00  0.00    -0.265 OA
ENDBRANCH   1   2
BRANCH   1  10
ATOM     10  C   UNL d   1      13.439  13.802  -2.872  0.00  0.00     0.049 C 
BRANCH  10  11
ATOM     11  C   UNL d   1      13.889  14.495  -2.840  0.00  0.00     0.102 A 
ATOM     12  O   UNL d   1      14.096  14.903  -2.166  0.00  0.00    -0.307 OA
ATOM     13  C   UNL d   1      14.547  15.560  -2.402  0.00  0.00     0.100 A 
ATOM     14  C   UNL d   1      14.610  15.545  -3.221  0.00  0.00     0.027 A 
ATOM     15  C   UNL d   1      14.168  14.827  -3.539  0.00  0.00     0.027 A 
BRANCH  13  16
ATOM     16  C   UNL d   1      14.868  16.121  -1.892  0.00  0.00     0.023 A 
ATOM     17  C   UNL d   1      14.978  16.894  -2.164  0.00  0.00     0.002 A 
ATOM     18  C   UNL d   1      15.299  17.467  -1.662  0.00  0.00     0.000 A 
ATOM     19  C   UNL d   1      15.510  17.263  -0.888  0.00  0.00     0.000 A 
ATOM     20  C   UNL d   1      15.400  16.489  -0.615  0.00  0.00     0.000 A 
ATOM     21  C   UNL d   1      15.081  15.923  -1.115  0.00  0.00     0.002 A 
ENDBRANCH  13  16
ENDBRANCH  10  11
ENDBRANCH   1  10
BRANCH   1  22
ATOM     22  N   UNL d   1      14.576  12.972  -2.642  0.00  0.00    -0.203 NA
ATOM     23  C   UNL d   1      14.969  12.703  -1.971  0.00  0.00     0.279 C 
ATOM     24  O   UNL d   1      15.799  12.724  -1.953  0.00  0.00    -0.265 OA
BRANCH  23  25
ATOM     25  C   UNL d   1      14.554  12.416  -1.324  0.00  0.00     0.058 A 
ATOM     26  C   UNL d   1      13.730  12.446  -1.326  0.00  0.00     0.005 A 
ATOM     27  C   UNL d   1      13.311  12.158  -0.677  0.00  0.00     0.000 A 
ATOM     28  C   UNL d   1      13.711  11.842  -0.028  0.00  0.00     0.000 A 
ATOM     29  C   UNL d   1      14.540  11.815  -0.033  0.00  0.00     0.000 A 
ATOM     30  C   UNL d   1      14.957  12.103  -0.682  0.00  0.00     0.005 A 
ENDBRANCH  23  25
ENDBRANCH   1  22
TORSDOF 6
ENDMDL
MODEL 2
REMARK VINA RESULT:      52.3      1.046      1.359
REMARK  6 active torsions:
REMARK  status: ('A' for Active; 'I' for Inactive)
REMARK    1  A    between atoms: C_2  and  C_1 
REMARK    2  A    between atoms: C_3  and  C_1 
REMARK    3  A    between atoms: N_4  and  C_1 
REMARK       I    between atoms: N_9  and  C_2 
REMARK    4  A    between atoms: C_7  and  C_3 
REMARK       I    between atoms: C_8  and  N_4 
REMARK    5  A    between atoms: C_14  and  C_5 
REMARK    6  A    between atoms: C_15  and  C_8 
ROOT
ATOM      1  C   UNL d   1      13.804  12.945  -3.067  0.00  0.00     0.143 C 
ENDROOT
BRANCH   1   2
ATOM      2  C   UNL d   1      13.355  12.423  -3.529  0.00  0.00     0.283 C 
ATOM      3  N   UNL d   1      13.486  12.362  -4.340  0.00  0.00    -0.267 N 
ATOM      4  C   UNL d   1      14.071  12.827  -4.698  0.00  0.00     0.110 A 
ATOM      5  C   UNL d   1      13.042  11.846  -4.797  0.00  0.00     0.110 A 
ATOM      6  C   UNL d   1      14.202  12.766  -5.514  0.00  0.00     0.142 A 
ATOM      7  O   UNL d   1      13.751  12.245  -5.963  0.00  0.00    -0.300 OA
ATOM      8  C   UNL d   1      13.168  11.784  -5.601  0.00  0.00     0.142 A 
ATOM      9  O   UNL d   1      12.770  11.960  -3.165  0.00  0.00    -0.265 OA
ENDBRANCH   1   2
BRANCH   1  10
ATOM     10  C   UNL d   1      13.360  13.620  -2.898  0.00  0.00     0.049 C 
BRANCH  10  11
ATOM     11  C   UNL d   1      13.487  14.318  -3.322  0.00  0.00     0.102 A 
ATOM     12  O   UNL d   1      14.137  14.805  -3.260  0.00  0.00    -0.307 OA
ATOM     13  C   UNL d   1      14.025  15.436  -3.790  0.00  0.00     0.100 A 
ATOM     14  C   UNL d   1      13.305  15.326  -4.169  0.00  0.00     0.027 A 
ATOM     15  C   UNL d   1      12.923  14.569  -3.865  0.00  0.00     0.027 A 
BRANCH  13  16
ATOM     16  C   UNL d   1      14.553  16.058  -3.902  0.00  0.00     0.023 A 
ATOM     17  C   UNL d   1      14.935  16.131  -4.633  0.00  0.00     0.002 A 
ATOM     18  C   UNL d   1      15.467  16.750  -4.760  0.00  0.00     0.000 A 
ATOM     19  C   UNL d   1      15.617  17.294  -4.154  0.00  0.00     0.000 A 
ATOM     20  C   UNL d   1      15.235  17.221  -3.424  0.00  0.00     0.000 A 
ATOM     21  C   UNL d   1      14.707  16.606  -3.300  0.00  0.00     0.002 A 
ENDBRANCH  13  16
ENDBRANCH  10  11
ENDBRANCH   1  10
BRANCH   1  22
ATOM     22  N   UNL d   1      14.574  12.879  -2.781  0.00  0.00    -0.203 NA
ATOM     23  C   UNL d   1      14.979  12.638  -2.106  0.00  0.00     0.279 C 
ATOM     24  O   UNL d   1      15.808  12.684  -2.096  0.00  0.00    -0.265 OA
BRANCH  23  25
ATOM     25  C   UNL d   1      14.578  12.356  -1.449  0.00  0.00     0.058 A 
ATOM     26  C   UNL d   1      13.811  12.063  -1.538  0.00  0.00     0.005 A 
ATOM     27  C   UNL d   1      13.407  11.779  -0.878  0.00  0.00     0.000 A 
ATOM     28  C   UNL d   1      13.762  11.787  -0.134  0.00  0.00     0.000 A 
ATOM     29  C   UNL d   1      14.533  12.083  -0.052  0.00  0.00     0.000 A 
ATOM     30  C   UNL d   1      14.936  12.366  -0.712  0.00  0.00     0.005 A 
ENDBRANCH  23  25
ENDBRANCH   1  22
TORSDOF 6
ENDMDL
