MODEL 1
REMARK VINA RESULT:      42.9      0.000      0.000
REMARK  3 active torsions:
REMARK  status: ('A' for Active; 'I' for Inactive)
REMARK    1  A    between atoms: C_10  and  C_4 
REMARK    2  A    between atoms: C_11  and  C_7 
REMARK    3  A    between atoms: C_12  and  C_10 
ROOT
ATOM      1  N   UNL d   1     -55.955 -99.250 -44.517  0.00  0.00    -0.186 N 
ATOM      2  N   UNL d   1     -56.655 -99.218 -44.059  0.00  0.00    -0.162 NA
ATOM      3  C   UNL d   1     -55.986 -99.032 -45.320  0.00  0.00     0.217 A 
ATOM      4  C   UNL d   1     -55.188 -99.464 -44.340  0.00  0.00     0.187 A 
ATOM      5  N   UNL d   1     -54.733 -99.384 -45.020  0.00  0.00    -0.127 NA
ATOM      6  N   UNL d   1     -55.224 -99.120 -45.616  0.00  0.00    -0.120 NA
ATOM      7  C   UNL d   1     -57.362 -98.975 -44.398  0.00  0.00     0.108 A 
ATOM      8  S   UNL d   1     -56.702 -98.791 -45.641  0.00  0.00    -0.045 SA
ATOM      9  C   UNL d   1     -57.393 -98.756 -45.202  0.00  0.00     0.059 A 
ENDROOT
BRANCH   4  10
ATOM     10  C   UNL d   1     -54.897 -99.717 -43.622  0.00  0.00     0.041 C 
BRANCH  10  11
ATOM     11  C   UNL d   1     -54.839-100.511 -43.469  0.00  0.00     0.003 A 
ATOM     12  C   UNL d   1     -54.793-100.787 -42.696  0.00  0.00     0.000 A 
ATOM     13  C   UNL d   1     -54.734-101.593 -42.530  0.00  0.00     0.000 A 
ATOM     14  C   UNL d   1     -54.721-102.123 -43.149  0.00  0.00     0.000 A 
ATOM     15  C   UNL d   1     -54.766-101.851 -43.922  0.00  0.00     0.000 A 
ATOM     16  C   UNL d   1     -54.825-101.057 -44.088  0.00  0.00     0.000 A 
ENDBRANCH  10  11
ENDBRANCH   4  10
BRANCH   7  17
ATOM     17  C   UNL d   1     -58.051 -98.947 -43.937  0.00  0.00     0.020 A 
ATOM     18  C   UNL d   1     -57.997 -98.832 -43.116  0.00  0.00     0.002 A 
ATOM     19  C   UNL d   1     -58.682 -98.802 -42.643  0.00  0.00     0.000 A 
ATOM     20  C   UNL d   1     -59.431 -98.889 -43.006  0.00  0.00     0.000 A 
ATOM     21  C   UNL d   1     -59.489 -99.001 -43.813  0.00  0.00     0.000 A 
ATOM     22  C   UNL d   1     -58.800 -99.032 -44.287  0.00  0.00     0.002 A 
ENDBRANCH   7  17
TORSDOF 3
ENDMDL
