MODEL 1
REMARK VINA RESULT:      21.5      0.000      0.000
REMARK  4 active torsions:
REMARK  status: ('A' for Active; 'I' for Inactive)
REMARK    1  A    between atoms: N_2  and  S_1 
REMARK    2  A    between atoms: C_5  and  S_1 
REMARK    3  A    between atoms: C_4  and  N_2 
REMARK    4  A    between atoms: C_7  and  C_3 
ROOT
ATOM      1  S   UNL d   1      45.715 -16.263  44.453  0.00  0.00     0.285 S 
ATOM      2  O   UNL d   1      46.499 -15.968  44.351  0.00  0.00    -0.198 OA
ATOM      3  O   UNL d   1      44.923 -16.557  44.558  0.00  0.00    -0.198 OA
ENDROOT
BRANCH   1   4
ATOM      4  N   UNL d   1      45.534 -15.610  44.955  0.00  0.00    -0.158 NA
BRANCH   4   5
ATOM      5  C   UNL d   1      45.334 -14.854  44.638  0.00  0.00     0.094 A 
ATOM      6  C   UNL d   1      45.908 -14.345  44.462  0.00  0.00     0.018 A 
ATOM      7  C   UNL d   1      45.763 -13.592  44.149  0.00  0.00     0.002 A 
ATOM      8  C   UNL d   1      46.647 -14.600  44.603  0.00  0.00     0.002 C 
ATOM      9  C   UNL d   1      44.954 -13.364  44.015  0.00  0.00     0.000 A 
ATOM     10  C   UNL d   1      44.405 -13.911  44.208  0.00  0.00     0.002 A 
ATOM     11  C   UNL d   1      44.706 -12.646  43.711  0.00  0.00     0.000 C 
ATOM     12  C   UNL d   1      44.544 -14.668  44.522  0.00  0.00     0.018 A 
ATOM     13  C   UNL d   1      43.943 -15.171  44.695  0.00  0.00     0.002 C 
ENDBRANCH   4   5
ENDBRANCH   1   4
BRANCH   1  14
ATOM     14  C   UNL d   1      45.901 -16.924  43.943  0.00  0.00     0.106 A 
ATOM     15  C   UNL d   1      46.024 -17.661  44.309  0.00  0.00     0.020 A 
ATOM     16  C   UNL d   1      46.204 -18.310  43.832  0.00  0.00     0.076 A 
ATOM     17  C   UNL d   1      46.261 -18.232  43.013  0.00  0.00     0.064 A 
ATOM     18  C   UNL d   1      46.139 -17.504  42.655  0.00  0.00     0.012 A 
ATOM     19 CL   UNL d   1      46.443 -18.896  42.543  0.00  0.00    -0.082 Cl
ATOM     20  C   UNL d   1      45.960 -16.842  43.085  0.00  0.00     0.014 A 
BRANCH  16  21
ATOM     21  C   UNL d   1      46.329 -19.054  44.198  0.00  0.00     0.212 C 
ATOM     22  O   UNL d   1      46.616 -19.005  44.955  0.00  0.00    -0.644 OA
ATOM     23  O   UNL d   1      46.157 -19.780  43.776  0.00  0.00    -0.644 OA
ENDBRANCH  16  21
ENDBRANCH   1  14
TORSDOF 4
ENDMDL
MODEL 2
REMARK VINA RESULT:      23.6      1.035      1.633
REMARK  4 active torsions:
REMARK  status: ('A' for Active; 'I' for Inactive)
REMARK    1  A    between atoms: N_2  and  S_1 
REMARK    2  A    between atoms: C_5  and  S_1 
REMARK    3  A    between atoms: C_4  and  N_2 
REMARK    4  A    between atoms: C_7  and  C_3 
ROOT
ATOM      1  S   UNL d   1      45.562 -15.808  44.693  0.00  0.00     0.285 S 
ATOM      2  O   UNL d   1      46.364 -15.560  44.775  0.00  0.00    -0.198 OA
ATOM      3  O   UNL d   1      44.751 -16.054  44.612  0.00  0.00    -0.198 OA
ENDROOT
BRANCH   1   4
ATOM      4  N   UNL d   1      45.301 -15.050  44.955  0.00  0.00    -0.158 NA
BRANCH   4   5
ATOM      5  C   UNL d   1      45.267 -14.391  44.429  0.00  0.00     0.094 A 
ATOM      6  C   UNL d   1      44.590 -14.218  44.068  0.00  0.00     0.018 A 
ATOM      7  C   UNL d   1      44.506 -13.584  43.544  0.00  0.00     0.002 A 
ATOM      8  C   UNL d   1      43.979 -14.699  44.239  0.00  0.00     0.002 C 
ATOM      9  C   UNL d   1      45.188 -13.098  43.393  0.00  0.00     0.000 A 
ATOM     10  C   UNL d   1      45.854 -13.309  43.780  0.00  0.00     0.002 A 
ATOM     11  C   UNL d   1      45.210 -12.451  42.894  0.00  0.00     0.000 C 
ATOM     12  C   UNL d   1      45.945 -13.945  44.307  0.00  0.00     0.018 A 
ATOM     13  C   UNL d   1      46.646 -14.102  44.664  0.00  0.00     0.002 C 
ENDBRANCH   4   5
ENDBRANCH   1   4
BRANCH   1  14
ATOM     14  C   UNL d   1      45.829 -16.576  44.429  0.00  0.00     0.106 A 
ATOM     15  C   UNL d   1      45.648 -16.790  43.645  0.00  0.00     0.020 A 
ATOM     16  C   UNL d   1      45.898 -17.528  43.374  0.00  0.00     0.076 A 
ATOM     17  C   UNL d   1      46.318 -18.041  43.865  0.00  0.00     0.064 A 
ATOM     18  C   UNL d   1      46.495 -17.827  44.637  0.00  0.00     0.012 A 
ATOM     19 CL   UNL d   1      46.564 -18.784  43.576  0.00  0.00    -0.082 Cl
ATOM     20  C   UNL d   1      46.268 -17.113  44.943  0.00  0.00     0.014 A 
BRANCH  16  21
ATOM     21  C   UNL d   1      45.717 -17.747  42.585  0.00  0.00     0.212 C 
ATOM     22  O   UNL d   1      46.311 -17.592  42.055  0.00  0.00    -0.644 OA
ATOM     23  O   UNL d   1      44.961 -18.102  42.395  0.00  0.00    -0.644 OA
ENDBRANCH  16  21
ENDBRANCH   1  14
TORSDOF 4
ENDMDL
