MODEL 1
REMARK VINA RESULT:      -0.3      0.000      0.000
REMARK  6 active torsions:
REMARK  status: ('A' for Active; 'I' for Inactive)
REMARK    1  A    between atoms: N_6  and  C_1 
REMARK    2  A    between atoms: C_7  and  C_2 
REMARK       I    between atoms: C_8  and  N_6 
REMARK    3  A    between atoms: O_14  and  C_7 
REMARK    4  A    between atoms: C_10  and  C_8 
REMARK    5  A    between atoms: N_9  and  C_10 
REMARK    6  A    between atoms: C_21  and  O_14 
ROOT
ATOM      1  C   UNL d   1     -41.377-122.797 -51.419  0.00  0.00     0.119 A 
ATOM      2  C   UNL d   1     -41.802-122.247 -50.976  0.00  0.00     0.088 A 
ATOM      3  S   UNL d   1     -41.249-123.459 -50.967  0.00  0.00    -0.068 SA
ATOM      4  C   UNL d   1     -41.937-122.579 -50.241  0.00  0.00     0.013 A 
ATOM      5  C   UNL d   1     -41.592-123.334 -50.235  0.00  0.00     0.031 A 
ATOM      6  C   UNL d   1     -42.324-122.314 -49.560  0.00  0.00     0.001 A 
ATOM      7  C   UNL d   1     -41.639-123.815 -49.548  0.00  0.00     0.006 A 
ATOM      8  C   UNL d   1     -42.376-122.769 -48.893  0.00  0.00     0.000 A 
ATOM      9  C   UNL d   1     -42.031-123.524 -48.887  0.00  0.00     0.001 A 
ENDROOT
BRANCH   1  10
ATOM     10  N   UNL d   1     -41.123-122.688 -52.197  0.00  0.00    -0.200 NA
ATOM     11  C   UNL d   1     -41.388-123.177 -52.806  0.00  0.00     0.297 C 
ATOM     12  O   UNL d   1     -41.916-123.779 -52.608  0.00  0.00    -0.264 OA
BRANCH  11  13
ATOM     13  C   UNL d   1     -41.123-123.051 -53.577  0.00  0.00     0.144 C 
BRANCH  13  14
ATOM     14  N   UNL d   1     -41.698-122.921 -54.158  0.00  0.00    -0.295 N 
ATOM     15  C   UNL d   1     -41.881-122.140 -54.370  0.00  0.00     0.107 A 
ATOM     16  C   UNL d   1     -42.453-122.004 -54.949  0.00  0.00     0.142 A 
ATOM     17  O   UNL d   1     -42.838-122.620 -55.312  0.00  0.00    -0.300 OA
ATOM     18  C   UNL d   1     -42.655-123.401 -55.101  0.00  0.00     0.142 A 
ATOM     19  C   UNL d   1     -42.094-123.538 -54.534  0.00  0.00     0.107 A 
ENDBRANCH  13  14
ENDBRANCH  11  13
ENDBRANCH   1  10
BRANCH   2  20
ATOM     20  C   UNL d   1     -42.057-121.488 -51.217  0.00  0.00     0.302 C 
ATOM     21  O   UNL d   1     -42.855-121.277 -51.098  0.00  0.00    -0.259 OA
BRANCH  20  22
ATOM     22  O   UNL d   1     -41.526-120.970 -51.563  0.00  0.00    -0.271 OA
BRANCH  22  23
ATOM     23  C   UNL d   1     -41.705-120.174 -51.626  0.00  0.00     0.126 C 
ATOM     24  C   UNL d   1     -41.123-119.640 -51.855  0.00  0.00     0.029 C 
ENDBRANCH  22  23
ENDBRANCH  20  22
ENDBRANCH   2  20
TORSDOF 6
ENDMDL
MODEL 2
REMARK VINA RESULT:       1.0      1.508      2.144
REMARK  6 active torsions:
REMARK  status: ('A' for Active; 'I' for Inactive)
REMARK    1  A    between atoms: N_6  and  C_1 
REMARK    2  A    between atoms: C_7  and  C_2 
REMARK       I    between atoms: C_8  and  N_6 
REMARK    3  A    between atoms: O_14  and  C_7 
REMARK    4  A    between atoms: C_10  and  C_8 
REMARK    5  A    between atoms: N_9  and  C_10 
REMARK    6  A    between atoms: C_21  and  O_14 
ROOT
ATOM      1  C   UNL d   1     -42.221-123.557 -50.104  0.00  0.00     0.119 A 
ATOM      2  C   UNL d   1     -42.789-123.251 -49.590  0.00  0.00     0.088 A 
ATOM      3  S   UNL d   1     -41.522-123.647 -49.702  0.00  0.00    -0.068 SA
ATOM      4  C   UNL d   1     -42.430-123.152 -48.862  0.00  0.00     0.013 A 
ATOM      5  C   UNL d   1     -41.641-123.400 -48.932  0.00  0.00     0.031 A 
ATOM      6  C   UNL d   1     -42.696-122.873 -48.130  0.00  0.00     0.001 A 
ATOM      7  C   UNL d   1     -41.127-123.364 -48.268  0.00  0.00     0.006 A 
ATOM      8  C   UNL d   1     -42.210-122.834 -47.485  0.00  0.00     0.000 A 
ATOM      9  C   UNL d   1     -41.420-123.082 -47.554  0.00  0.00     0.001 A 
ENDROOT
BRANCH   1  10
ATOM     10  N   UNL d   1     -42.348-123.740 -50.898  0.00  0.00    -0.200 NA
ATOM     11  C   UNL d   1     -41.804-123.526 -51.480  0.00  0.00     0.297 C 
ATOM     12  O   UNL d   1     -41.128-123.120 -51.237  0.00  0.00    -0.264 OA
BRANCH  11  13
ATOM     13  C   UNL d   1     -41.949-123.718 -52.269  0.00  0.00     0.144 C 
BRANCH  13  14
ATOM     14  N   UNL d   1     -41.770-123.145 -52.837  0.00  0.00    -0.295 N 
ATOM     15  C   UNL d   1     -42.084-122.382 -52.746  0.00  0.00     0.107 A 
ATOM     16  C   UNL d   1     -41.908-121.805 -53.310  0.00  0.00     0.142 A 
ATOM     17  O   UNL d   1     -41.436-121.972 -53.949  0.00  0.00    -0.300 OA
ATOM     18  C   UNL d   1     -41.123-122.735 -54.040  0.00  0.00     0.142 A 
ATOM     19  C   UNL d   1     -41.292-123.302 -53.489  0.00  0.00     0.107 A 
ENDBRANCH  13  14
ENDBRANCH  11  13
ENDBRANCH   1  10
BRANCH   2  20
ATOM     20  C   UNL d   1     -43.586-123.068 -49.765  0.00  0.00     0.302 C 
ATOM     21  O   UNL d   1     -44.152-123.681 -49.737  0.00  0.00    -0.259 OA
BRANCH  20  22
ATOM     22  O   UNL d   1     -43.797-122.302 -49.958  0.00  0.00    -0.271 OA
BRANCH  22  23
ATOM     23  C   UNL d   1     -44.381-122.160 -50.512  0.00  0.00     0.126 C 
ATOM     24  C   UNL d   1     -44.959-121.594 -50.364  0.00  0.00     0.029 C 
ENDBRANCH  22  23
ENDBRANCH  20  22
ENDBRANCH   2  20
TORSDOF 6
ENDMDL
MODEL 3
REMARK VINA RESULT:       1.1      1.678      4.567
REMARK  6 active torsions:
REMARK  status: ('A' for Active; 'I' for Inactive)
REMARK    1  A    between atoms: N_6  and  C_1 
REMARK    2  A    between atoms: C_7  and  C_2 
REMARK       I    between atoms: C_8  and  N_6 
REMARK    3  A    between atoms: O_14  and  C_7 
REMARK    4  A    between atoms: C_10  and  C_8 
REMARK    5  A    between atoms: N_9  and  C_10 
REMARK    6  A    between atoms: C_21  and  O_14 
ROOT
ATOM      1  C   UNL d   1     -41.571-122.484 -51.078  0.00  0.00     0.119 A 
ATOM      2  C   UNL d   1     -41.488-122.466 -51.898  0.00  0.00     0.088 A 
ATOM      3  S   UNL d   1     -41.497-121.729 -50.788  0.00  0.00    -0.068 SA
ATOM      4  C   UNL d   1     -41.361-121.687 -52.113  0.00  0.00     0.013 A 
ATOM      5  C   UNL d   1     -41.367-121.228 -51.421  0.00  0.00     0.031 A 
ATOM      6  C   UNL d   1     -41.238-121.310 -52.839  0.00  0.00     0.001 A 
ATOM      7  C   UNL d   1     -41.249-120.397 -51.464  0.00  0.00     0.006 A 
ATOM      8  C   UNL d   1     -41.124-120.510 -52.892  0.00  0.00     0.000 A 
ATOM      9  C   UNL d   1     -41.130-120.051 -52.200  0.00  0.00     0.001 A 
ENDROOT
BRANCH   1  10
ATOM     10  N   UNL d   1     -41.707-123.162 -50.629  0.00  0.00    -0.200 NA
ATOM     11  C   UNL d   1     -41.760-123.127 -49.807  0.00  0.00     0.297 C 
ATOM     12  O   UNL d   1     -41.672-122.389 -49.450  0.00  0.00    -0.264 OA
BRANCH  11  13
ATOM     13  C   UNL d   1     -41.897-123.817 -49.375  0.00  0.00     0.144 C 
BRANCH  13  14
ATOM     14  N   UNL d   1     -42.073-123.732 -48.571  0.00  0.00    -0.295 N 
ATOM     15  C   UNL d   1     -42.867-123.769 -48.331  0.00  0.00     0.107 A 
ATOM     16  C   UNL d   1     -43.049-123.685 -47.530  0.00  0.00     0.142 A 
ATOM     17  O   UNL d   1     -42.467-123.567 -46.977  0.00  0.00    -0.300 OA
ATOM     18  C   UNL d   1     -41.673-123.530 -47.217  0.00  0.00     0.142 A 
ATOM     19  C   UNL d   1     -41.492-123.612 -48.001  0.00  0.00     0.107 A 
ENDBRANCH  13  14
ENDBRANCH  11  13
ENDBRANCH   1  10
BRANCH   2  20
ATOM     20  C   UNL d   1     -41.524-123.113 -52.427  0.00  0.00     0.302 C 
ATOM     21  O   UNL d   1     -41.123-123.816 -52.226  0.00  0.00    -0.259 OA
BRANCH  20  22
ATOM     22  O   UNL d   1     -41.946-123.047 -53.125  0.00  0.00    -0.271 OA
BRANCH  22  23
ATOM     23  C   UNL d   1     -41.861-123.606 -53.715  0.00  0.00     0.126 C 
ATOM     24  C   UNL d   1     -42.190-123.474 -54.457  0.00  0.00     0.029 C 
ENDBRANCH  22  23
ENDBRANCH  20  22
ENDBRANCH   2  20
TORSDOF 6
ENDMDL
