MODEL 1
REMARK VINA RESULT:      15.5      0.000      0.000
REMARK  3 active torsions:
REMARK  status: ('A' for Active; 'I' for Inactive)
REMARK    1  A    between atoms: N_2  and  S_1 
REMARK    2  A    between atoms: C_4  and  S_1 
REMARK    3  A    between atoms: C_3  and  N_2 
ROOT
ATOM      1  N   UNL d   1      45.961 -17.351  44.807  0.00  0.00    -0.157 NA
ENDROOT
BRANCH   1   2
ATOM      2  S   UNL d   1      45.825 -16.539  44.761  0.00  0.00     0.285 S 
ATOM      3  O   UNL d   1      46.618 -16.417  44.570  0.00  0.00    -0.198 OA
ATOM      4  O   UNL d   1      45.025 -16.654  44.953  0.00  0.00    -0.198 OA
BRANCH   2   5
ATOM      5  C   UNL d   1      45.688 -15.727  44.716  0.00  0.00     0.105 A 
ATOM      6  C   UNL d   1      44.953 -15.414  44.952  0.00  0.00     0.013 A 
ATOM      7  C   UNL d   1      44.817 -14.601  44.906  0.00  0.00     0.001 A 
ATOM      8  C   UNL d   1      45.404 -14.096  44.627  0.00  0.00     0.000 A 
ATOM      9  C   UNL d   1      46.133 -14.402  44.392  0.00  0.00     0.001 A 
ATOM     10  C   UNL d   1      45.260 -13.281  44.584  0.00  0.00     0.000 C 
ATOM     11  C   UNL d   1      46.274 -15.216  44.437  0.00  0.00     0.013 A 
ENDBRANCH   2   5
ENDBRANCH   1   2
BRANCH   1  12
ATOM     12  C   UNL d   1      46.082 -17.788  44.118  0.00  0.00     0.111 A 
ATOM     13  C   UNL d   1      46.270 -18.592  44.162  0.00  0.00     0.100 A 
ATOM     14  N   UNL d   1      46.337 -18.963  44.907  0.00  0.00    -0.242 NA
ATOM     15  C   UNL d   1      46.391 -19.029  43.473  0.00  0.00     0.019 A 
ATOM     16  C   UNL d   1      46.525 -19.771  44.955  0.00  0.00     0.099 A 
ATOM     17  C   UNL d   1      46.646 -20.208  44.266  0.00  0.00     0.021 A 
ATOM     18  C   UNL d   1      46.579 -19.839  43.527  0.00  0.00     0.003 A 
ATOM     19  C   UNL d   1      46.325 -18.664  42.737  0.00  0.00     0.002 A 
ATOM     20  C   UNL d   1      46.138 -17.862  42.689  0.00  0.00     0.002 A 
ATOM     21  C   UNL d   1      46.017 -17.425  43.378  0.00  0.00     0.021 A 
ENDBRANCH   1  12
TORSDOF 3
ENDMDL
