MODEL 1
REMARK VINA RESULT:      -1.4      0.000      0.000
REMARK  6 active torsions:
REMARK  status: ('A' for Active; 'I' for Inactive)
REMARK    1  A    between atoms: N_8  and  C_2 
REMARK    2  A    between atoms: N_7  and  C_3 
REMARK    3  A    between atoms: N_10  and  C_6 
REMARK    4  A    between atoms: C_9  and  N_11 
REMARK    5  A    between atoms: N_13  and  C_9 
REMARK    6  A    between atoms: N_11  and  N_10 
ROOT
ATOM      1  N   UNL d   1      33.189  21.768 -22.314  0.00  0.00     0.133 NA
ATOM      2  C   UNL d   1      33.198  21.161 -21.807  0.00  0.00     0.766 A 
ATOM      3  C   UNL d   1      33.197  21.654 -23.121  0.00  0.00     0.766 A 
ATOM      4  N   UNL d   1      33.214  20.881 -23.410  0.00  0.00     0.135 NA
ATOM      5  N   UNL d   1      33.216  20.354 -22.109  0.00  0.00     0.135 NA
ATOM      6  C   UNL d   1      33.224  20.224 -22.908  0.00  0.00     0.798 A 
ENDROOT
BRANCH   2   7
ATOM      7  N   UNL d   1      33.190  21.276 -21.001  0.00  0.00    -0.132 N 
ATOM      8  C   UNL d   1      33.133  22.046 -20.711  0.00  0.00     0.125 A 
ATOM      9  C   UNL d   1      33.123  22.181 -19.897  0.00  0.00     0.142 A 
ATOM     10  O   UNL d   1      33.172  21.546 -19.372  0.00  0.00    -0.300 OA
ATOM     11  C   UNL d   1      33.229  20.775 -19.661  0.00  0.00     0.142 A 
ATOM     12  C   UNL d   1      33.238  20.640 -20.476  0.00  0.00     0.125 A 
ENDBRANCH   2   7
BRANCH   3  13
ATOM     13  N   UNL d   1      33.188  22.270 -23.653  0.00  0.00    -0.132 N 
ATOM     14  C   UNL d   1      33.158  23.051 -23.424  0.00  0.00     0.125 A 
ATOM     15  C   UNL d   1      33.149  23.667 -23.957  0.00  0.00     0.142 A 
ATOM     16  O   UNL d   1      33.171  23.492 -24.763  0.00  0.00    -0.300 OA
ATOM     17  C   UNL d   1      33.202  22.702 -25.036  0.00  0.00     0.142 A 
ATOM     18  C   UNL d   1      33.210  22.096 -24.459  0.00  0.00     0.125 A 
ENDBRANCH   3  13
BRANCH   6  19
ATOM     19  N   UNL d   1      33.241  19.468 -23.191  0.00  0.00     0.050 NA
BRANCH  19  20
ATOM     20  N   UNL d   1      32.554  19.077 -23.378  0.00  0.00    -0.101 NA
BRANCH  20  21
ATOM     21  C   UNL d   1      32.572  18.310 -23.680  0.00  0.00     0.241 C 
ATOM     22  S   UNL d   1      33.083  17.754 -23.386  0.00  0.00    -0.035 SA
BRANCH  21  23
ATOM     23  N   UNL d   1      32.062  18.099 -24.291  0.00  0.00    -0.213 NA
ATOM     24  C   UNL d   1      31.718  17.350 -24.313  0.00  0.00     0.122 C 
ENDBRANCH  21  23
ENDBRANCH  20  21
ENDBRANCH  19  20
ENDBRANCH   6  19
TORSDOF 6
ENDMDL
MODEL 2
REMARK VINA RESULT:       0.1      2.904      5.130
REMARK  6 active torsions:
REMARK  status: ('A' for Active; 'I' for Inactive)
REMARK    1  A    between atoms: N_8  and  C_2 
REMARK    2  A    between atoms: N_7  and  C_3 
REMARK    3  A    between atoms: N_10  and  C_6 
REMARK    4  A    between atoms: C_9  and  N_11 
REMARK    5  A    between atoms: N_13  and  C_9 
REMARK    6  A    between atoms: N_11  and  N_10 
ROOT
ATOM      1  N   UNL d   1      31.302  17.338 -24.190  0.00  0.00     0.133 NA
ATOM      2  C   UNL d   1      32.072  17.358 -24.012  0.00  0.00     0.766 A 
ATOM      3  C   UNL d   1      30.923  17.972 -24.533  0.00  0.00     0.766 A 
ATOM      4  N   UNL d   1      31.360  18.651 -24.698  0.00  0.00     0.135 NA
ATOM      5  N   UNL d   1      32.529  18.069 -24.185  0.00  0.00     0.135 NA
ATOM      6  C   UNL d   1      32.168  18.708 -24.526  0.00  0.00     0.798 A 
ENDROOT
BRANCH   2   7
ATOM      7  N   UNL d   1      32.452  16.724 -23.669  0.00  0.00    -0.132 N 
ATOM      8  C   UNL d   1      32.545  16.717 -22.850  0.00  0.00     0.125 A 
ATOM      9  C   UNL d   1      32.927  16.082 -22.485  0.00  0.00     0.142 A 
ATOM     10  O   UNL d   1      33.215  15.456 -22.938  0.00  0.00    -0.300 OA
ATOM     11  C   UNL d   1      33.121  15.464 -23.758  0.00  0.00     0.142 A 
ATOM     12  C   UNL d   1      32.739  16.098 -24.124  0.00  0.00     0.125 A 
ENDBRANCH   2   7
BRANCH   3  13
ATOM     13  N   UNL d   1      30.130  17.963 -24.720  0.00  0.00    -0.132 N 
ATOM     14  C   UNL d   1      29.705  18.641 -24.870  0.00  0.00     0.125 A 
ATOM     15  C   UNL d   1      28.912  18.632 -25.057  0.00  0.00     0.142 A 
ATOM     16  O   UNL d   1      28.524  17.905 -25.096  0.00  0.00    -0.300 OA
ATOM     17  C   UNL d   1      28.928  17.188 -24.948  0.00  0.00     0.142 A 
ATOM     18  C   UNL d   1      29.742  17.236 -24.759  0.00  0.00     0.125 A 
ENDBRANCH   3  13
BRANCH   6  19
ATOM     19  N   UNL d   1      32.595  19.373 -24.687  0.00  0.00     0.050 NA
BRANCH  19  20
ATOM     20  N   UNL d   1      32.492  20.051 -24.252  0.00  0.00    -0.101 NA
BRANCH  20  21
ATOM     21  C   UNL d   1      32.987  20.702 -24.358  0.00  0.00     0.241 C 
ATOM     22  S   UNL d   1      33.232  20.929 -25.096  0.00  0.00    -0.035 SA
BRANCH  21  23
ATOM     23  N   UNL d   1      33.241  21.133 -23.704  0.00  0.00    -0.213 NA
ATOM     24  C   UNL d   1      33.169  21.955 -23.688  0.00  0.00     0.122 C 
ENDBRANCH  21  23
ENDBRANCH  20  21
ENDBRANCH  19  20
ENDBRANCH   6  19
TORSDOF 6
ENDMDL
MODEL 3
REMARK VINA RESULT:       0.8      2.631      4.922
REMARK  6 active torsions:
REMARK  status: ('A' for Active; 'I' for Inactive)
REMARK    1  A    between atoms: N_8  and  C_2 
REMARK    2  A    between atoms: N_7  and  C_3 
REMARK    3  A    between atoms: N_10  and  C_6 
REMARK    4  A    between atoms: C_9  and  N_11 
REMARK    5  A    between atoms: N_13  and  C_9 
REMARK    6  A    between atoms: N_11  and  N_10 
ROOT
ATOM      1  N   UNL d   1      32.535  18.215 -24.009  0.00  0.00     0.133 NA
ATOM      2  C   UNL d   1      32.186  18.864 -24.298  0.00  0.00     0.766 A 
ATOM      3  C   UNL d   1      32.185  17.481 -24.059  0.00  0.00     0.766 A 
ATOM      4  N   UNL d   1      31.447  17.419 -24.422  0.00  0.00     0.135 NA
ATOM      5  N   UNL d   1      31.415  18.799 -24.677  0.00  0.00     0.135 NA
ATOM      6  C   UNL d   1      31.053  18.077 -24.735  0.00  0.00     0.798 A 
ENDROOT
BRANCH   2   7
ATOM      7  N   UNL d   1      32.536  19.598 -24.248  0.00  0.00    -0.132 N 
ATOM      8  C   UNL d   1      32.640  19.936 -23.503  0.00  0.00     0.125 A 
ATOM      9  C   UNL d   1      32.992  20.679 -23.433  0.00  0.00     0.142 A 
ATOM     10  O   UNL d   1      33.240  21.084 -24.108  0.00  0.00    -0.300 OA
ATOM     11  C   UNL d   1      33.136  20.746 -24.853  0.00  0.00     0.142 A 
ATOM     12  C   UNL d   1      32.784  20.003 -24.924  0.00  0.00     0.125 A 
ENDBRANCH   2   7
BRANCH   3  13
ATOM     13  N   UNL d   1      32.533  16.806 -23.766  0.00  0.00    -0.132 N 
ATOM     14  C   UNL d   1      32.757  16.183 -24.241  0.00  0.00     0.125 A 
ATOM     15  C   UNL d   1      33.105  15.508 -23.947  0.00  0.00     0.142 A 
ATOM     16  O   UNL d   1      33.238  15.453 -23.135  0.00  0.00    -0.300 OA
ATOM     17  C   UNL d   1      33.022  16.073 -22.616  0.00  0.00     0.142 A 
ATOM     18  C   UNL d   1      32.666  16.751 -22.953  0.00  0.00     0.125 A 
ENDBRANCH   3  13
BRANCH   6  19
ATOM     19  N   UNL d   1      30.331  18.016 -25.089  0.00  0.00     0.050 NA
BRANCH  19  20
ATOM     20  N   UNL d   1      29.873  17.353 -24.992  0.00  0.00    -0.101 NA
BRANCH  20  21
ATOM     21  C   UNL d   1      29.078  17.414 -24.781  0.00  0.00     0.241 C 
ATOM     22  S   UNL d   1      28.679  18.116 -24.843  0.00  0.00    -0.035 SA
BRANCH  21  23
ATOM     23  N   UNL d   1      28.678  16.751 -24.500  0.00  0.00    -0.213 NA
ATOM     24  C   UNL d   1      28.275  16.775 -23.781  0.00  0.00     0.122 C 
ENDBRANCH  21  23
ENDBRANCH  20  21
ENDBRANCH  19  20
ENDBRANCH   6  19
TORSDOF 6
ENDMDL
