MODEL 1
REMARK VINA RESULT:      -8.2      0.000      0.000
REMARK  7 active torsions:
REMARK  status: ('A' for Active; 'I' for Inactive)
REMARK    1  A    between atoms: N_3  and  C_2 
REMARK       I    between atoms: C_6  and  N_3 
REMARK    2  A    between atoms: C_11  and  C_4 
REMARK    3  A    between atoms: C_5  and  C_6 
REMARK    4  A    between atoms: C_15  and  C_11 
REMARK    5  A    between atoms: C_18  and  C_12 
REMARK    6  A    between atoms: O_17  and  C_18 
REMARK    7  A    between atoms: C_19  and  O_17 
ROOT
ATOM      1  C   UNL d   1      51.089  34.218  52.687  0.00  0.00     0.158 A 
ATOM      2  O   UNL d   1      50.467  34.493  53.150  0.00  0.00    -0.300 OA
ATOM      3  C   UNL d   1      50.832  34.193  51.904  0.00  0.00     0.032 A 
ATOM      4  C   UNL d   1      49.823  34.639  52.659  0.00  0.00     0.125 A 
ATOM      5  C   UNL d   1      50.044  34.455  51.886  0.00  0.00     0.029 A 
ENDROOT
BRANCH   1   6
ATOM      6  C   UNL d   1      51.843  34.003  52.957  0.00  0.00     0.304 C 
ATOM      7  N   UNL d   1      51.946  33.294  53.367  0.00  0.00    -0.180 NA
ATOM      8  O   UNL d   1      52.482  34.500  52.812  0.00  0.00    -0.263 OA
BRANCH   7   9
ATOM      9  C   UNL d   1      52.696  33.079  53.637  0.00  0.00     0.216 A 
ATOM     10  N   UNL d   1      53.025  33.282  54.378  0.00  0.00    -0.200 NA
ATOM     11  C   UNL d   1      53.772  32.956  54.411  0.00  0.00     0.175 A 
ATOM     12  N   UNL d   1      53.914  32.554  53.705  0.00  0.00    -0.187 NA
ATOM     13  S   UNL d   1      53.241  32.633  53.226  0.00  0.00     0.054 SA
BRANCH  11  14
ATOM     14  C   UNL d   1      54.298  33.014  55.038  0.00  0.00     0.082 C 
BRANCH  14  15
ATOM     15  C   UNL d   1      54.729  33.714  55.151  0.00  0.00     0.199 C 
ATOM     16  O   UNL d   1      54.378  34.358  55.532  0.00  0.00    -0.286 OA
ATOM     17  C   UNL d   1      55.509  33.771  54.885  0.00  0.00     0.045 C 
ENDBRANCH  14  15
ENDBRANCH  11  14
ENDBRANCH   7   9
ENDBRANCH   1   6
BRANCH   4  18
ATOM     18  C   UNL d   1      49.088  34.921  52.898  0.00  0.00     0.147 C 
BRANCH  18  19
ATOM     19  O   UNL d   1      48.968  35.736  52.976  0.00  0.00    -0.303 OA
BRANCH  19  20
ATOM     20  C   UNL d   1      48.224  36.024  53.177  0.00  0.00     0.100 A 
ATOM     21  C   UNL d   1      47.654  36.152  52.585  0.00  0.00     0.025 A 
ATOM     22  C   UNL d   1      46.909  36.440  52.786  0.00  0.00     0.002 A 
ATOM     23  C   UNL d   1      46.734  36.600  53.576  0.00  0.00     0.000 A 
ATOM     24  C   UNL d   1      47.300  36.473  54.165  0.00  0.00     0.002 A 
ATOM     25  C   UNL d   1      48.044  36.185  53.966  0.00  0.00     0.025 A 
ENDBRANCH  19  20
ENDBRANCH  18  19
ENDBRANCH   4  18
TORSDOF 7
ENDMDL
MODEL 2
REMARK VINA RESULT:      -8.1      1.788      2.205
REMARK  7 active torsions:
REMARK  status: ('A' for Active; 'I' for Inactive)
REMARK    1  A    between atoms: N_3  and  C_2 
REMARK       I    between atoms: C_6  and  N_3 
REMARK    2  A    between atoms: C_11  and  C_4 
REMARK    3  A    between atoms: C_5  and  C_6 
REMARK    4  A    between atoms: C_15  and  C_11 
REMARK    5  A    between atoms: C_18  and  C_12 
REMARK    6  A    between atoms: O_17  and  C_18 
REMARK    7  A    between atoms: C_19  and  O_17 
ROOT
ATOM      1  C   UNL d   1      51.268  33.674  52.839  0.00  0.00     0.158 A 
ATOM      2  O   UNL d   1      50.492  33.802  53.079  0.00  0.00    -0.300 OA
ATOM      3  C   UNL d   1      51.433  34.196  52.223  0.00  0.00     0.032 A 
ATOM      4  C   UNL d   1      50.172  34.402  52.616  0.00  0.00     0.125 A 
ATOM      5  C   UNL d   1      50.751  34.650  52.083  0.00  0.00     0.029 A 
ENDROOT
BRANCH   1   6
ATOM      6  C   UNL d   1      51.795  33.119  53.158  0.00  0.00     0.304 C 
ATOM      7  N   UNL d   1      52.281  32.678  52.656  0.00  0.00    -0.180 NA
ATOM      8  O   UNL d   1      51.827  33.013  53.973  0.00  0.00    -0.263 OA
BRANCH   7   9
ATOM      9  C   UNL d   1      52.805  32.125  52.973  0.00  0.00     0.216 A 
ATOM     10  N   UNL d   1      52.769  31.297  52.860  0.00  0.00    -0.200 NA
ATOM     11  C   UNL d   1      53.391  30.967  53.270  0.00  0.00     0.175 A 
ATOM     12  N   UNL d   1      53.815  31.573  53.636  0.00  0.00    -0.187 NA
ATOM     13  S   UNL d   1      53.446  32.292  53.448  0.00  0.00     0.054 SA
BRANCH  11  14
ATOM     14  C   UNL d   1      53.573  30.168  53.315  0.00  0.00     0.082 C 
BRANCH  14  15
ATOM     15  C   UNL d   1      53.087  29.659  53.756  0.00  0.00     0.199 C 
ATOM     16  O   UNL d   1      52.354  29.424  53.455  0.00  0.00    -0.286 OA
ATOM     17  C   UNL d   1      53.334  29.386  54.495  0.00  0.00     0.045 C 
ENDBRANCH  14  15
ENDBRANCH  11  14
ENDBRANCH   7   9
ENDBRANCH   1   6
BRANCH   4  18
ATOM     18  C   UNL d   1      49.408  34.702  52.673  0.00  0.00     0.147 C 
BRANCH  18  19
ATOM     19  O   UNL d   1      49.282  35.428  53.048  0.00  0.00    -0.303 OA
BRANCH  19  20
ATOM     20  C   UNL d   1      48.522  35.741  53.092  0.00  0.00     0.100 A 
ATOM     21  C   UNL d   1      48.217  35.995  53.823  0.00  0.00     0.025 A 
ATOM     22  C   UNL d   1      47.457  36.308  53.866  0.00  0.00     0.002 A 
ATOM     23  C   UNL d   1      47.001  36.367  53.181  0.00  0.00     0.000 A 
ATOM     24  C   UNL d   1      47.303  36.115  52.454  0.00  0.00     0.002 A 
ATOM     25  C   UNL d   1      48.063  35.802  52.409  0.00  0.00     0.025 A 
ENDBRANCH  19  20
ENDBRANCH  18  19
ENDBRANCH   4  18
TORSDOF 7
ENDMDL
MODEL 3
REMARK VINA RESULT:      -7.4      2.254      6.063
REMARK  7 active torsions:
REMARK  status: ('A' for Active; 'I' for Inactive)
REMARK    1  A    between atoms: N_3  and  C_2 
REMARK       I    between atoms: C_6  and  N_3 
REMARK    2  A    between atoms: C_11  and  C_4 
REMARK    3  A    between atoms: C_5  and  C_6 
REMARK    4  A    between atoms: C_15  and  C_11 
REMARK    5  A    between atoms: C_18  and  C_12 
REMARK    6  A    between atoms: O_17  and  C_18 
REMARK    7  A    between atoms: C_19  and  O_17 
ROOT
ATOM      1  C   UNL d   1      50.195  34.472  52.605  0.00  0.00     0.158 A 
ATOM      2  O   UNL d   1      50.581  34.211  53.283  0.00  0.00    -0.300 OA
ATOM      3  C   UNL d   1      50.694  34.342  51.962  0.00  0.00     0.032 A 
ATOM      4  C   UNL d   1      51.319  33.920  53.066  0.00  0.00     0.125 A 
ATOM      5  C   UNL d   1      51.395  33.999  52.248  0.00  0.00     0.029 A 
ENDROOT
BRANCH   1   6
ATOM      6  C   UNL d   1      49.437  34.806  52.570  0.00  0.00     0.304 C 
ATOM      7  N   UNL d   1      49.253  35.458  53.043  0.00  0.00    -0.180 NA
ATOM      8  O   UNL d   1      48.874  34.483  52.065  0.00  0.00    -0.263 OA
BRANCH   7   9
ATOM      9  C   UNL d   1      48.499  35.791  53.009  0.00  0.00     0.216 A 
ATOM     10  N   UNL d   1      48.002  35.943  53.665  0.00  0.00    -0.200 NA
ATOM     11  C   UNL d   1      47.314  36.273  53.379  0.00  0.00     0.175 A 
ATOM     12  N   UNL d   1      47.372  36.330  52.558  0.00  0.00    -0.187 NA
ATOM     13  S   UNL d   1      48.112  36.029  52.332  0.00  0.00     0.054 SA
BRANCH  11  14
ATOM     14  C   UNL d   1      46.668  36.510  53.826  0.00  0.00     0.082 C 
BRANCH  14  15
ATOM     15  C   UNL d   1      46.101  35.952  54.061  0.00  0.00     0.199 C 
ATOM     16  O   UNL d   1      46.213  35.514  54.753  0.00  0.00    -0.286 OA
ATOM     17  C   UNL d   1      45.424  35.830  53.605  0.00  0.00     0.045 C 
ENDBRANCH  14  15
ENDBRANCH  11  14
ENDBRANCH   7   9
ENDBRANCH   1   6
BRANCH   4  18
ATOM     18  C   UNL d   1      51.883  33.606  53.575  0.00  0.00     0.147 C 
BRANCH  18  19
ATOM     19  O   UNL d   1      52.676  33.830  53.496  0.00  0.00    -0.303 OA
BRANCH  19  20
ATOM     20  C   UNL d   1      53.236  33.558  54.034  0.00  0.00     0.100 A 
ATOM     21  C   UNL d   1      53.579  34.082  54.579  0.00  0.00     0.025 A 
ATOM     22  C   UNL d   1      54.139  33.810  55.117  0.00  0.00     0.002 A 
ATOM     23  C   UNL d   1      54.356  33.014  55.111  0.00  0.00     0.000 A 
ATOM     24  C   UNL d   1      54.015  32.491  54.569  0.00  0.00     0.002 A 
ATOM     25  C   UNL d   1      53.455  32.762  54.031  0.00  0.00     0.025 A 
ENDBRANCH  19  20
ENDBRANCH  18  19
ENDBRANCH   4  18
TORSDOF 7
ENDMDL
MODEL 4
REMARK VINA RESULT:      -7.3      2.445      6.254
REMARK  7 active torsions:
REMARK  status: ('A' for Active; 'I' for Inactive)
REMARK    1  A    between atoms: N_3  and  C_2 
REMARK       I    between atoms: C_6  and  N_3 
REMARK    2  A    between atoms: C_11  and  C_4 
REMARK    3  A    between atoms: C_5  and  C_6 
REMARK    4  A    between atoms: C_15  and  C_11 
REMARK    5  A    between atoms: C_18  and  C_12 
REMARK    6  A    between atoms: O_17  and  C_18 
REMARK    7  A    between atoms: C_19  and  O_17 
ROOT
ATOM      1  C   UNL d   1      51.035  34.089  52.516  0.00  0.00     0.158 A 
ATOM      2  O   UNL d   1      51.258  33.307  52.643  0.00  0.00    -0.300 OA
ATOM      3  C   UNL d   1      51.573  34.573  52.909  0.00  0.00     0.032 A 
ATOM      4  C   UNL d   1      51.932  33.302  53.114  0.00  0.00     0.125 A 
ATOM      5  C   UNL d   1      52.132  34.085  53.281  0.00  0.00     0.029 A 
ENDROOT
BRANCH   1   6
ATOM      6  C   UNL d   1      50.385  34.347  52.071  0.00  0.00     0.304 C 
ATOM      7  N   UNL d   1      49.662  34.489  52.445  0.00  0.00    -0.180 NA
ATOM      8  O   UNL d   1      50.466  34.459  51.261  0.00  0.00    -0.263 OA
BRANCH   7   9
ATOM      9  C   UNL d   1      49.014  34.746  52.004  0.00  0.00     0.216 A 
ATOM     10  N   UNL d   1      48.480  35.350  52.226  0.00  0.00    -0.200 NA
ATOM     11  C   UNL d   1      47.928  35.420  51.629  0.00  0.00     0.175 A 
ATOM     12  N   UNL d   1      48.108  34.872  51.040  0.00  0.00    -0.187 NA
ATOM     13  S   UNL d   1      48.785  34.454  51.277  0.00  0.00     0.054 SA
BRANCH  11  14
ATOM     14  C   UNL d   1      47.298  35.945  51.612  0.00  0.00     0.082 C 
BRANCH  14  15
ATOM     15  C   UNL d   1      46.554  35.707  51.891  0.00  0.00     0.199 C 
ATOM     16  O   UNL d   1      46.082  35.206  51.434  0.00  0.00    -0.286 OA
ATOM     17  C   UNL d   1      46.283  35.968  52.626  0.00  0.00     0.045 C 
ENDBRANCH  14  15
ENDBRANCH  11  14
ENDBRANCH   7   9
ENDBRANCH   1   6
BRANCH   4  18
ATOM     18  C   UNL d   1      52.337  32.634  53.372  0.00  0.00     0.147 C 
BRANCH  18  19
ATOM     19  O   UNL d   1      52.609  32.082  52.819  0.00  0.00    -0.303 OA
BRANCH  19  20
ATOM     20  C   UNL d   1      52.918  31.364  53.074  0.00  0.00     0.100 A 
ATOM     21  C   UNL d   1      52.495  30.660  52.950  0.00  0.00     0.025 A 
ATOM     22  C   UNL d   1      52.805  29.941  53.205  0.00  0.00     0.002 A 
ATOM     23  C   UNL d   1      53.537  29.926  53.584  0.00  0.00     0.000 A 
ATOM     24  C   UNL d   1      53.960  30.625  53.708  0.00  0.00     0.002 A 
ATOM     25  C   UNL d   1      53.651  31.344  53.453  0.00  0.00     0.025 A 
ENDBRANCH  19  20
ENDBRANCH  18  19
ENDBRANCH   4  18
TORSDOF 7
ENDMDL
