MODEL 1
REMARK VINA RESULT:      -1.6      0.000      0.000
REMARK  10 active torsions:
REMARK  status: ('A' for Active; 'I' for Inactive)
REMARK    1  A    between atoms: C_9  and  S_1 
REMARK    2  A    between atoms: N_20  and  S_1 
REMARK    3  A    between atoms: S_2  and  C_10 
REMARK    4  A    between atoms: N_19  and  S_2 
REMARK    5  A    between atoms: C_28  and  N_19 
REMARK    6  A    between atoms: C_29  and  N_20 
REMARK    7  A    between atoms: C_24  and  C_28 
REMARK    8  A    between atoms: C_30  and  C_24 
REMARK    9  A    between atoms: C_25  and  C_29 
REMARK   10  A    between atoms: C_31  and  C_25 
ROOT
ATOM      1  C   UNL d   1     -42.047-121.716 -51.340  0.00  0.00     0.300 A 
ATOM      2  C   UNL d   1     -41.747-122.337 -51.780  0.00  0.00     0.064 A 
ATOM      3  C   UNL d   1     -41.777-122.430 -50.136  0.00  0.00     0.104 A 
ATOM      4  O   UNL d   1     -42.063-121.761 -50.520  0.00  0.00    -0.273 OA
ATOM      5  C   UNL d   1     -41.460-123.006 -51.400  0.00  0.00     0.007 A 
ATOM      6  C   UNL d   1     -41.473-123.058 -50.576  0.00  0.00     0.023 A 
ATOM      7  C   UNL d   1     -41.430-122.913 -53.045  0.00  0.00     0.105 A 
ATOM      8  C   UNL d   1     -41.511-123.137 -48.927  0.00  0.00     0.107 A 
ATOM      9  C   UNL d   1     -41.731-122.292 -52.596  0.00  0.00     0.018 A 
ATOM     10  C   UNL d   1     -41.795-122.472 -49.311  0.00  0.00     0.038 A 
ATOM     11  C   UNL d   1     -41.157-123.634 -51.840  0.00  0.00     0.001 A 
ATOM     12  C   UNL d   1     -41.187-123.728 -50.192  0.00  0.00     0.003 A 
ATOM     13  O   UNL d   1     -42.336-121.040 -51.715  0.00  0.00    -0.259 OA
ATOM     14  C   UNL d   1     -41.141-123.590 -52.660  0.00  0.00     0.013 A 
ATOM     15  C   UNL d   1     -41.205-123.770 -49.367  0.00  0.00     0.013 A 
ENDROOT
BRANCH   7  16
ATOM     16  S   UNL d   1     -41.414-122.868 -53.868  0.00  0.00     0.285 S 
ATOM     17  O   UNL d   1     -41.585-122.154 -54.239  0.00  0.00    -0.198 OA
ATOM     18  O   UNL d   1     -41.227-123.541 -54.318  0.00  0.00    -0.198 OA
BRANCH  16  19
ATOM     19  N   UNL d   1     -41.401-122.811 -54.692  0.00  0.00    -0.157 NA
BRANCH  19  20
ATOM     20  C   UNL d   1     -41.698-122.138 -55.064  0.00  0.00     0.116 C 
BRANCH  20  21
ATOM     21  C   UNL d   1     -42.346-122.202 -55.572  0.00  0.00     0.067 C 
BRANCH  21  22
ATOM     22  C   UNL d   1     -42.304-121.889 -56.336  0.00  0.00     0.236 C 
ATOM     23  O   UNL d   1     -42.359-121.073 -56.446  0.00  0.00    -0.283 OA
ENDBRANCH  21  22
ENDBRANCH  20  21
ENDBRANCH  19  20
ENDBRANCH  16  19
ENDBRANCH   7  16
BRANCH   8  24
ATOM     24  S   UNL d   1     -41.525-123.186 -48.102  0.00  0.00     0.285 S 
ATOM     25  O   UNL d   1     -41.150-123.814 -47.722  0.00  0.00    -0.198 OA
ATOM     26  O   UNL d   1     -41.913-122.609 -47.664  0.00  0.00    -0.198 OA
BRANCH  24  27
ATOM     27  N   UNL d   1     -41.543-123.229 -47.278  0.00  0.00    -0.157 NA
BRANCH  27  28
ATOM     28  C   UNL d   1     -42.220-122.998 -46.867  0.00  0.00     0.116 C 
BRANCH  28  29
ATOM     29  C   UNL d   1     -42.832-123.534 -46.732  0.00  0.00     0.067 C 
BRANCH  29  30
ATOM     30  C   UNL d   1     -43.619-123.290 -46.765  0.00  0.00     0.236 C 
ATOM     31  O   UNL d   1     -44.206-123.817 -47.006  0.00  0.00    -0.283 OA
ENDBRANCH  29  30
ENDBRANCH  28  29
ENDBRANCH  27  28
ENDBRANCH  24  27
ENDBRANCH   8  24
TORSDOF 10
ENDMDL
MODEL 2
REMARK VINA RESULT:      -1.4      0.765      6.264
REMARK  10 active torsions:
REMARK  status: ('A' for Active; 'I' for Inactive)
REMARK    1  A    between atoms: C_9  and  S_1 
REMARK    2  A    between atoms: N_20  and  S_1 
REMARK    3  A    between atoms: S_2  and  C_10 
REMARK    4  A    between atoms: N_19  and  S_2 
REMARK    5  A    between atoms: C_28  and  N_19 
REMARK    6  A    between atoms: C_29  and  N_20 
REMARK    7  A    between atoms: C_24  and  C_28 
REMARK    8  A    between atoms: C_30  and  C_24 
REMARK    9  A    between atoms: C_25  and  C_29 
REMARK   10  A    between atoms: C_31  and  C_25 
ROOT
ATOM      1  C   UNL d   1     -41.954-121.467 -51.280  0.00  0.00     0.300 A 
ATOM      2  C   UNL d   1     -41.710-122.158 -50.916  0.00  0.00     0.064 A 
ATOM      3  C   UNL d   1     -41.693-122.041 -52.559  0.00  0.00     0.104 A 
ATOM      4  O   UNL d   1     -41.946-121.406 -52.099  0.00  0.00    -0.273 OA
ATOM      5  C   UNL d   1     -41.458-122.793 -51.372  0.00  0.00     0.007 A 
ATOM      6  C   UNL d   1     -41.447-122.739 -52.196  0.00  0.00     0.023 A 
ATOM      7  C   UNL d   1     -41.475-122.910 -49.729  0.00  0.00     0.105 A 
ATOM      8  C   UNL d   1     -41.435-122.607 -53.842  0.00  0.00     0.107 A 
ATOM      9  C   UNL d   1     -41.719-122.217 -50.101  0.00  0.00     0.018 A 
ATOM     10  C   UNL d   1     -41.686-121.977 -53.383  0.00  0.00     0.038 A 
ATOM     11  C   UNL d   1     -41.212-123.491 -51.008  0.00  0.00     0.001 A 
ATOM     12  C   UNL d   1     -41.194-123.373 -52.655  0.00  0.00     0.003 A 
ATOM     13  O   UNL d   1     -42.209-120.825 -50.829  0.00  0.00    -0.259 OA
ATOM     14  C   UNL d   1     -41.220-123.552 -50.190  0.00  0.00     0.013 A 
ATOM     15  C   UNL d   1     -41.187-123.310 -53.479  0.00  0.00     0.013 A 
ENDROOT
BRANCH   7  16
ATOM     16  S   UNL d   1     -41.484-122.970 -48.906  0.00  0.00     0.285 S 
ATOM     17  O   UNL d   1     -41.851-123.613 -48.549  0.00  0.00    -0.198 OA
ATOM     18  O   UNL d   1     -41.123-122.381 -48.443  0.00  0.00    -0.198 OA
BRANCH  16  19
ATOM     19  N   UNL d   1     -41.498-123.040 -48.083  0.00  0.00    -0.157 NA
BRANCH  19  20
ATOM     20  C   UNL d   1     -42.025-123.561 -47.722  0.00  0.00     0.116 C 
BRANCH  20  21
ATOM     21  C   UNL d   1     -42.325-123.388 -46.973  0.00  0.00     0.067 C 
BRANCH  21  22
ATOM     22  C   UNL d   1     -42.965-123.816 -46.676  0.00  0.00     0.236 C 
ATOM     23  O   UNL d   1     -43.734-123.534 -46.789  0.00  0.00    -0.283 OA
ENDBRANCH  21  22
ENDBRANCH  20  21
ENDBRANCH  19  20
ENDBRANCH  16  19
ENDBRANCH   7  16
BRANCH   8  24
ATOM     24  S   UNL d   1     -41.425-122.550 -54.666  0.00  0.00     0.285 S 
ATOM     25  O   UNL d   1     -41.540-123.225 -55.125  0.00  0.00    -0.198 OA
ATOM     26  O   UNL d   1     -41.300-121.821 -55.026  0.00  0.00    -0.198 OA
BRANCH  24  27
ATOM     27  N   UNL d   1     -41.414-122.486 -55.489  0.00  0.00    -0.157 NA
BRANCH  27  28
ATOM     28  C   UNL d   1     -41.488-121.748 -55.847  0.00  0.00     0.116 C 
BRANCH  28  29
ATOM     29  C   UNL d   1     -41.868-121.669 -56.575  0.00  0.00     0.067 C 
BRANCH  29  30
ATOM     30  C   UNL d   1     -41.736-121.008 -57.048  0.00  0.00     0.236 C 
ATOM     31  O   UNL d   1     -42.300-120.780 -57.608  0.00  0.00    -0.283 OA
ENDBRANCH  29  30
ENDBRANCH  28  29
ENDBRANCH  27  28
ENDBRANCH  24  27
ENDBRANCH   8  24
TORSDOF 10
ENDMDL
