MODEL 1
REMARK VINA RESULT:      59.2      0.000      0.000
REMARK  2 active torsions:
REMARK  status: ('A' for Active; 'I' for Inactive)
REMARK       I    between atoms: N_2  and  C_1 
REMARK    1  A    between atoms: C_5  and  C_1 
REMARK    2  A    between atoms: C_7  and  N_2 
ROOT
ATOM      1  C   UNL d   1     -48.069  32.315  34.223  0.00  0.00     0.125 A 
ATOM      2  C   UNL d   1     -48.067  31.628  34.680  0.00  0.00     0.059 A 
ATOM      3  C   UNL d   1     -47.395  32.788  34.169  0.00  0.00     0.123 A 
ATOM      4  C   UNL d   1     -47.384  31.413  35.086  0.00  0.00     0.137 A 
ATOM      5  O   UNL d   1     -48.758  32.531  33.814  0.00  0.00    -0.301 OA
ATOM      6  O   UNL d   1     -47.393  33.477  33.712  0.00  0.00    -0.301 OA
ATOM      7  C   UNL d   1     -46.710  32.569  34.579  0.00  0.00     0.029 A 
ATOM      8  C   UNL d   1     -46.704  31.885  35.036  0.00  0.00     0.034 A 
ATOM      9  C   UNL d   1     -48.763  33.216  33.356  0.00  0.00     0.149 A 
ATOM     10  C   UNL d   1     -48.083  33.688  33.306  0.00  0.00     0.149 A 
ENDROOT
BRANCH   4  11
ATOM     11  N   UNL d   1     -47.375  30.723  35.549  0.00  0.00    -0.365 NA
ATOM     12  C   UNL d   1     -47.367  30.045  36.000  0.00  0.00     0.328 C 
ATOM     13  O   UNL d   1     -46.970  30.033  36.713  0.00  0.00    -0.251 OA
BRANCH  12  14
ATOM     14  C   UNL d   1     -47.759  29.378  35.734  0.00  0.00     0.070 A 
ATOM     15  C   UNL d   1     -47.458  28.941  35.106  0.00  0.00     0.006 A 
ATOM     16  C   UNL d   1     -47.856  28.269  34.842  0.00  0.00     0.000 A 
ATOM     17  C   UNL d   1     -48.559  28.027  35.204  0.00  0.00     0.000 A 
ATOM     18  C   UNL d   1     -48.863  28.461  35.832  0.00  0.00     0.000 A 
ATOM     19  C   UNL d   1     -48.958  27.355  34.939  0.00  0.00     0.000 C 
ATOM     20  C   UNL d   1     -48.462  29.137  36.098  0.00  0.00     0.006 A 
ENDBRANCH  12  14
ENDBRANCH   4  11
TORSDOF 2
ENDMDL
MODEL 2
REMARK VINA RESULT:      60.0      3.301      5.857
REMARK  2 active torsions:
REMARK  status: ('A' for Active; 'I' for Inactive)
REMARK       I    between atoms: N_2  and  C_1 
REMARK    1  A    between atoms: C_5  and  C_1 
REMARK    2  A    between atoms: C_7  and  N_2 
ROOT
ATOM      1  C   UNL d   1     -50.844  25.777  33.495  0.00  0.00     0.125 A 
ATOM      2  C   UNL d   1     -50.698  26.584  33.586  0.00  0.00     0.059 A 
ATOM      3  C   UNL d   1     -50.222  25.245  33.396  0.00  0.00     0.123 A 
ATOM      4  C   UNL d   1     -49.922  26.859  33.577  0.00  0.00     0.137 A 
ATOM      5  O   UNL d   1     -51.626  25.501  33.505  0.00  0.00    -0.301 OA
ATOM      6  O   UNL d   1     -50.365  24.435  33.306  0.00  0.00    -0.301 OA
ATOM      7  C   UNL d   1     -49.443  25.524  33.388  0.00  0.00     0.029 A 
ATOM      8  C   UNL d   1     -49.293  26.328  33.478  0.00  0.00     0.034 A 
ATOM      9  C   UNL d   1     -51.776  24.695  33.415  0.00  0.00     0.149 A 
ATOM     10  C   UNL d   1     -51.147  24.164  33.315  0.00  0.00     0.149 A 
ENDROOT
BRANCH   4  11
ATOM     11  N   UNL d   1     -49.767  27.671  33.667  0.00  0.00    -0.365 NA
ATOM     12  C   UNL d   1     -49.612  28.465  33.758  0.00  0.00     0.328 C 
ATOM     13  O   UNL d   1     -50.017  29.014  33.308  0.00  0.00    -0.251 OA
BRANCH  12  14
ATOM     14  C   UNL d   1     -49.053  28.709  34.301  0.00  0.00     0.070 A 
ATOM     15  C   UNL d   1     -48.929  28.281  34.993  0.00  0.00     0.006 A 
ATOM     16  C   UNL d   1     -48.363  28.532  35.538  0.00  0.00     0.000 A 
ATOM     17  C   UNL d   1     -47.915  29.212  35.397  0.00  0.00     0.000 A 
ATOM     18  C   UNL d   1     -48.035  29.642  34.707  0.00  0.00     0.000 A 
ATOM     19  C   UNL d   1     -47.348  29.463  35.942  0.00  0.00     0.000 C 
ATOM     20  C   UNL d   1     -48.605  29.390  34.159  0.00  0.00     0.006 A 
ENDBRANCH  12  14
ENDBRANCH   4  11
TORSDOF 2
ENDMDL
MODEL 3
REMARK VINA RESULT:      60.7      2.297      4.083
REMARK  2 active torsions:
REMARK  status: ('A' for Active; 'I' for Inactive)
REMARK       I    between atoms: N_2  and  C_1 
REMARK    1  A    between atoms: C_5  and  C_1 
REMARK    2  A    between atoms: C_7  and  N_2 
ROOT
ATOM      1  C   UNL d   1     -47.995  29.215  35.160  0.00  0.00     0.125 A 
ATOM      2  C   UNL d   1     -48.233  28.655  34.603  0.00  0.00     0.059 A 
ATOM      3  C   UNL d   1     -48.224  29.148  35.950  0.00  0.00     0.123 A 
ATOM      4  C   UNL d   1     -48.705  28.023  34.839  0.00  0.00     0.137 A 
ATOM      5  O   UNL d   1     -47.520  29.852  34.921  0.00  0.00    -0.301 OA
ATOM      6  O   UNL d   1     -47.987  29.708  36.511  0.00  0.00    -0.301 OA
ATOM      7  C   UNL d   1     -48.698  28.512  36.184  0.00  0.00     0.029 A 
ATOM      8  C   UNL d   1     -48.937  27.952  35.632  0.00  0.00     0.034 A 
ATOM      9  C   UNL d   1     -47.280  30.413  35.475  0.00  0.00     0.149 A 
ATOM     10  C   UNL d   1     -47.512  30.341  36.267  0.00  0.00     0.149 A 
ENDROOT
BRANCH   4  11
ATOM     11  N   UNL d   1     -48.949  27.455  34.284  0.00  0.00    -0.365 NA
ATOM     12  C   UNL d   1     -49.191  26.899  33.741  0.00  0.00     0.328 C 
ATOM     13  O   UNL d   1     -48.637  26.484  33.306  0.00  0.00    -0.251 OA
BRANCH  12  14
ATOM     14  C   UNL d   1     -49.989  26.759  33.633  0.00  0.00     0.070 A 
ATOM     15  C   UNL d   1     -50.511  27.386  33.531  0.00  0.00     0.006 A 
ATOM     16  C   UNL d   1     -51.316  27.240  33.423  0.00  0.00     0.000 A 
ATOM     17  C   UNL d   1     -51.606  26.466  33.415  0.00  0.00     0.000 A 
ATOM     18  C   UNL d   1     -51.087  25.837  33.516  0.00  0.00     0.000 A 
ATOM     19  C   UNL d   1     -52.411  26.320  33.307  0.00  0.00     0.000 C 
ATOM     20  C   UNL d   1     -50.278  25.984  33.625  0.00  0.00     0.006 A 
ENDBRANCH  12  14
ENDBRANCH   4  11
TORSDOF 2
ENDMDL
MODEL 4
REMARK VINA RESULT:      61.6      4.468      7.080
REMARK  2 active torsions:
REMARK  status: ('A' for Active; 'I' for Inactive)
REMARK       I    between atoms: N_2  and  C_1 
REMARK    1  A    between atoms: C_5  and  C_1 
REMARK    2  A    between atoms: C_7  and  N_2 
ROOT
ATOM      1  C   UNL d   1     -51.615  24.577  33.730  0.00  0.00     0.125 A 
ATOM      2  C   UNL d   1     -50.989  25.113  33.693  0.00  0.00     0.059 A 
ATOM      3  C   UNL d   1     -52.386  24.818  33.561  0.00  0.00     0.123 A 
ATOM      4  C   UNL d   1     -51.136  25.896  33.485  0.00  0.00     0.137 A 
ATOM      5  O   UNL d   1     -51.465  23.789  33.940  0.00  0.00    -0.301 OA
ATOM      6  O   UNL d   1     -53.016  24.283  33.597  0.00  0.00    -0.301 OA
ATOM      7  C   UNL d   1     -52.531  25.604  33.352  0.00  0.00     0.029 A 
ATOM      8  C   UNL d   1     -51.909  26.142  33.314  0.00  0.00     0.034 A 
ATOM      9  C   UNL d   1     -52.088  23.251  33.978  0.00  0.00     0.149 A 
ATOM     10  C   UNL d   1     -52.861  23.497  33.807  0.00  0.00     0.149 A 
ENDROOT
BRANCH   4  11
ATOM     11  N   UNL d   1     -50.511  26.441  33.446  0.00  0.00    -0.365 NA
ATOM     12  C   UNL d   1     -49.900  26.978  33.407  0.00  0.00     0.328 C 
ATOM     13  O   UNL d   1     -49.130  26.717  33.320  0.00  0.00    -0.251 OA
BRANCH  12  14
ATOM     14  C   UNL d   1     -50.060  27.778  33.457  0.00  0.00     0.070 A 
ATOM     15  C   UNL d   1     -50.831  28.042  33.570  0.00  0.00     0.006 A 
ATOM     16  C   UNL d   1     -50.988  28.850  33.619  0.00  0.00     0.000 A 
ATOM     17  C   UNL d   1     -50.376  29.403  33.556  0.00  0.00     0.000 A 
ATOM     18  C   UNL d   1     -49.605  29.143  33.444  0.00  0.00     0.000 A 
ATOM     19  C   UNL d   1     -50.533  30.211  33.606  0.00  0.00     0.000 C 
ATOM     20  C   UNL d   1     -49.447  28.330  33.394  0.00  0.00     0.006 A 
ENDBRANCH  12  14
ENDBRANCH   4  11
TORSDOF 2
ENDMDL
