MODEL 1
REMARK VINA RESULT:      -6.4      0.000      0.000
REMARK  6 active torsions:
REMARK  status: ('A' for Active; 'I' for Inactive)
REMARK    1  A    between atoms: C_6  and  C_1 
REMARK    2  A    between atoms: N_7  and  C_2 
REMARK    3  A    between atoms: C_8  and  N_5 
REMARK    4  A    between atoms: O_13  and  C_6 
REMARK    5  A    between atoms: C_18  and  O_13 
REMARK    6  A    between atoms: O_17  and  C_14 
ROOT
ATOM      1  C   UNL d   1     -46.642  13.150  22.484  0.00  0.00     0.112 A 
ATOM      2  C   UNL d   1     -47.924  13.106  22.083  0.00  0.00     0.172 A 
ATOM      3  C   UNL d   1     -47.034  13.810  22.788  0.00  0.00     0.077 A 
ATOM      4  S   UNL d   1     -47.191  12.713  22.048  0.00  0.00    -0.044 SA
ATOM      5  N   UNL d   1     -47.826  13.782  22.540  0.00  0.00    -0.287 N 
ATOM      6  C   UNL d   1     -46.685  14.399  23.261  0.00  0.00     0.020 C 
ENDROOT
BRANCH   5   7
ATOM      7  C   UNL d   1     -48.434  14.317  22.701  0.00  0.00     0.066 A 
ATOM      8  C   UNL d   1     -48.950  14.170  23.327  0.00  0.00     0.020 A 
ATOM      9  C   UNL d   1     -49.556  14.705  23.485  0.00  0.00     0.026 A 
ATOM     10  C   UNL d   1     -49.644  15.379  23.026  0.00  0.00     0.094 A 
ATOM     11  C   UNL d   1     -49.124  15.523  22.402  0.00  0.00     0.026 A 
ATOM     12  C   UNL d   1     -48.519  14.987  22.243  0.00  0.00     0.020 A 
BRANCH  10  13
ATOM     13  O   UNL d   1     -50.256  15.920  23.188  0.00  0.00    -0.328 OA
ATOM     14  C   UNL d   1     -51.015  15.642  23.358  0.00  0.00     0.181 C 
ENDBRANCH  10  13
ENDBRANCH   5   7
BRANCH   2  15
ATOM     15  N   UNL d   1     -48.624  12.856  21.723  0.00  0.00    -0.277 NA
ATOM     16  H   UNL d   1     -49.349  13.144  21.987  0.00  0.00     0.189 HD
ENDBRANCH   2  15
BRANCH   1  17
ATOM     17  C   UNL d   1     -45.845  12.961  22.596  0.00  0.00     0.308 C 
ATOM     18  O   UNL d   1     -45.604  12.592  23.286  0.00  0.00    -0.258 OA
BRANCH  17  19
ATOM     19  O   UNL d   1     -45.290  13.148  22.008  0.00  0.00    -0.271 OA
BRANCH  19  20
ATOM     20  C   UNL d   1     -44.552  12.785  21.998  0.00  0.00     0.126 C 
ATOM     21  C   UNL d   1     -43.996  12.986  21.422  0.00  0.00     0.029 C 
ENDBRANCH  19  20
ENDBRANCH  17  19
ENDBRANCH   1  17
TORSDOF 6
ENDMDL
MODEL 2
REMARK VINA RESULT:      -6.0      1.819      2.151
REMARK  6 active torsions:
REMARK  status: ('A' for Active; 'I' for Inactive)
REMARK    1  A    between atoms: C_6  and  C_1 
REMARK    2  A    between atoms: N_7  and  C_2 
REMARK    3  A    between atoms: C_8  and  N_5 
REMARK    4  A    between atoms: O_13  and  C_6 
REMARK    5  A    between atoms: C_18  and  O_13 
REMARK    6  A    between atoms: O_17  and  C_14 
ROOT
ATOM      1  C   UNL d   1     -46.050  12.776  22.677  0.00  0.00     0.112 A 
ATOM      2  C   UNL d   1     -46.840  11.862  23.264  0.00  0.00     0.172 A 
ATOM      3  C   UNL d   1     -46.836  12.974  22.524  0.00  0.00     0.077 A 
ATOM      4  S   UNL d   1     -46.050  12.088  23.135  0.00  0.00    -0.044 SA
ATOM      5  N   UNL d   1     -47.324  12.409  22.886  0.00  0.00    -0.287 N 
ATOM      6  C   UNL d   1     -47.087  13.631  22.079  0.00  0.00     0.020 C 
ENDROOT
BRANCH   5   7
ATOM      7  C   UNL d   1     -48.149  12.369  22.890  0.00  0.00     0.066 A 
ATOM      8  C   UNL d   1     -48.540  11.970  22.283  0.00  0.00     0.020 A 
ATOM      9  C   UNL d   1     -49.363  11.933  22.290  0.00  0.00     0.026 A 
ATOM     10  C   UNL d   1     -49.790  12.288  22.893  0.00  0.00     0.094 A 
ATOM     11  C   UNL d   1     -49.394  12.686  23.498  0.00  0.00     0.026 A 
ATOM     12  C   UNL d   1     -48.571  12.724  23.492  0.00  0.00     0.020 A 
BRANCH  10  13
ATOM     13  O   UNL d   1     -50.622  12.249  22.899  0.00  0.00    -0.328 OA
ATOM     14  C   UNL d   1     -51.062  12.837  22.522  0.00  0.00     0.181 C 
ENDBRANCH  10  13
ENDBRANCH   5   7
BRANCH   2  15
ATOM     15  N   UNL d   1     -47.090  11.203  23.695  0.00  0.00    -0.277 NA
ATOM     16  H   UNL d   1     -47.860  11.169  23.986  0.00  0.00     0.189 HD
ENDBRANCH   2  15
BRANCH   1  17
ATOM     17  C   UNL d   1     -45.383  13.191  22.419  0.00  0.00     0.308 C 
ATOM     18  O   UNL d   1     -45.293  13.983  22.609  0.00  0.00    -0.258 OA
BRANCH  17  19
ATOM     19  O   UNL d   1     -44.805  12.804  21.968  0.00  0.00    -0.271 OA
BRANCH  19  20
ATOM     20  C   UNL d   1     -44.113  13.192  21.750  0.00  0.00     0.126 C 
ATOM     21  C   UNL d   1     -43.519  12.788  21.343  0.00  0.00     0.029 C 
ENDBRANCH  19  20
ENDBRANCH  17  19
ENDBRANCH   1  17
TORSDOF 6
ENDMDL
MODEL 3
REMARK VINA RESULT:      -5.8      1.567      4.444
REMARK  6 active torsions:
REMARK  status: ('A' for Active; 'I' for Inactive)
REMARK    1  A    between atoms: C_6  and  C_1 
REMARK    2  A    between atoms: N_7  and  C_2 
REMARK    3  A    between atoms: C_8  and  N_5 
REMARK    4  A    between atoms: O_13  and  C_6 
REMARK    5  A    between atoms: C_18  and  O_13 
REMARK    6  A    between atoms: O_17  and  C_14 
ROOT
ATOM      1  C   UNL d   1     -48.791  13.777  22.803  0.00  0.00     0.112 A 
ATOM      2  C   UNL d   1     -47.505  14.123  22.985  0.00  0.00     0.172 A 
ATOM      3  C   UNL d   1     -48.340  13.088  22.849  0.00  0.00     0.077 A 
ATOM      4  S   UNL d   1     -48.277  14.419  22.886  0.00  0.00    -0.044 SA
ATOM      5  N   UNL d   1     -47.545  13.302  22.962  0.00  0.00    -0.287 N 
ATOM      6  C   UNL d   1     -48.640  12.314  22.792  0.00  0.00     0.020 C 
ENDROOT
BRANCH   5   7
ATOM      7  C   UNL d   1     -46.887  12.810  23.040  0.00  0.00     0.066 A 
ATOM      8  C   UNL d   1     -46.243  12.907  22.534  0.00  0.00     0.020 A 
ATOM      9  C   UNL d   1     -45.588  12.414  22.615  0.00  0.00     0.026 A 
ATOM     10  C   UNL d   1     -45.576  11.832  23.193  0.00  0.00     0.094 A 
ATOM     11  C   UNL d   1     -46.222  11.739  23.697  0.00  0.00     0.026 A 
ATOM     12  C   UNL d   1     -46.877  12.232  23.616  0.00  0.00     0.020 A 
BRANCH  10  13
ATOM     13  O   UNL d   1     -44.913  11.334  23.274  0.00  0.00    -0.328 OA
ATOM     14  C   UNL d   1     -44.997  10.596  23.632  0.00  0.00     0.181 C 
ENDBRANCH  10  13
ENDBRANCH   5   7
BRANCH   2  15
ATOM     15  N   UNL d   1     -46.823  14.577  23.087  0.00  0.00    -0.277 NA
ATOM     16  H   UNL d   1     -46.107  14.323  22.767  0.00  0.00     0.189 HD
ENDBRANCH   2  15
BRANCH   1  17
ATOM     17  C   UNL d   1     -49.609  13.818  22.693  0.00  0.00     0.308 C 
ATOM     18  O   UNL d   1     -50.116  13.555  23.279  0.00  0.00    -0.258 OA
BRANCH  17  19
ATOM     19  O   UNL d   1     -49.916  14.127  21.986  0.00  0.00    -0.271 OA
BRANCH  19  20
ATOM     20  C   UNL d   1     -50.722  14.272  21.907  0.00  0.00     0.126 C 
ATOM     21  C   UNL d   1     -51.058  14.360  21.158  0.00  0.00     0.029 C 
ENDBRANCH  19  20
ENDBRANCH  17  19
ENDBRANCH   1  17
TORSDOF 6
ENDMDL
MODEL 4
REMARK VINA RESULT:      -5.7      1.409      4.317
REMARK  6 active torsions:
REMARK  status: ('A' for Active; 'I' for Inactive)
REMARK    1  A    between atoms: C_6  and  C_1 
REMARK    2  A    between atoms: N_7  and  C_2 
REMARK    3  A    between atoms: C_8  and  N_5 
REMARK    4  A    between atoms: O_13  and  C_6 
REMARK    5  A    between atoms: C_18  and  O_13 
REMARK    6  A    between atoms: O_17  and  C_14 
ROOT
ATOM      1  C   UNL d   1     -48.773  13.597  22.478  0.00  0.00     0.112 A 
ATOM      2  C   UNL d   1     -48.478  12.288  22.551  0.00  0.00     0.172 A 
ATOM      3  C   UNL d   1     -47.975  13.520  22.670  0.00  0.00     0.077 A 
ATOM      4  S   UNL d   1     -49.087  12.836  22.403  0.00  0.00    -0.044 SA
ATOM      5  N   UNL d   1     -47.793  12.711  22.715  0.00  0.00    -0.287 N 
ATOM      6  C   UNL d   1     -47.449  14.153  22.796  0.00  0.00     0.020 C 
ENDROOT
BRANCH   5   7
ATOM      7  C   UNL d   1     -47.067  12.357  22.890  0.00  0.00     0.066 A 
ATOM      8  C   UNL d   1     -47.012  11.835  23.526  0.00  0.00     0.020 A 
ATOM      9  C   UNL d   1     -46.287  11.484  23.698  0.00  0.00     0.026 A 
ATOM     10  C   UNL d   1     -45.626  11.651  23.242  0.00  0.00     0.094 A 
ATOM     11  C   UNL d   1     -45.687  12.174  22.606  0.00  0.00     0.026 A 
ATOM     12  C   UNL d   1     -46.411  12.525  22.434  0.00  0.00     0.020 A 
BRANCH  10  13
ATOM     13  O   UNL d   1     -44.894  11.295  23.416  0.00  0.00    -0.328 OA
ATOM     14  C   UNL d   1     -44.872  10.519  23.698  0.00  0.00     0.181 C 
ENDBRANCH  10  13
ENDBRANCH   5   7
BRANCH   2  15
ATOM     15  N   UNL d   1     -48.553  11.466  22.533  0.00  0.00    -0.277 NA
ATOM     16  H   UNL d   1     -48.974  11.103  21.926  0.00  0.00     0.189 HD
ENDBRANCH   2  15
BRANCH   1  17
ATOM     17  C   UNL d   1     -49.185  14.307  22.378  0.00  0.00     0.308 C 
ATOM     18  O   UNL d   1     -49.266  14.633  21.631  0.00  0.00    -0.258 OA
BRANCH  17  19
ATOM     19  O   UNL d   1     -49.516  14.688  23.037  0.00  0.00    -0.271 OA
BRANCH  19  20
ATOM     20  C   UNL d   1     -49.893  15.415  22.955  0.00  0.00     0.126 C 
ATOM     21  C   UNL d   1     -50.331  15.730  23.579  0.00  0.00     0.029 C 
ENDBRANCH  19  20
ENDBRANCH  17  19
ENDBRANCH   1  17
TORSDOF 6
ENDMDL
MODEL 5
REMARK VINA RESULT:      -5.2      7.975      8.850
REMARK  6 active torsions:
REMARK  status: ('A' for Active; 'I' for Inactive)
REMARK    1  A    between atoms: C_6  and  C_1 
REMARK    2  A    between atoms: N_7  and  C_2 
REMARK    3  A    between atoms: C_8  and  N_5 
REMARK    4  A    between atoms: O_13  and  C_6 
REMARK    5  A    between atoms: C_18  and  O_13 
REMARK    6  A    between atoms: O_17  and  C_14 
ROOT
ATOM      1  C   UNL d   1     -39.320  15.084  20.759  0.00  0.00     0.112 A 
ATOM      2  C   UNL d   1     -38.881  15.307  19.508  0.00  0.00     0.172 A 
ATOM      3  C   UNL d   1     -39.963  15.035  20.244  0.00  0.00     0.077 A 
ATOM      4  S   UNL d   1     -38.649  15.252  20.306  0.00  0.00    -0.044 SA
ATOM      5  N   UNL d   1     -39.691  15.173  19.472  0.00  0.00    -0.287 N 
ATOM      6  C   UNL d   1     -40.747  14.874  20.471  0.00  0.00     0.020 C 
ENDROOT
BRANCH   5   7
ATOM      7  C   UNL d   1     -40.125  15.182  18.769  0.00  0.00     0.066 A 
ATOM      8  C   UNL d   1     -40.168  14.500  18.308  0.00  0.00     0.020 A 
ATOM      9  C   UNL d   1     -40.601  14.512  17.608  0.00  0.00     0.026 A 
ATOM     10  C   UNL d   1     -40.987  15.196  17.370  0.00  0.00     0.094 A 
ATOM     11  C   UNL d   1     -40.941  15.877  17.835  0.00  0.00     0.026 A 
ATOM     12  C   UNL d   1     -40.507  15.864  18.535  0.00  0.00     0.020 A 
BRANCH  10  13
ATOM     13  O   UNL d   1     -41.425  15.208  16.662  0.00  0.00    -0.328 OA
ATOM     14  C   UNL d   1     -41.725  15.922  16.377  0.00  0.00     0.181 C 
ENDBRANCH  10  13
ENDBRANCH   5   7
BRANCH   2  15
ATOM     15  N   UNL d   1     -38.382  15.468  18.870  0.00  0.00    -0.277 NA
ATOM     16  H   UNL d   1     -37.817  16.064  18.929  0.00  0.00     0.189 HD
ENDBRANCH   2  15
BRANCH   1  17
ATOM     17  C   UNL d   1     -39.342  14.983  21.579  0.00  0.00     0.308 C 
ATOM     18  O   UNL d   1     -39.640  15.577  22.058  0.00  0.00    -0.258 OA
BRANCH  17  19
ATOM     19  O   UNL d   1     -39.062  14.278  21.916  0.00  0.00    -0.271 OA
BRANCH  19  20
ATOM     20  C   UNL d   1     -38.907  14.231  22.722  0.00  0.00     0.126 C 
ATOM     21  C   UNL d   1     -38.661  13.519  23.059  0.00  0.00     0.029 C 
ENDBRANCH  19  20
ENDBRANCH  17  19
ENDBRANCH   1  17
TORSDOF 6
ENDMDL
MODEL 6
REMARK VINA RESULT:      -5.0      8.002      9.132
REMARK  6 active torsions:
REMARK  status: ('A' for Active; 'I' for Inactive)
REMARK    1  A    between atoms: C_6  and  C_1 
REMARK    2  A    between atoms: N_7  and  C_2 
REMARK    3  A    between atoms: C_8  and  N_5 
REMARK    4  A    between atoms: O_13  and  C_6 
REMARK    5  A    between atoms: C_18  and  O_13 
REMARK    6  A    between atoms: O_17  and  C_14 
ROOT
ATOM      1  C   UNL d   1     -39.948  14.596  18.862  0.00  0.00     0.112 A 
ATOM      2  C   UNL d   1     -38.774  14.606  19.517  0.00  0.00     0.172 A 
ATOM      3  C   UNL d   1     -40.102  14.624  19.672  0.00  0.00     0.077 A 
ATOM      4  S   UNL d   1     -39.127  14.585  18.763  0.00  0.00    -0.044 SA
ATOM      5  N   UNL d   1     -39.376  14.630  20.076  0.00  0.00    -0.287 N 
ATOM      6  C   UNL d   1     -40.859  14.642  20.015  0.00  0.00     0.020 C 
ENDROOT
BRANCH   5   7
ATOM      7  C   UNL d   1     -39.243  14.655  20.891  0.00  0.00     0.066 A 
ATOM      8  C   UNL d   1     -39.204  15.383  21.275  0.00  0.00     0.020 A 
ATOM      9  C   UNL d   1     -39.071  15.405  22.088  0.00  0.00     0.026 A 
ATOM     10  C   UNL d   1     -38.978  14.709  22.511  0.00  0.00     0.094 A 
ATOM     11  C   UNL d   1     -39.017  13.982  22.123  0.00  0.00     0.026 A 
ATOM     12  C   UNL d   1     -39.150  13.961  21.310  0.00  0.00     0.020 A 
BRANCH  10  13
ATOM     13  O   UNL d   1     -38.843  14.732  23.333  0.00  0.00    -0.328 OA
ATOM     14  C   UNL d   1     -38.070  14.723  23.622  0.00  0.00     0.181 C 
ENDBRANCH  10  13
ENDBRANCH   5   7
BRANCH   2  15
ATOM     15  N   UNL d   1     -37.963  14.603  19.671  0.00  0.00    -0.277 NA
ATOM     16  H   UNL d   1     -37.468  14.087  19.263  0.00  0.00     0.189 HD
ENDBRANCH   2  15
BRANCH   1  17
ATOM     17  C   UNL d   1     -40.512  14.582  18.258  0.00  0.00     0.308 C 
ATOM     18  O   UNL d   1     -40.914  13.889  18.087  0.00  0.00    -0.258 OA
BRANCH  17  19
ATOM     19  O   UNL d   1     -40.671  15.272  17.825  0.00  0.00    -0.271 OA
BRANCH  19  20
ATOM     20  C   UNL d   1     -41.044  15.231  17.093  0.00  0.00     0.126 C 
ATOM     21  C   UNL d   1     -41.331  15.916  16.733  0.00  0.00     0.029 C 
ENDBRANCH  19  20
ENDBRANCH  17  19
ENDBRANCH   1  17
TORSDOF 6
ENDMDL
MODEL 7
REMARK VINA RESULT:      -4.8      8.550     10.123
REMARK  6 active torsions:
REMARK  status: ('A' for Active; 'I' for Inactive)
REMARK    1  A    between atoms: C_6  and  C_1 
REMARK    2  A    between atoms: N_7  and  C_2 
REMARK    3  A    between atoms: C_8  and  N_5 
REMARK    4  A    between atoms: O_13  and  C_6 
REMARK    5  A    between atoms: C_18  and  O_13 
REMARK    6  A    between atoms: O_17  and  C_14 
ROOT
ATOM      1  C   UNL d   1     -39.612  14.553  19.610  0.00  0.00     0.112 A 
ATOM      2  C   UNL d   1     -40.193  14.216  18.446  0.00  0.00     0.172 A 
ATOM      3  C   UNL d   1     -39.044  14.598  19.013  0.00  0.00     0.077 A 
ATOM      4  S   UNL d   1     -40.323  14.317  19.262  0.00  0.00    -0.044 SA
ATOM      5  N   UNL d   1     -39.404  14.390  18.294  0.00  0.00    -0.287 N 
ATOM      6  C   UNL d   1     -38.249  14.817  19.123  0.00  0.00     0.020 C 
ENDROOT
BRANCH   5   7
ATOM      7  C   UNL d   1     -39.064  14.352  17.542  0.00  0.00     0.066 A 
ATOM      8  C   UNL d   1     -39.106  15.007  17.043  0.00  0.00     0.020 A 
ATOM      9  C   UNL d   1     -38.766  14.967  16.294  0.00  0.00     0.026 A 
ATOM     10  C   UNL d   1     -38.390  14.281  16.046  0.00  0.00     0.094 A 
ATOM     11  C   UNL d   1     -38.351  13.628  16.548  0.00  0.00     0.026 A 
ATOM     12  C   UNL d   1     -38.691  13.669  17.298  0.00  0.00     0.020 A 
BRANCH  10  13
ATOM     13  O   UNL d   1     -38.047  14.241  15.288  0.00  0.00    -0.328 OA
ATOM     14  C   UNL d   1     -37.972  13.511  14.910  0.00  0.00     0.181 C 
ENDBRANCH  10  13
ENDBRANCH   5   7
BRANCH   2  15
ATOM     15  N   UNL d   1     -40.758  13.982  17.892  0.00  0.00    -0.277 NA
ATOM     16  H   UNL d   1     -40.533  13.540  17.234  0.00  0.00     0.189 HD
ENDBRANCH   2  15
BRANCH   1  17
ATOM     17  C   UNL d   1     -39.490  14.715  20.412  0.00  0.00     0.308 C 
ATOM     18  O   UNL d   1     -39.475  15.490  20.677  0.00  0.00    -0.258 OA
BRANCH  17  19
ATOM     19  O   UNL d   1     -39.384  14.090  20.948  0.00  0.00    -0.271 OA
BRANCH  19  20
ATOM     20  C   UNL d   1     -39.398  14.227  21.759  0.00  0.00     0.126 C 
ATOM     21  C   UNL d   1     -39.214  13.620  22.287  0.00  0.00     0.029 C 
ENDBRANCH  19  20
ENDBRANCH  17  19
ENDBRANCH   1  17
TORSDOF 6
ENDMDL
MODEL 8
REMARK VINA RESULT:      -4.8      8.120      9.299
REMARK  6 active torsions:
REMARK  status: ('A' for Active; 'I' for Inactive)
REMARK    1  A    between atoms: C_6  and  C_1 
REMARK    2  A    between atoms: N_7  and  C_2 
REMARK    3  A    between atoms: C_8  and  N_5 
REMARK    4  A    between atoms: O_13  and  C_6 
REMARK    5  A    between atoms: C_18  and  O_13 
REMARK    6  A    between atoms: O_17  and  C_14 
ROOT
ATOM      1  C   UNL d   1     -39.616  14.875  17.600  0.00  0.00     0.112 A 
ATOM      2  C   UNL d   1     -40.443  14.398  18.545  0.00  0.00     0.172 A 
ATOM      3  C   UNL d   1     -39.362  15.154  18.333  0.00  0.00     0.077 A 
ATOM      4  S   UNL d   1     -40.285  14.406  17.728  0.00  0.00    -0.044 SA
ATOM      5  N   UNL d   1     -39.874  14.859  18.917  0.00  0.00    -0.287 N 
ATOM      6  C   UNL d   1     -38.704  15.647  18.456  0.00  0.00     0.020 C 
ENDROOT
BRANCH   5   7
ATOM      7  C   UNL d   1     -39.848  14.984  19.733  0.00  0.00     0.066 A 
ATOM      8  C   UNL d   1     -39.411  14.472  20.210  0.00  0.00     0.020 A 
ATOM      9  C   UNL d   1     -39.387  14.600  21.023  0.00  0.00     0.026 A 
ATOM     10  C   UNL d   1     -39.794  15.229  21.357  0.00  0.00     0.094 A 
ATOM     11  C   UNL d   1     -40.229  15.739  20.875  0.00  0.00     0.026 A 
ATOM     12  C   UNL d   1     -40.253  15.612  20.062  0.00  0.00     0.020 A 
BRANCH  10  13
ATOM     13  O   UNL d   1     -39.769  15.357  22.179  0.00  0.00    -0.328 OA
ATOM     14  C   UNL d   1     -39.254  15.922  22.491  0.00  0.00     0.181 C 
ENDBRANCH  10  13
ENDBRANCH   5   7
BRANCH   2  15
ATOM     15  N   UNL d   1     -41.064  13.996  18.913  0.00  0.00    -0.277 NA
ATOM     16  H   UNL d   1     -41.493  13.430  18.496  0.00  0.00     0.189 HD
ENDBRANCH   2  15
BRANCH   1  17
ATOM     17  C   UNL d   1     -39.265  15.034  16.869  0.00  0.00     0.308 C 
ATOM     18  O   UNL d   1     -39.421  15.739  16.483  0.00  0.00    -0.258 OA
BRANCH  17  19
ATOM     19  O   UNL d   1     -38.753  14.478  16.526  0.00  0.00    -0.271 OA
BRANCH  19  20
ATOM     20  C   UNL d   1     -38.419  14.614  15.787  0.00  0.00     0.126 C 
ATOM     21  C   UNL d   1     -37.963  14.031  15.421  0.00  0.00     0.029 C 
ENDBRANCH  19  20
ENDBRANCH  17  19
ENDBRANCH   1  17
TORSDOF 6
ENDMDL
