MODEL 1
REMARK VINA RESULT:      -2.8      0.000      0.000
REMARK  1 active torsions:
REMARK  status: ('A' for Active; 'I' for Inactive)
REMARK    1  A    between atoms: C_9  and  C_1 
ROOT
ATOM      1  C   UNL d   1      30.992  17.644 -24.368  0.00  0.00     0.087 A 
ATOM      2  N   UNL d   1      30.354  18.063 -24.734  0.00  0.00    -0.191 NA
ATOM      3  C   UNL d   1      30.857  16.924 -24.005  0.00  0.00     0.036 A 
ATOM      4  C   UNL d   1      29.571  17.702 -24.706  0.00  0.00     0.369 A 
ATOM      5  N   UNL d   1      29.487  16.951 -24.314  0.00  0.00    -0.191 NA
ATOM      6  C   UNL d   1      30.112  16.581 -23.978  0.00  0.00     0.088 A 
ATOM      7  C   UNL d   1      31.524  16.543 -23.653  0.00  0.00     0.014 A 
ATOM      8  O   UNL d   1      28.860  18.063 -25.056  0.00  0.00    -0.242 OA
ATOM      9  C   UNL d   1      30.019  15.851 -23.600  0.00  0.00     0.020 A 
ATOM     10  C   UNL d   1      31.436  15.825 -23.281  0.00  0.00     0.058 A 
ATOM     11  C   UNL d   1      30.652  15.464 -23.253  0.00  0.00     0.013 A 
ATOM     12 CL   UNL d   1      32.121  15.453 -22.930  0.00  0.00    -0.082 Cl
ENDROOT
BRANCH   1  13
ATOM     13  C   UNL d   1      31.707  17.973 -24.393  0.00  0.00     0.018 A 
ATOM     14  C   UNL d   1      32.197  17.822 -25.033  0.00  0.00     0.002 A 
ATOM     15  C   UNL d   1      32.949  18.146 -25.096  0.00  0.00     0.000 A 
ATOM     16  C   UNL d   1      33.241  18.678 -24.448  0.00  0.00     0.000 A 
ATOM     17  C   UNL d   1      32.733  18.817 -23.813  0.00  0.00     0.000 A 
ATOM     18  C   UNL d   1      31.978  18.470 -23.786  0.00  0.00     0.002 A 
ENDBRANCH   1  13
TORSDOF 1
ENDMDL
MODEL 2
REMARK VINA RESULT:      -2.2      5.006      6.297
REMARK  1 active torsions:
REMARK  status: ('A' for Active; 'I' for Inactive)
REMARK    1  A    between atoms: C_9  and  C_1 
ROOT
ATOM      1  C   UNL d   1      32.747  22.862 -21.764  0.00  0.00     0.087 A 
ATOM      2  N   UNL d   1      32.712  23.421 -22.398  0.00  0.00    -0.191 NA
ATOM      3  C   UNL d   1      32.912  22.076 -21.916  0.00  0.00     0.036 A 
ATOM      4  C   UNL d   1      32.856  23.128 -23.197  0.00  0.00     0.369 A 
ATOM      5  N   UNL d   1      33.023  22.300 -23.298  0.00  0.00    -0.191 NA
ATOM      6  C   UNL d   1      33.049  21.798 -22.675  0.00  0.00     0.088 A 
ATOM      7  C   UNL d   1      32.936  21.556 -21.251  0.00  0.00     0.014 A 
ATOM      8  O   UNL d   1      32.840  23.633 -23.907  0.00  0.00    -0.242 OA
ATOM      9  C   UNL d   1      33.213  20.994 -22.785  0.00  0.00     0.020 A 
ATOM     10  C   UNL d   1      33.097  20.765 -21.356  0.00  0.00     0.058 A 
ATOM     11  C   UNL d   1      33.241  20.473 -22.155  0.00  0.00     0.013 A 
ATOM     12 CL   UNL d   1      33.117  20.252 -20.672  0.00  0.00    -0.082 Cl
ENDROOT
BRANCH   1  13
ATOM     13  C   UNL d   1      32.615  23.130 -21.034  0.00  0.00     0.018 A 
ATOM     14  C   UNL d   1      31.844  23.218 -20.771  0.00  0.00     0.002 A 
ATOM     15  C   UNL d   1      31.666  23.493 -20.018  0.00  0.00     0.000 A 
ATOM     16  C   UNL d   1      32.333  23.702 -19.471  0.00  0.00     0.000 A 
ATOM     17  C   UNL d   1      33.102  23.606 -19.755  0.00  0.00     0.000 A 
ATOM     18  C   UNL d   1      33.241  23.324 -20.524  0.00  0.00     0.002 A 
ENDBRANCH   1  13
TORSDOF 1
ENDMDL
MODEL 3
REMARK VINA RESULT:      -2.0      4.645      6.093
REMARK  1 active torsions:
REMARK  status: ('A' for Active; 'I' for Inactive)
REMARK    1  A    between atoms: C_9  and  C_1 
ROOT
ATOM      1  C   UNL d   1      32.798  21.583 -21.621  0.00  0.00     0.087 A 
ATOM      2  N   UNL d   1      32.792  20.769 -21.388  0.00  0.00    -0.191 NA
ATOM      3  C   UNL d   1      32.947  21.788 -22.398  0.00  0.00     0.036 A 
ATOM      4  C   UNL d   1      32.947  20.178 -21.997  0.00  0.00     0.369 A 
ATOM      5  N   UNL d   1      33.096  20.448 -22.790  0.00  0.00    -0.191 NA
ATOM      6  C   UNL d   1      33.094  21.226 -22.977  0.00  0.00     0.088 A 
ATOM      7  C   UNL d   1      32.942  22.612 -22.582  0.00  0.00     0.014 A 
ATOM      8  O   UNL d   1      32.960  19.321 -21.847  0.00  0.00    -0.242 OA
ATOM      9  C   UNL d   1      33.241  21.477 -23.752  0.00  0.00     0.020 A 
ATOM     10  C   UNL d   1      33.086  22.862 -23.343  0.00  0.00     0.058 A 
ATOM     11  C   UNL d   1      33.241  22.270 -23.953  0.00  0.00     0.013 A 
ATOM     12 CL   UNL d   1      33.077  23.700 -23.513  0.00  0.00    -0.082 Cl
ENDROOT
BRANCH   1  13
ATOM     13  C   UNL d   1      32.656  22.122 -21.064  0.00  0.00     0.018 A 
ATOM     14  C   UNL d   1      33.241  22.301 -20.519  0.00  0.00     0.002 A 
ATOM     15  C   UNL d   1      33.132  22.858 -19.924  0.00  0.00     0.000 A 
ATOM     16  C   UNL d   1      32.352  23.279 -19.872  0.00  0.00     0.000 A 
ATOM     17  C   UNL d   1      31.776  23.085 -20.430  0.00  0.00     0.000 A 
ATOM     18  C   UNL d   1      31.926  22.515 -21.017  0.00  0.00     0.002 A 
ENDBRANCH   1  13
TORSDOF 1
ENDMDL
MODEL 4
REMARK VINA RESULT:      -1.1      4.887      5.979
REMARK  1 active torsions:
REMARK  status: ('A' for Active; 'I' for Inactive)
REMARK    1  A    between atoms: C_9  and  C_1 
ROOT
ATOM      1  C   UNL d   1      32.796  22.415 -21.447  0.00  0.00     0.087 A 
ATOM      2  N   UNL d   1      32.902  22.851 -20.729  0.00  0.00    -0.191 NA
ATOM      3  C   UNL d   1      32.839  21.599 -21.442  0.00  0.00     0.036 A 
ATOM      4  C   UNL d   1      33.054  22.403 -20.007  0.00  0.00     0.369 A 
ATOM      5  N   UNL d   1      33.088  21.554 -20.061  0.00  0.00    -0.191 NA
ATOM      6  C   UNL d   1      32.983  21.173 -20.757  0.00  0.00     0.088 A 
ATOM      7  C   UNL d   1      32.727  21.207 -22.182  0.00  0.00     0.014 A 
ATOM      8  O   UNL d   1      33.174  22.769 -19.227  0.00  0.00    -0.242 OA
ATOM      9  C   UNL d   1      33.018  20.346 -20.797  0.00  0.00     0.020 A 
ATOM     10  C   UNL d   1      32.760  20.395 -22.225  0.00  0.00     0.058 A 
ATOM     11  C   UNL d   1      32.912  19.947 -21.503  0.00  0.00     0.013 A 
ATOM     12 CL   UNL d   1      32.645  20.014 -22.982  0.00  0.00    -0.082 Cl
ENDROOT
BRANCH   1  13
ATOM     13  C   UNL d   1      32.658  22.824 -22.106  0.00  0.00     0.018 A 
ATOM     14  C   UNL d   1      31.922  23.166 -22.219  0.00  0.00     0.002 A 
ATOM     15  C   UNL d   1      31.738  23.601 -22.892  0.00  0.00     0.000 A 
ATOM     16  C   UNL d   1      32.361  23.701 -23.518  0.00  0.00     0.000 A 
ATOM     17  C   UNL d   1      33.095  23.349 -23.384  0.00  0.00     0.000 A 
ATOM     18  C   UNL d   1      33.241  22.917 -22.689  0.00  0.00     0.002 A 
ENDBRANCH   1  13
TORSDOF 1
ENDMDL
MODEL 5
REMARK VINA RESULT:      -1.1      5.046      6.258
REMARK  1 active torsions:
REMARK  status: ('A' for Active; 'I' for Inactive)
REMARK    1  A    between atoms: C_9  and  C_1 
ROOT
ATOM      1  C   UNL d   1      32.821  21.738 -21.564  0.00  0.00     0.087 A 
ATOM      2  N   UNL d   1      32.814  20.974 -21.927  0.00  0.00    -0.191 NA
ATOM      3  C   UNL d   1      32.961  21.811 -20.762  0.00  0.00     0.036 A 
ATOM      4  C   UNL d   1      32.958  20.289 -21.422  0.00  0.00     0.369 A 
ATOM      5  N   UNL d   1      33.097  20.424 -20.593  0.00  0.00    -0.191 NA
ATOM      6  C   UNL d   1      33.098  21.161 -20.282  0.00  0.00     0.088 A 
ATOM      7  C   UNL d   1      32.959  22.594 -20.444  0.00  0.00     0.014 A 
ATOM      8  O   UNL d   1      32.968  19.469 -21.711  0.00  0.00    -0.242 OA
ATOM      9  C   UNL d   1      33.235  21.280 -19.474  0.00  0.00     0.020 A 
ATOM     10  C   UNL d   1      33.093  22.714 -19.651  0.00  0.00     0.058 A 
ATOM     11  C   UNL d   1      33.237  22.029 -19.145  0.00  0.00     0.013 A 
ATOM     12 CL   UNL d   1      33.087  23.513 -19.346  0.00  0.00    -0.082 Cl
ENDROOT
BRANCH   1  13
ATOM     13  C   UNL d   1      32.690  22.363 -22.026  0.00  0.00     0.018 A 
ATOM     14  C   UNL d   1      33.241  22.562 -22.599  0.00  0.00     0.002 A 
ATOM     15  C   UNL d   1      33.140  23.206 -23.099  0.00  0.00     0.000 A 
ATOM     16  C   UNL d   1      32.408  23.702 -23.015  0.00  0.00     0.000 A 
ATOM     17  C   UNL d   1      31.866  23.485 -22.432  0.00  0.00     0.000 A 
ATOM     18  C   UNL d   1      32.005  22.826 -21.945  0.00  0.00     0.002 A 
ENDBRANCH   1  13
TORSDOF 1
ENDMDL
MODEL 6
REMARK VINA RESULT:      -0.9      1.527      2.280
REMARK  1 active torsions:
REMARK  status: ('A' for Active; 'I' for Inactive)
REMARK    1  A    between atoms: C_9  and  C_1 
ROOT
ATOM      1  C   UNL d   1      31.673  17.357 -24.534  0.00  0.00     0.087 A 
ATOM      2  N   UNL d   1      32.034  18.100 -24.717  0.00  0.00    -0.191 NA
ATOM      3  C   UNL d   1      30.859  17.283 -24.532  0.00  0.00     0.036 A 
ATOM      4  C   UNL d   1      31.512  18.763 -24.898  0.00  0.00     0.369 A 
ATOM      5  N   UNL d   1      30.672  18.630 -24.881  0.00  0.00    -0.191 NA
ATOM      6  C   UNL d   1      30.364  17.913 -24.703  0.00  0.00     0.088 A 
ATOM      7  C   UNL d   1      30.546  16.521 -24.343  0.00  0.00     0.014 A 
ATOM      8  O   UNL d   1      31.796  19.561 -25.097  0.00  0.00    -0.242 OA
ATOM      9  C   UNL d   1      29.544  17.795 -24.690  0.00  0.00     0.020 A 
ATOM     10  C   UNL d   1      29.741  16.402 -24.329  0.00  0.00     0.058 A 
ATOM     11  C   UNL d   1      29.219  17.065 -24.509  0.00  0.00     0.013 A 
ATOM     12 CL   UNL d   1      29.440  15.625 -24.135  0.00  0.00    -0.082 Cl
ENDROOT
BRANCH   1  13
ATOM     13  C   UNL d   1      32.150  16.751 -24.369  0.00  0.00     0.018 A 
ATOM     14  C   UNL d   1      32.372  16.614 -23.592  0.00  0.00     0.002 A 
ATOM     15  C   UNL d   1      32.867  15.994 -23.380  0.00  0.00     0.000 A 
ATOM     16  C   UNL d   1      33.171  15.453 -24.015  0.00  0.00     0.000 A 
ATOM     17  C   UNL d   1      32.935  15.608 -24.791  0.00  0.00     0.000 A 
ATOM     18  C   UNL d   1      32.433  16.247 -24.965  0.00  0.00     0.002 A 
ENDBRANCH   1  13
TORSDOF 1
ENDMDL
MODEL 7
REMARK VINA RESULT:       0.0      4.738      6.205
REMARK  1 active torsions:
REMARK  status: ('A' for Active; 'I' for Inactive)
REMARK    1  A    between atoms: C_9  and  C_1 
ROOT
ATOM      1  C   UNL d   1      32.701  21.634 -21.301  0.00  0.00     0.087 A 
ATOM      2  N   UNL d   1      32.559  21.709 -20.470  0.00  0.00    -0.191 NA
ATOM      3  C   UNL d   1      32.830  22.299 -21.758  0.00  0.00     0.036 A 
ATOM      4  C   UNL d   1      32.558  22.504 -20.135  0.00  0.00     0.369 A 
ATOM      5  N   UNL d   1      32.698  23.161 -20.657  0.00  0.00    -0.191 NA
ATOM      6  C   UNL d   1      32.828  23.055 -21.439  0.00  0.00     0.088 A 
ATOM      7  C   UNL d   1      32.967  22.175 -22.582  0.00  0.00     0.014 A 
ATOM      8  O   UNL d   1      32.421  22.673 -19.292  0.00  0.00    -0.242 OA
ATOM      9  C   UNL d   1      32.964  23.702 -21.938  0.00  0.00     0.020 A 
ATOM     10  C   UNL d   1      33.100  22.809 -23.075  0.00  0.00     0.058 A 
ATOM     11  C   UNL d   1      33.098  23.604 -22.740  0.00  0.00     0.013 A 
ATOM     12 CL   UNL d   1      33.237  22.665 -23.907  0.00  0.00    -0.082 Cl
ENDROOT
BRANCH   1  13
ATOM     13  C   UNL d   1      32.702  20.908 -21.607  0.00  0.00     0.018 A 
ATOM     14  C   UNL d   1      32.162  20.718 -22.193  0.00  0.00     0.002 A 
ATOM     15  C   UNL d   1      32.131  19.972 -22.537  0.00  0.00     0.000 A 
ATOM     16  C   UNL d   1      32.705  19.352 -22.263  0.00  0.00     0.000 A 
ATOM     17  C   UNL d   1      33.241  19.564 -21.673  0.00  0.00     0.000 A 
ATOM     18  C   UNL d   1      33.239  20.330 -21.350  0.00  0.00     0.002 A 
ENDBRANCH   1  13
TORSDOF 1
ENDMDL
