MODEL 1
REMARK VINA RESULT:      18.8      0.000      0.000
REMARK  2 active torsions:
REMARK  status: ('A' for Active; 'I' for Inactive)
REMARK    1  A    between atoms: C_2  and  S_1 
REMARK    2  A    between atoms: C_7  and  C_3 
ROOT
ATOM      1  C   UNL d   1      59.659  49.661  50.770  0.00  0.00     0.117 A 
ATOM      2  C   UNL d   1      58.242  49.657  50.544  0.00  0.00     0.076 A 
ATOM      3  C   UNL d   1      58.887  49.645  51.061  0.00  0.00     0.021 A 
ATOM      4  C   UNL d   1      59.794  49.689  49.959  0.00  0.00     0.071 A 
ATOM      5  C   UNL d   1      58.377  49.686  49.731  0.00  0.00     0.065 A 
ATOM      6  C   UNL d   1      59.156  49.702  49.438  0.00  0.00     0.024 A 
ATOM      7 CL   UNL d   1      57.739  49.699  49.211  0.00  0.00    -0.082 Cl
ATOM      8 CL   UNL d   1      60.565  49.705  49.669  0.00  0.00    -0.082 Cl
ENDROOT
BRANCH   1   9
ATOM      9  S   UNL d   1      60.298  49.648  51.296  0.00  0.00     0.303 S 
ATOM     10  O   UNL d   1      60.822  49.629  50.666  0.00  0.00    -0.197 OA
ATOM     11  O   UNL d   1      59.773  49.667  51.944  0.00  0.00    -0.197 OA
ATOM     12  N   UNL d   1      60.931  49.635  51.828  0.00  0.00    -0.043 N 
ENDBRANCH   1   9
BRANCH   2  13
ATOM     13  C   UNL d   1      57.471  49.642  50.838  0.00  0.00     0.212 C 
ATOM     14  O   UNL d   1      56.831  49.604  50.323  0.00  0.00    -0.644 OA
ATOM     15  O   UNL d   1      57.346  49.664  51.655  0.00  0.00    -0.644 OA
ENDBRANCH   2  13
TORSDOF 2
ENDMDL
MODEL 2
REMARK VINA RESULT:      19.5      1.491      2.681
REMARK  2 active torsions:
REMARK  status: ('A' for Active; 'I' for Inactive)
REMARK    1  A    between atoms: C_2  and  S_1 
REMARK    2  A    between atoms: C_7  and  C_3 
ROOT
ATOM      1  C   UNL d   1      58.204  49.660  50.474  0.00  0.00     0.117 A 
ATOM      2  C   UNL d   1      59.514  49.635  51.059  0.00  0.00     0.076 A 
ATOM      3  C   UNL d   1      58.691  49.636  51.139  0.00  0.00     0.021 A 
ATOM      4  C   UNL d   1      58.535  49.683  49.721  0.00  0.00     0.071 A 
ATOM      5  C   UNL d   1      59.846  49.658  50.305  0.00  0.00     0.065 A 
ATOM      6  C   UNL d   1      59.354  49.682  49.633  0.00  0.00     0.024 A 
ATOM      7 CL   UNL d   1      60.665  49.657  50.218  0.00  0.00    -0.082 Cl
ATOM      8 CL   UNL d   1      58.049  49.708  49.056  0.00  0.00    -0.082 Cl
ENDROOT
BRANCH   1   9
ATOM      9  S   UNL d   1      57.382  49.661  50.564  0.00  0.00     0.303 S 
ATOM     10  O   UNL d   1      57.465  49.616  51.377  0.00  0.00    -0.197 OA
ATOM     11  O   UNL d   1      57.286  49.707  49.736  0.00  0.00    -0.197 OA
ATOM     12  N   UNL d   1      56.559  49.663  50.644  0.00  0.00    -0.043 N 
ENDBRANCH   1   9
BRANCH   2  13
ATOM     13  C   UNL d   1      59.998  49.610  51.727  0.00  0.00     0.212 C 
ATOM     14  O   UNL d   1      60.808  49.492  51.649  0.00  0.00    -0.644 OA
ATOM     15  O   UNL d   1      59.664  49.706  52.477  0.00  0.00    -0.644 OA
ENDBRANCH   2  13
TORSDOF 2
ENDMDL
