MODEL 1
REMARK VINA RESULT:      -5.5      0.000      0.000
REMARK  1 active torsions:
REMARK  status: ('A' for Active; 'I' for Inactive)
REMARK    1  A    between atoms: C_5  and  C_1 
ROOT
ATOM      1  C   UNL d   1     -46.424  12.946  23.132  0.00  0.00     0.169 A 
ATOM      2  N   UNL d   1     -45.929  12.373  23.445  0.00  0.00    -0.142 NA
ATOM      3  C   UNL d   1     -47.194  12.671  23.188  0.00  0.00     0.048 A 
ATOM      4  N   UNL d   1     -46.392  11.737  23.697  0.00  0.00    -0.148 NA
ATOM      5  C   UNL d   1     -47.179  11.923  23.537  0.00  0.00     0.105 A 
ATOM      6  C   UNL d   1     -47.833  11.447  23.697  0.00  0.00     0.023 C 
ENDROOT
BRANCH   1   7
ATOM      7  C   UNL d   1     -46.188  13.674  22.815  0.00  0.00     0.231 C 
ATOM      8  O   UNL d   1     -45.483  13.726  22.392  0.00  0.00    -0.643 OA
ATOM      9  O   UNL d   1     -46.657  14.342  22.923  0.00  0.00    -0.643 OA
ENDBRANCH   1   7
TORSDOF 1
ENDMDL
MODEL 2
REMARK VINA RESULT:      -5.4      1.585      2.248
REMARK  1 active torsions:
REMARK  status: ('A' for Active; 'I' for Inactive)
REMARK    1  A    between atoms: C_5  and  C_1 
ROOT
ATOM      1  C   UNL d   1     -46.545  12.504  23.356  0.00  0.00     0.169 A 
ATOM      2  N   UNL d   1     -45.826  12.895  23.334  0.00  0.00    -0.142 NA
ATOM      3  C   UNL d   1     -47.124  13.031  23.115  0.00  0.00     0.048 A 
ATOM      4  N   UNL d   1     -45.956  13.669  23.077  0.00  0.00    -0.148 NA
ATOM      5  C   UNL d   1     -46.764  13.753  22.941  0.00  0.00     0.105 A 
ATOM      6  C   UNL d   1     -47.144  14.437  22.678  0.00  0.00     0.023 C 
ENDROOT
BRANCH   1   7
ATOM      7  C   UNL d   1     -46.666  11.716  23.583  0.00  0.00     0.231 C 
ATOM      8  O   UNL d   1     -47.434  11.436  23.691  0.00  0.00    -0.643 OA
ATOM      9  O   UNL d   1     -46.023  11.217  23.698  0.00  0.00    -0.643 OA
ENDBRANCH   1   7
TORSDOF 1
ENDMDL
MODEL 3
REMARK VINA RESULT:      -5.3      1.696      2.384
REMARK  1 active torsions:
REMARK  status: ('A' for Active; 'I' for Inactive)
REMARK    1  A    between atoms: C_5  and  C_1 
ROOT
ATOM      1  C   UNL d   1     -47.414  12.280  23.330  0.00  0.00     0.169 A 
ATOM      2  N   UNL d   1     -46.702  12.114  23.697  0.00  0.00    -0.142 NA
ATOM      3  C   UNL d   1     -47.346  13.012  22.968  0.00  0.00     0.048 A 
ATOM      4  N   UNL d   1     -46.186  12.745  23.564  0.00  0.00    -0.148 NA
ATOM      5  C   UNL d   1     -46.587  13.303  23.110  0.00  0.00     0.105 A 
ATOM      6  C   UNL d   1     -46.284  14.024  22.845  0.00  0.00     0.023 C 
ENDROOT
BRANCH   1   7
ATOM      7  C   UNL d   1     -48.086  11.794  23.325  0.00  0.00     0.231 C 
ATOM      8  O   UNL d   1     -48.777  12.050  23.696  0.00  0.00    -0.643 OA
ATOM      9  O   UNL d   1     -48.062  11.061  22.953  0.00  0.00    -0.643 OA
ENDBRANCH   1   7
TORSDOF 1
ENDMDL
MODEL 4
REMARK VINA RESULT:      -5.1      1.724      2.097
REMARK  1 active torsions:
REMARK  status: ('A' for Active; 'I' for Inactive)
REMARK    1  A    between atoms: C_5  and  C_1 
ROOT
ATOM      1  C   UNL d   1     -46.919  13.383  22.796  0.00  0.00     0.169 A 
ATOM      2  N   UNL d   1     -47.501  12.967  22.398  0.00  0.00    -0.142 NA
ATOM      3  C   UNL d   1     -47.190  14.148  22.909  0.00  0.00     0.048 A 
ATOM      4  N   UNL d   1     -48.139  13.473  22.263  0.00  0.00    -0.148 NA
ATOM      5  C   UNL d   1     -47.945  14.209  22.581  0.00  0.00     0.105 A 
ATOM      6  C   UNL d   1     -48.420  14.883  22.572  0.00  0.00     0.023 C 
ENDROOT
BRANCH   1   7
ATOM      7  C   UNL d   1     -46.185  13.084  23.040  0.00  0.00     0.231 C 
ATOM      8  O   UNL d   1     -45.504  13.282  22.621  0.00  0.00    -0.643 OA
ATOM      9  O   UNL d   1     -46.139  12.592  23.698  0.00  0.00    -0.643 OA
ENDBRANCH   1   7
TORSDOF 1
ENDMDL
MODEL 5
REMARK VINA RESULT:      -4.7      1.416      1.669
REMARK  1 active torsions:
REMARK  status: ('A' for Active; 'I' for Inactive)
REMARK    1  A    between atoms: C_5  and  C_1 
ROOT
ATOM      1  C   UNL d   1     -47.386  13.554  22.867  0.00  0.00     0.169 A 
ATOM      2  N   UNL d   1     -46.612  13.785  22.998  0.00  0.00    -0.142 NA
ATOM      3  C   UNL d   1     -47.462  12.776  23.111  0.00  0.00     0.048 A 
ATOM      4  N   UNL d   1     -46.201  13.147  23.326  0.00  0.00    -0.148 NA
ATOM      5  C   UNL d   1     -46.730  12.520  23.396  0.00  0.00     0.105 A 
ATOM      6  C   UNL d   1     -46.560  11.771  23.697  0.00  0.00     0.023 C 
ENDROOT
BRANCH   1   7
ATOM      7  C   UNL d   1     -47.988  14.024  22.544  0.00  0.00     0.231 C 
ATOM      8  O   UNL d   1     -48.205  14.724  22.921  0.00  0.00    -0.643 OA
ATOM      9  O   UNL d   1     -48.365  13.792  21.850  0.00  0.00    -0.643 OA
ENDBRANCH   1   7
TORSDOF 1
ENDMDL
MODEL 6
REMARK VINA RESULT:      -4.7      2.504      2.843
REMARK  1 active torsions:
REMARK  status: ('A' for Active; 'I' for Inactive)
REMARK    1  A    between atoms: C_5  and  C_1 
ROOT
ATOM      1  C   UNL d   1     -48.952  12.166  22.321  0.00  0.00     0.169 A 
ATOM      2  N   UNL d   1     -48.755  11.433  22.631  0.00  0.00    -0.142 NA
ATOM      3  C   UNL d   1     -49.644  12.413  22.681  0.00  0.00     0.048 A 
ATOM      4  N   UNL d   1     -49.329  11.222  23.186  0.00  0.00    -0.148 NA
ATOM      5  C   UNL d   1     -49.882  11.832  23.217  0.00  0.00     0.105 A 
ATOM      6  C   UNL d   1     -50.552  11.858  23.698  0.00  0.00     0.023 C 
ENDROOT
BRANCH   1   7
ATOM      7  C   UNL d   1     -48.524  12.583  21.746  0.00  0.00     0.231 C 
ATOM      8  O   UNL d   1     -47.761  12.845  21.915  0.00  0.00    -0.643 OA
ATOM      9  O   UNL d   1     -48.862  12.733  21.011  0.00  0.00    -0.643 OA
ENDBRANCH   1   7
TORSDOF 1
ENDMDL
MODEL 7
REMARK VINA RESULT:      -4.6      7.861      8.351
REMARK  1 active torsions:
REMARK  status: ('A' for Active; 'I' for Inactive)
REMARK    1  A    between atoms: C_5  and  C_1 
ROOT
ATOM      1  C   UNL d   1     -40.777  14.940  17.565  0.00  0.00     0.169 A 
ATOM      2  N   UNL d   1     -40.873  14.127  17.578  0.00  0.00    -0.142 NA
ATOM      3  C   UNL d   1     -40.544  15.178  18.313  0.00  0.00     0.048 A 
ATOM      4  N   UNL d   1     -40.699  13.855  18.339  0.00  0.00    -0.148 NA
ATOM      5  C   UNL d   1     -40.494  14.510  18.796  0.00  0.00     0.105 A 
ATOM      6  C   UNL d   1     -40.279  14.499  19.592  0.00  0.00     0.023 C 
ENDROOT
BRANCH   1   7
ATOM      7  C   UNL d   1     -40.894  15.434  16.910  0.00  0.00     0.231 C 
ATOM      8  O   UNL d   1     -41.634  15.464  16.549  0.00  0.00    -0.643 OA
ATOM      9  O   UNL d   1     -40.274  15.893  16.624  0.00  0.00    -0.643 OA
ENDBRANCH   1   7
TORSDOF 1
ENDMDL
MODEL 8
REMARK VINA RESULT:      -4.6      8.413      8.800
REMARK  1 active torsions:
REMARK  status: ('A' for Active; 'I' for Inactive)
REMARK    1  A    between atoms: C_5  and  C_1 
ROOT
ATOM      1  C   UNL d   1     -40.480  14.605  17.510  0.00  0.00     0.169 A 
ATOM      2  N   UNL d   1     -40.657  14.024  18.059  0.00  0.00    -0.142 NA
ATOM      3  C   UNL d   1     -39.748  14.430  17.187  0.00  0.00     0.048 A 
ATOM      4  N   UNL d   1     -40.033  13.483  18.079  0.00  0.00    -0.148 NA
ATOM      5  C   UNL d   1     -39.467  13.736  17.536  0.00  0.00     0.105 A 
ATOM      6  C   UNL d   1     -38.750  13.363  17.371  0.00  0.00     0.023 C 
ENDROOT
BRANCH   1   7
ATOM      7  C   UNL d   1     -40.956  15.255  17.316  0.00  0.00     0.231 C 
ATOM      8  O   UNL d   1     -41.424  15.230  16.638  0.00  0.00    -0.643 OA
ATOM      9  O   UNL d   1     -40.961  15.921  17.799  0.00  0.00    -0.643 OA
ENDBRANCH   1   7
TORSDOF 1
ENDMDL
MODEL 9
REMARK VINA RESULT:      -4.4      8.708      8.917
REMARK  1 active torsions:
REMARK  status: ('A' for Active; 'I' for Inactive)
REMARK    1  A    between atoms: C_5  and  C_1 
ROOT
ATOM      1  C   UNL d   1     -39.836  13.956  17.788  0.00  0.00     0.169 A 
ATOM      2  N   UNL d   1     -40.576  13.767  18.082  0.00  0.00    -0.142 NA
ATOM      3  C   UNL d   1     -39.902  14.662  17.377  0.00  0.00     0.048 A 
ATOM      4  N   UNL d   1     -41.107  14.357  17.853  0.00  0.00    -0.148 NA
ATOM      5  C   UNL d   1     -40.687  14.914  17.414  0.00  0.00     0.105 A 
ATOM      6  C   UNL d   1     -40.996  15.599  17.074  0.00  0.00     0.023 C 
ENDROOT
BRANCH   1   7
ATOM      7  C   UNL d   1     -39.143  13.513  17.888  0.00  0.00     0.231 C 
ATOM      8  O   UNL d   1     -39.103  12.745  17.592  0.00  0.00    -0.643 OA
ATOM      9  O   UNL d   1     -38.498  13.840  18.281  0.00  0.00    -0.643 OA
ENDBRANCH   1   7
TORSDOF 1
ENDMDL
