MODEL 1
REMARK VINA RESULT:      52.2      0.000      0.000
REMARK  2 active torsions:
REMARK  status: ('A' for Active; 'I' for Inactive)
REMARK    1  A    between atoms: C_9  and  C_4 
REMARK    2  A    between atoms: N_6  and  C_8 
ROOT
ATOM      1  N   UNL d   1      60.105  48.830  50.287  0.00  0.00    -0.211 NA
ATOM      2  C   UNL d   1      60.850  48.846  50.640  0.00  0.00     0.140 A 
ATOM      3  C   UNL d   1      60.929  49.133  51.404  0.00  0.00     0.051 A 
ATOM      4  C   UNL d   1      59.444  49.099  50.697  0.00  0.00     0.183 A 
ATOM      5  C   UNL d   1      60.270  49.405  51.825  0.00  0.00     0.104 A 
ATOM      6  O   UNL d   1      59.517  49.388  51.467  0.00  0.00    -0.289 OA
ATOM      7  S   UNL d   1      61.509  48.578  50.228  0.00  0.00    -0.057 SA
ATOM      8  C   UNL d   1      61.672  49.151  51.760  0.00  0.00     0.004 A 
ATOM      9  C   UNL d   1      60.347  49.692  52.588  0.00  0.00     0.025 A 
ATOM     10  C   UNL d   1      61.760  49.438  52.531  0.00  0.00     0.000 A 
ATOM     11  C   UNL d   1      61.098  49.707  52.941  0.00  0.00     0.002 A 
ENDROOT
BRANCH   4  12
ATOM     12  C   UNL d   1      58.699  49.079  50.335  0.00  0.00     0.041 A 
ATOM     13  C   UNL d   1      58.637  49.275  49.532  0.00  0.00     0.005 A 
ATOM     14  C   UNL d   1      57.897  49.255  49.171  0.00  0.00     0.024 A 
ATOM     15  C   UNL d   1      57.222  49.043  49.601  0.00  0.00     0.127 A 
ATOM     16  C   UNL d   1      57.297  48.848  50.407  0.00  0.00     0.024 A 
ATOM     17  C   UNL d   1      58.037  48.867  50.768  0.00  0.00     0.005 A 
BRANCH  15  18
ATOM     18  N   UNL d   1      56.485  49.026  49.232  0.00  0.00    -0.114 N 
ATOM     19  O   UNL d   1      56.176  49.705  48.886  0.00  0.00    -0.532 OA
ATOM     20  O   UNL d   1      56.049  48.322  49.207  0.00  0.00    -0.532 OA
ENDBRANCH  15  18
ENDBRANCH   4  12
TORSDOF 2
ENDMDL
