MODEL 1
REMARK VINA RESULT:      86.6      0.000      0.000
REMARK  5 active torsions:
REMARK  status: ('A' for Active; 'I' for Inactive)
REMARK    1  A    between atoms: N_2  and  S_1 
REMARK    2  A    between atoms: C_10  and  S_1 
REMARK    3  A    between atoms: C_4  and  N_12 
REMARK    4  A    between atoms: C_8  and  C_17 
REMARK       I    between atoms: N_11  and  C_8 
REMARK    5  A    between atoms: N_12  and  N_11 
ROOT
ATOM      1  C   UNL d   1      13.801  16.145  -5.252  0.00  0.00     0.104 A 
ATOM      2  C   UNL d   1      13.756  14.527  -4.956  0.00  0.00     0.059 A 
ATOM      3  C   UNL d   1      13.088  15.786  -5.041  0.00  0.00     0.013 A 
ATOM      4  C   UNL d   1      14.489  15.693  -5.314  0.00  0.00     0.013 A 
ATOM      5  C   UNL d   1      13.076  14.982  -4.895  0.00  0.00     0.006 A 
ATOM      6  C   UNL d   1      14.462  14.882  -5.165  0.00  0.00     0.006 A 
ENDROOT
BRANCH   2   7
ATOM      7  C   UNL d   1      13.737  13.719  -4.808  0.00  0.00     0.297 C 
ATOM      8  N   UNL d   1      13.836  13.520  -4.020  0.00  0.00    -0.104 NA
ATOM      9  O   UNL d   1      13.620  13.270  -5.500  0.00  0.00    -0.264 OA
BRANCH   8  10
ATOM     10  N   UNL d   1      13.941  14.112  -3.463  0.00  0.00    -0.118 NA
BRANCH  10  11
ATOM     11  C   UNL d   1      14.233  13.930  -2.706  0.00  0.00     0.215 A 
ATOM     12  N   UNL d   1      14.232  13.189  -2.354  0.00  0.00    -0.219 NA
ATOM     13  C   UNL d   1      14.567  13.247  -1.609  0.00  0.00     0.090 A 
ATOM     14  C   UNL d   1      14.711  12.698  -1.017  0.00  0.00     0.018 A 
ATOM     15  C   UNL d   1      14.781  14.044  -1.498  0.00  0.00     0.050 A 
ATOM     16  C   UNL d   1      15.067  12.936  -0.311  0.00  0.00     0.002 A 
ATOM     17  C   UNL d   1      14.497  11.905  -1.130  0.00  0.00     0.002 C 
ATOM     18  C   UNL d   1      15.277  13.724  -0.204  0.00  0.00     0.001 A 
ATOM     19  C   UNL d   1      15.137  14.291  -0.796  0.00  0.00     0.008 A 
ATOM     20  S   UNL d   1      14.572  14.459  -2.176  0.00  0.00    -0.045 SA
ENDBRANCH  10  11
ENDBRANCH   8  10
ENDBRANCH   2   7
BRANCH   1  21
ATOM     21  S   UNL d   1      13.830  16.953  -5.401  0.00  0.00     0.271 S 
ATOM     22  O   UNL d   1      13.234  16.875  -5.964  0.00  0.00    -0.200 OA
ATOM     23  O   UNL d   1      14.427  17.033  -4.838  0.00  0.00    -0.200 OA
BRANCH  21  24
ATOM     24  N   UNL d   1      13.861  17.763  -5.549  0.00  0.00    -0.229 N 
ATOM     25  C   UNL d   1      14.459  18.221  -5.212  0.00  0.00     0.092 A 
ATOM     26  C   UNL d   1      14.489  19.031  -5.359  0.00  0.00     0.018 A 
ATOM     27  C   UNL d   1      15.088  19.488  -5.022  0.00  0.00     0.002 A 
ATOM     28  C   UNL d   1      13.925  19.393  -5.844  0.00  0.00     0.003 A 
ATOM     29  C   UNL d   1      15.118  20.299  -5.170  0.00  0.00     0.000 A 
ATOM     30  C   UNL d   1      14.550  20.653  -5.656  0.00  0.00     0.000 A 
ATOM     31  C   UNL d   1      13.955  20.195  -5.990  0.00  0.00     0.000 A 
ATOM     32  C   UNL d   1      13.324  18.929  -6.182  0.00  0.00     0.020 A 
ATOM     33  C   UNL d   1      13.293  18.118  -6.035  0.00  0.00     0.092 A 
ENDBRANCH  21  24
ENDBRANCH   1  21
TORSDOF 5
ENDMDL
