MODEL 1
REMARK VINA RESULT:      59.4      0.000      0.000
REMARK  2 active torsions:
REMARK  status: ('A' for Active; 'I' for Inactive)
REMARK       I    between atoms: C_7  and  N_1 
REMARK    1  A    between atoms: C_6  and  C_3 
REMARK    2  A    between atoms: C_8  and  C_4 
ROOT
ATOM      1  N   UNL d   1     -52.227  24.928  33.379  0.00  0.00    -0.195 N 
ATOM      2  N   UNL d   1     -51.427  25.070  33.402  0.00  0.00    -0.163 NA
ATOM      3  C   UNL d   1     -52.621  25.651  33.404  0.00  0.00     0.091 A 
ATOM      4  C   UNL d   1     -51.324  25.889  33.441  0.00  0.00     0.104 A 
ATOM      5  C   UNL d   1     -52.060  26.239  33.441  0.00  0.00     0.040 A 
ATOM      6  C   UNL d   1     -52.603  24.164  33.338  0.00  0.00     0.281 C 
ATOM      7  O   UNL d   1     -53.403  24.103  33.319  0.00  0.00    -0.265 OA
ATOM      8  C   UNL d   1     -52.126  23.492  33.317  0.00  0.00     0.068 C 
ENDROOT
BRANCH   3   9
ATOM      9  C   UNL d   1     -53.444  25.753  33.392  0.00  0.00     0.057 A 
ATOM     10  C   UNL d   1     -53.757  26.495  33.423  0.00  0.00     0.197 A 
ATOM     11  O   UNL d   1     -53.276  27.145  33.466  0.00  0.00    -0.286 OA
ATOM     12  C   UNL d   1     -54.581  26.603  33.411  0.00  0.00     0.042 A 
ATOM     13  C   UNL d   1     -55.089  25.953  33.367  0.00  0.00     0.003 A 
ATOM     14  C   UNL d   1     -54.751  25.207  33.336  0.00  0.00     0.000 A 
ATOM     15  C   UNL d   1     -53.953  25.106  33.348  0.00  0.00     0.005 A 
ENDBRANCH   3   9
BRANCH   4  16
ATOM     16  C   UNL d   1     -50.600  26.284  33.473  0.00  0.00     0.039 A 
ATOM     17  C   UNL d   1     -49.901  25.857  33.570  0.00  0.00     0.101 A 
ATOM     18  N   UNL d   1     -49.177  26.252  33.602  0.00  0.00    -0.242 NA
ATOM     19  C   UNL d   1     -49.153  27.074  33.538  0.00  0.00     0.099 A 
ATOM     20  C   UNL d   1     -49.853  27.501  33.441  0.00  0.00     0.021 A 
ATOM     21  C   UNL d   1     -50.577  27.106  33.408  0.00  0.00     0.005 A 
ENDBRANCH   4  16
TORSDOF 2
ENDMDL
