MODEL 1
REMARK VINA RESULT:     -10.7      0.000      0.000
REMARK  3 active torsions:
REMARK  status: ('A' for Active; 'I' for Inactive)
REMARK    1  A    between atoms: C_2  and  S_1 
REMARK    2  A    between atoms: N_3  and  S_1 
REMARK    3  A    between atoms: C_12  and  N_3 
ROOT
ATOM      1  S   UNL d   1      52.921  32.645  53.183  0.00  0.00     0.285 S 
ATOM      2  O   UNL d   1      53.470  32.715  52.675  0.00  0.00    -0.198 OA
ATOM      3  O   UNL d   1      52.294  32.417  53.578  0.00  0.00    -0.198 OA
ENDROOT
BRANCH   1   4
ATOM      4  C   UNL d   1      53.130  33.255  53.713  0.00  0.00     0.105 A 
ATOM      5  C   UNL d   1      52.733  33.982  53.688  0.00  0.00     0.012 A 
ATOM      6  C   UNL d   1      52.940  34.585  54.214  0.00  0.00     0.001 A 
ATOM      7  C   UNL d   1      52.120  34.093  53.122  0.00  0.00     0.001 C 
ATOM      8  C   UNL d   1      53.543  34.459  54.762  0.00  0.00     0.000 A 
ATOM      9  C   UNL d   1      53.948  33.733  54.796  0.00  0.00     0.001 A 
ATOM     10  C   UNL d   1      53.741  33.129  54.270  0.00  0.00     0.013 A 
ATOM     11  C   UNL d   1      54.557  33.613  55.354  0.00  0.00     0.000 C 
ENDBRANCH   1   4
BRANCH   1  12
ATOM     12  N   UNL d   1      52.791  32.119  52.670  0.00  0.00    -0.158 NA
BRANCH  12  13
ATOM     13  C   UNL d   1      52.958  31.496  52.921  0.00  0.00     0.095 A 
ATOM     14  C   UNL d   1      52.460  31.029  53.041  0.00  0.00     0.040 A 
ATOM     15  C   UNL d   1      52.638  30.419  53.289  0.00  0.00     0.089 A 
ATOM     16  N   UNL d   1      52.257  29.870  53.452  0.00  0.00    -0.236 NA
ATOM     17  C   UNL d   1      53.289  30.261  53.420  0.00  0.00     0.049 A 
ATOM     18  C   UNL d   1      52.687  29.378  53.684  0.00  0.00     0.135 A 
ATOM     19  S   UNL d   1      53.314  29.624  53.661  0.00  0.00    -0.064 SA
ATOM     20  C   UNL d   1      53.781  30.738  53.296  0.00  0.00     0.010 A 
ATOM     21  C   UNL d   1      53.615  31.358  53.046  0.00  0.00     0.021 A 
ENDBRANCH  12  13
ENDBRANCH   1  12
TORSDOF 3
ENDMDL
MODEL 2
REMARK VINA RESULT:     -10.3      1.616      3.489
REMARK  3 active torsions:
REMARK  status: ('A' for Active; 'I' for Inactive)
REMARK    1  A    between atoms: C_2  and  S_1 
REMARK    2  A    between atoms: N_3  and  S_1 
REMARK    3  A    between atoms: C_12  and  N_3 
ROOT
ATOM      1  S   UNL d   1      52.873  33.516  53.614  0.00  0.00     0.285 S 
ATOM      2  O   UNL d   1      52.489  33.530  54.260  0.00  0.00    -0.198 OA
ATOM      3  O   UNL d   1      53.193  33.697  52.931  0.00  0.00    -0.198 OA
ENDROOT
BRANCH   1   4
ATOM      4  C   UNL d   1      53.190  32.744  53.647  0.00  0.00     0.105 A 
ATOM      5  C   UNL d   1      53.890  32.601  54.067  0.00  0.00     0.012 A 
ATOM      6  C   UNL d   1      54.204  31.837  54.099  0.00  0.00     0.001 A 
ATOM      7  C   UNL d   1      54.270  33.242  54.457  0.00  0.00     0.001 C 
ATOM      8  C   UNL d   1      53.818  31.221  53.711  0.00  0.00     0.000 A 
ATOM      9  C   UNL d   1      53.115  31.354  53.286  0.00  0.00     0.001 A 
ATOM     10  C   UNL d   1      52.800  32.118  53.254  0.00  0.00     0.013 A 
ATOM     11  C   UNL d   1      52.729  30.724  52.896  0.00  0.00     0.000 C 
ENDBRANCH   1   4
BRANCH   1  12
ATOM     12  N   UNL d   1      52.558  34.192  53.647  0.00  0.00    -0.158 NA
BRANCH  12  13
ATOM     13  C   UNL d   1      52.027  34.229  53.204  0.00  0.00     0.095 A 
ATOM     14  C   UNL d   1      51.377  34.222  53.446  0.00  0.00     0.040 A 
ATOM     15  C   UNL d   1      50.864  34.259  52.999  0.00  0.00     0.089 A 
ATOM     16  N   UNL d   1      50.182  34.263  53.094  0.00  0.00    -0.236 NA
ATOM     17  C   UNL d   1      50.975  34.302  52.326  0.00  0.00     0.049 A 
ATOM     18  C   UNL d   1      49.883  34.308  52.470  0.00  0.00     0.135 A 
ATOM     19  S   UNL d   1      50.373  34.331  52.008  0.00  0.00    -0.064 SA
ATOM     20  C   UNL d   1      51.631  34.307  52.096  0.00  0.00     0.010 A 
ATOM     21  C   UNL d   1      52.160  34.270  52.536  0.00  0.00     0.021 A 
ENDBRANCH  12  13
ENDBRANCH   1  12
TORSDOF 3
ENDMDL
MODEL 3
REMARK VINA RESULT:      -9.4      1.485      3.152
REMARK  3 active torsions:
REMARK  status: ('A' for Active; 'I' for Inactive)
REMARK    1  A    between atoms: C_2  and  S_1 
REMARK    2  A    between atoms: N_3  and  S_1 
REMARK    3  A    between atoms: C_12  and  N_3 
ROOT
ATOM      1  S   UNL d   1      53.292  32.578  53.472  0.00  0.00     0.285 S 
ATOM      2  O   UNL d   1      53.718  32.815  52.901  0.00  0.00    -0.198 OA
ATOM      3  O   UNL d   1      53.037  32.256  54.129  0.00  0.00    -0.198 OA
ENDROOT
BRANCH   1   4
ATOM      4  C   UNL d   1      52.547  32.868  53.233  0.00  0.00     0.105 A 
ATOM      5  C   UNL d   1      51.979  32.350  52.925  0.00  0.00     0.012 A 
ATOM      6  C   UNL d   1      51.240  32.638  52.688  0.00  0.00     0.001 A 
ATOM      7  C   UNL d   1      52.166  31.532  52.857  0.00  0.00     0.001 C 
ATOM      8  C   UNL d   1      51.074  33.442  52.762  0.00  0.00     0.000 A 
ATOM      9  C   UNL d   1      51.638  33.971  53.071  0.00  0.00     0.001 A 
ATOM     10  C   UNL d   1      52.376  33.683  53.307  0.00  0.00     0.013 A 
ATOM     11  C   UNL d   1      51.461  34.784  53.142  0.00  0.00     0.000 C 
ENDBRANCH   1   4
BRANCH   1  12
ATOM     12  N   UNL d   1      53.985  32.347  53.626  0.00  0.00    -0.158 NA
BRANCH  12  13
ATOM     13  C   UNL d   1      54.228  32.680  54.182  0.00  0.00     0.095 A 
ATOM     14  C   UNL d   1      54.718  33.166  54.104  0.00  0.00     0.040 A 
ATOM     15  C   UNL d   1      54.949  33.486  54.659  0.00  0.00     0.089 A 
ATOM     16  N   UNL d   1      55.423  33.980  54.731  0.00  0.00    -0.236 NA
ATOM     17  C   UNL d   1      54.711  33.341  55.283  0.00  0.00     0.049 A 
ATOM     18  C   UNL d   1      55.469  34.131  55.406  0.00  0.00     0.135 A 
ATOM     19  S   UNL d   1      55.032  33.738  55.736  0.00  0.00    -0.064 SA
ATOM     20  C   UNL d   1      54.221  32.852  55.349  0.00  0.00     0.010 A 
ATOM     21  C   UNL d   1      53.978  32.520  54.797  0.00  0.00     0.021 A 
ENDBRANCH  12  13
ENDBRANCH   1  12
TORSDOF 3
ENDMDL
MODEL 4
REMARK VINA RESULT:      -9.3      1.277      3.451
REMARK  3 active torsions:
REMARK  status: ('A' for Active; 'I' for Inactive)
REMARK    1  A    between atoms: C_2  and  S_1 
REMARK    2  A    between atoms: N_3  and  S_1 
REMARK    3  A    between atoms: C_12  and  N_3 
ROOT
ATOM      1  S   UNL d   1      53.323  31.629  53.370  0.00  0.00     0.285 S 
ATOM      2  O   UNL d   1      52.631  31.882  53.512  0.00  0.00    -0.198 OA
ATOM      3  O   UNL d   1      54.074  31.572  53.183  0.00  0.00    -0.198 OA
ENDROOT
BRANCH   1   4
ATOM      4  C   UNL d   1      53.220  30.815  53.526  0.00  0.00     0.105 A 
ATOM      5  C   UNL d   1      52.984  30.303  52.919  0.00  0.00     0.012 A 
ATOM      6  C   UNL d   1      52.881  29.497  53.073  0.00  0.00     0.001 A 
ATOM      7  C   UNL d   1      52.852  30.616  52.149  0.00  0.00     0.001 C 
ATOM      8  C   UNL d   1      53.015  29.208  53.833  0.00  0.00     0.000 A 
ATOM      9  C   UNL d   1      53.252  29.714  54.451  0.00  0.00     0.001 A 
ATOM     10  C   UNL d   1      53.355  30.520  54.297  0.00  0.00     0.013 A 
ATOM     11  C   UNL d   1      53.385  29.412  55.218  0.00  0.00     0.000 C 
ENDBRANCH   1   4
BRANCH   1  12
ATOM     12  N   UNL d   1      53.348  32.365  53.248  0.00  0.00    -0.158 NA
BRANCH  12  13
ATOM     13  C   UNL d   1      53.775  32.667  53.701  0.00  0.00     0.095 A 
ATOM     14  C   UNL d   1      53.513  33.012  54.243  0.00  0.00     0.040 A 
ATOM     15  C   UNL d   1      53.945  33.305  54.681  0.00  0.00     0.089 A 
ATOM     16  N   UNL d   1      53.829  33.672  55.252  0.00  0.00    -0.236 NA
ATOM     17  C   UNL d   1      54.622  33.266  54.600  0.00  0.00     0.049 A 
ATOM     18  C   UNL d   1      54.444  33.854  55.514  0.00  0.00     0.135 A 
ATOM     19  S   UNL d   1      54.922  33.603  55.111  0.00  0.00    -0.064 SA
ATOM     20  C   UNL d   1      54.873  32.917  54.053  0.00  0.00     0.010 A 
ATOM     21  C   UNL d   1      54.449  32.616  53.601  0.00  0.00     0.021 A 
ENDBRANCH  12  13
ENDBRANCH   1  12
TORSDOF 3
ENDMDL
