MODEL 1
REMARK VINA RESULT:     143.3      0.000      0.000
REMARK  5 active torsions:
REMARK  status: ('A' for Active; 'I' for Inactive)
REMARK    1  A    between atoms: N_12  and  C_5 
REMARK    2  A    between atoms: C_21  and  N_9 
REMARK    3  A    between atoms: C_10  and  S_20 
REMARK    4  A    between atoms: S_20  and  C_26 
REMARK    5  A    between atoms: C_26  and  C_21 
ROOT
ATOM      1  C   UNL d   1      60.150  49.524  52.318  0.00  0.00     0.191 A 
ATOM      2  C   UNL d   1      59.613  49.560  51.700  0.00  0.00     0.173 A 
ATOM      3  N   UNL d   1      59.728  49.533  53.026  0.00  0.00    -0.042 NA
ATOM      4  N   UNL d   1      60.955  49.488  52.160  0.00  0.00    -0.240 N 
ATOM      5  C   UNL d   1      58.929  49.574  52.839  0.00  0.00     0.722 A 
ATOM      6  N   UNL d   1      60.690  49.524  50.762  0.00  0.00    -0.223 N 
ATOM      7  C   UNL d   1      61.227  49.488  51.380  0.00  0.00     0.343 A 
ATOM      8  C   UNL d   1      59.878  49.560  50.920  0.00  0.00     0.288 A 
ATOM      9  N   UNL d   1      58.851  49.591  52.017  0.00  0.00    -0.132 N 
ATOM     10  O   UNL d   1      62.046  49.451  51.225  0.00  0.00    -0.245 OA
ATOM     11  O   UNL d   1      59.335  49.596  50.295  0.00  0.00    -0.265 OA
ATOM     12  C   UNL d   1      61.493  49.452  52.778  0.00  0.00     0.105 C 
ATOM     13  C   UNL d   1      60.958  49.523  49.985  0.00  0.00     0.107 C 
ENDROOT
BRANCH   9  14
ATOM     14  C   UNL d   1      58.144  49.632  51.596  0.00  0.00     0.105 C 
BRANCH  14  15
ATOM     15  C   UNL d   1      57.674  48.955  51.501  0.00  0.00     0.057 C 
BRANCH  15  16
ATOM     16  S   UNL d   1      57.518  48.667  50.735  0.00  0.00    -0.059 SA
BRANCH  16  17
ATOM     17  C   UNL d   1      57.570  47.848  50.586  0.00  0.00     0.141 A 
ATOM     18  N   UNL d   1      57.389  47.314  51.178  0.00  0.00    -0.232 NA
ATOM     19  C   UNL d   1      57.487  46.562  50.882  0.00  0.00     0.088 A 
ATOM     20  C   UNL d   1      57.383  45.819  51.234  0.00  0.00     0.020 A 
ATOM     21  C   UNL d   1      57.728  46.616  50.109  0.00  0.00     0.049 A 
ATOM     22  C   UNL d   1      57.525  45.130  50.794  0.00  0.00     0.002 A 
ATOM     23  C   UNL d   1      57.766  45.189  50.021  0.00  0.00     0.001 A 
ATOM     24  C   UNL d   1      57.869  45.936  49.673  0.00  0.00     0.008 A 
ATOM     25  S   UNL d   1      57.782  47.433  49.918  0.00  0.00    -0.060 SA
ENDBRANCH  16  17
ENDBRANCH  15  16
ENDBRANCH  14  15
ENDBRANCH   9  14
BRANCH   5  26
ATOM     26  N   UNL d   1      58.340  49.593  53.412  0.00  0.00    -0.139 N 
ATOM     27  C   UNL d   1      57.556  49.679  53.199  0.00  0.00     0.098 A 
ATOM     28  C   UNL d   1      56.958  49.698  53.780  0.00  0.00     0.020 A 
ATOM     29  C   UNL d   1      57.171  49.629  54.582  0.00  0.00     0.003 A 
ATOM     30  C   UNL d   1      57.958  49.543  54.791  0.00  0.00     0.020 A 
ATOM     31  C   UNL d   1      56.580  49.648  55.157  0.00  0.00     0.000 C 
ATOM     32  C   UNL d   1      58.541  49.525  54.207  0.00  0.00     0.098 A 
ENDBRANCH   5  26
TORSDOF 5
ENDMDL
