MODEL 1
REMARK VINA RESULT:      41.0      0.000      0.000
REMARK  5 active torsions:
REMARK  status: ('A' for Active; 'I' for Inactive)
REMARK    1  A    between atoms: C_15  and  N_5 
REMARK    2  A    between atoms: S_10  and  C_6 
REMARK    3  A    between atoms: C_14  and  S_10 
REMARK    4  A    between atoms: C_11  and  C_14 
REMARK       I    between atoms: N_13  and  C_11 
REMARK    5  A    between atoms: C_17  and  C_15 
ROOT
ATOM      1  C   UNL d   1     -58.588 -98.763 -43.625  0.00  0.00     0.081 A 
ATOM      2  C   UNL d   1     -57.820 -98.762 -43.322  0.00  0.00     0.117 A 
ATOM      3  N   UNL d   1     -57.204 -98.764 -43.823  0.00  0.00    -0.215 NA
ATOM      4  C   UNL d   1     -58.716 -98.766 -44.412  0.00  0.00     0.268 A 
ATOM      5  N   UNL d   1     -58.100 -98.768 -44.913  0.00  0.00    -0.253 N 
ATOM      6  C   UNL d   1     -57.348 -98.767 -44.622  0.00  0.00     0.182 A 
ATOM      7  S   UNL d   1     -57.849 -98.759 -42.535  0.00  0.00    -0.068 SA
ATOM      8  C   UNL d   1     -59.096 -98.761 -42.968  0.00  0.00     0.013 A 
ATOM      9  C   UNL d   1     -58.608 -98.758 -42.302  0.00  0.00     0.031 A 
ATOM     10  O   UNL d   1     -59.529 -98.767 -44.750  0.00  0.00    -0.267 OA
ATOM     11  C   UNL d   1     -59.849 -98.760 -42.741  0.00  0.00     0.001 A 
ATOM     12  C   UNL d   1     -59.116 -98.756 -41.644  0.00  0.00     0.006 A 
ATOM     13  C   UNL d   1     -59.838 -98.756 -41.912  0.00  0.00     0.001 A 
ENDROOT
BRANCH   6  14
ATOM     14  S   UNL d   1     -56.689 -98.770 -45.163  0.00  0.00    -0.044 SA
BRANCH  14  15
ATOM     15  C   UNL d   1     -55.924 -98.929 -44.836  0.00  0.00     0.099 C 
BRANCH  15  16
ATOM     16  C   UNL d   1     -55.737 -99.743 -44.664  0.00  0.00     0.272 C 
ATOM     17  N   UNL d   1     -55.247 -99.962 -44.041  0.00  0.00    -0.269 N 
ATOM     18  C   UNL d   1     -55.089-100.779 -43.907  0.00  0.00     0.102 C 
ATOM     19  C   UNL d   1     -54.909 -99.374 -43.547  0.00  0.00     0.102 C 
ATOM     20  O   UNL d   1     -56.081-100.332 -45.166  0.00  0.00    -0.266 OA
ENDBRANCH  15  16
ENDBRANCH  14  15
ENDBRANCH   6  14
BRANCH   5  21
ATOM     21  C   UNL d   1     -58.262 -98.772 -45.750  0.00  0.00     0.085 C 
BRANCH  21  22
ATOM     22  C   UNL d   1     -58.931 -99.123 -46.072  0.00  0.00     0.019 C 
ATOM     23  C   UNL d   1     -59.216 -98.886 -46.796  0.00  0.00     0.002 C 
ENDBRANCH  21  22
ENDBRANCH   5  21
TORSDOF 5
ENDMDL
