MODEL 1
REMARK VINA RESULT:      -3.2      0.000      0.000
REMARK  4 active torsions:
REMARK  status: ('A' for Active; 'I' for Inactive)
REMARK    1  A    between atoms: C_3  and  C_1 
REMARK       I    between atoms: N_6  and  C_3 
REMARK    2  A    between atoms: C_12  and  N_5 
REMARK    3  A    between atoms: C_8  and  N_6 
REMARK    4  A    between atoms: S_11  and  C_10 
ROOT
ATOM      1  C   UNL d   1      31.664  16.587 -24.123  0.00  0.00     0.348 C 
ATOM      2  N   UNL d   1      30.880  16.553 -23.843  0.00  0.00    -0.363 NA
ATOM      3  O   UNL d   1      31.976  15.952 -24.597  0.00  0.00    -0.249 OA
ENDROOT
BRANCH   1   4
ATOM      4  C   UNL d   1      32.136  17.251 -23.933  0.00  0.00     0.173 A 
ATOM      5  N   UNL d   1      32.344  17.497 -23.165  0.00  0.00    -0.159 NA
ATOM      6  N   UNL d   1      32.816  18.178 -23.244  0.00  0.00    -0.227 N 
ATOM      7  C   UNL d   1      32.896  18.345 -24.046  0.00  0.00     0.102 A 
ATOM      8  C   UNL d   1      32.477  17.774 -24.477  0.00  0.00     0.048 A 
BRANCH   6   9
ATOM      9  C   UNL d   1      33.147  18.610 -22.620  0.00  0.00     0.101 C 
ATOM     10  C   UNL d   1      33.072  19.385 -22.347  0.00  0.00     0.022 C 
ENDBRANCH   6   9
ENDBRANCH   1   4
BRANCH   2  11
ATOM     11  C   UNL d   1      30.045  16.278 -23.677  0.00  0.00     0.141 A 
ATOM     12  C   UNL d   1      29.434  16.644 -24.085  0.00  0.00     0.055 A 
ATOM     13  C   UNL d   1      28.674  16.413 -23.952  0.00  0.00     0.009 A 
ATOM     14  C   UNL d   1      28.513  15.811 -23.409  0.00  0.00     0.001 A 
ATOM     15  C   UNL d   1      29.123  15.453 -23.009  0.00  0.00     0.003 A 
ATOM     16  C   UNL d   1      29.894  15.692 -23.148  0.00  0.00     0.033 A 
BRANCH  12  17
ATOM     17  S   UNL d   1      29.588  17.249 -24.632  0.00  0.00    -0.110 SA
ATOM     18  C   UNL d   1      28.969  17.677 -24.988  0.00  0.00     0.074 C 
ENDBRANCH  12  17
ENDBRANCH   2  11
TORSDOF 4
ENDMDL
MODEL 2
REMARK VINA RESULT:      -2.1      1.479      2.126
REMARK  4 active torsions:
REMARK  status: ('A' for Active; 'I' for Inactive)
REMARK    1  A    between atoms: C_3  and  C_1 
REMARK       I    between atoms: N_6  and  C_3 
REMARK    2  A    between atoms: C_12  and  N_5 
REMARK    3  A    between atoms: C_8  and  N_6 
REMARK    4  A    between atoms: S_11  and  C_10 
ROOT
ATOM      1  C   UNL d   1      32.901  18.369 -24.144  0.00  0.00     0.348 C 
ATOM      2  N   UNL d   1      32.466  17.702 -23.897  0.00  0.00    -0.363 NA
ATOM      3  O   UNL d   1      33.238  18.393 -24.926  0.00  0.00    -0.249 OA
ENDROOT
BRANCH   1   4
ATOM      4  C   UNL d   1      32.999  19.010 -23.616  0.00  0.00     0.173 A 
ATOM      5  N   UNL d   1      32.907  18.978 -22.789  0.00  0.00    -0.159 NA
ATOM      6  N   UNL d   1      33.059  19.742 -22.495  0.00  0.00    -0.227 N 
ATOM      7  C   UNL d   1      33.241  20.232 -23.131  0.00  0.00     0.102 A 
ATOM      8  C   UNL d   1      33.205  19.784 -23.827  0.00  0.00     0.048 A 
BRANCH   6   9
ATOM      9  C   UNL d   1      33.032  19.966 -21.698  0.00  0.00     0.101 C 
ATOM     10  C   UNL d   1      32.818  20.654 -21.295  0.00  0.00     0.022 C 
ENDBRANCH   6   9
ENDBRANCH   1   4
BRANCH   2  11
ATOM     11  C   UNL d   1      32.064  16.903 -23.886  0.00  0.00     0.141 A 
ATOM     12  C   UNL d   1      31.294  16.859 -24.168  0.00  0.00     0.055 A 
ATOM     13  C   UNL d   1      30.912  16.150 -24.168  0.00  0.00     0.009 A 
ATOM     14  C   UNL d   1      31.294  15.474 -23.884  0.00  0.00     0.001 A 
ATOM     15  C   UNL d   1      32.055  15.526 -23.606  0.00  0.00     0.003 A 
ATOM     16  C   UNL d   1      32.439  16.249 -23.609  0.00  0.00     0.033 A 
BRANCH  12  17
ATOM     17  S   UNL d   1      30.906  17.534 -24.455  0.00  0.00    -0.110 SA
ATOM     18  C   UNL d   1      30.125  17.491 -24.744  0.00  0.00     0.074 C 
ENDBRANCH  12  17
ENDBRANCH   2  11
TORSDOF 4
ENDMDL
MODEL 3
REMARK VINA RESULT:      -1.3      1.293      3.980
REMARK  4 active torsions:
REMARK  status: ('A' for Active; 'I' for Inactive)
REMARK    1  A    between atoms: C_3  and  C_1 
REMARK       I    between atoms: N_6  and  C_3 
REMARK    2  A    between atoms: C_12  and  N_5 
REMARK    3  A    between atoms: C_8  and  N_6 
REMARK    4  A    between atoms: S_11  and  C_10 
ROOT
ATOM      1  C   UNL d   1      31.973  16.552 -24.202  0.00  0.00     0.348 C 
ATOM      2  N   UNL d   1      32.081  17.371 -24.308  0.00  0.00    -0.363 NA
ATOM      3  O   UNL d   1      32.644  16.049 -24.047  0.00  0.00    -0.249 OA
ENDROOT
BRANCH   1   4
ATOM      4  C   UNL d   1      31.202  16.232 -24.250  0.00  0.00     0.173 A 
ATOM      5  N   UNL d   1      30.646  16.208 -23.631  0.00  0.00    -0.159 NA
ATOM      6  N   UNL d   1      29.960  15.843 -23.930  0.00  0.00    -0.227 N 
ATOM      7  C   UNL d   1      30.094  15.648 -24.718  0.00  0.00     0.102 A 
ATOM      8  C   UNL d   1      30.862  15.886 -24.921  0.00  0.00     0.048 A 
BRANCH   6   9
ATOM      9  C   UNL d   1      29.263  15.703 -23.504  0.00  0.00     0.101 C 
ATOM     10  C   UNL d   1      28.536  16.087 -23.437  0.00  0.00     0.022 C 
ENDBRANCH   6   9
ENDBRANCH   1   4
BRANCH   2  11
ATOM     11  C   UNL d   1      32.458  18.179 -24.380  0.00  0.00     0.141 A 
ATOM     12  C   UNL d   1      32.892  18.456 -23.741  0.00  0.00     0.055 A 
ATOM     13  C   UNL d   1      33.241  19.181 -23.783  0.00  0.00     0.009 A 
ATOM     14  C   UNL d   1      33.160  19.640 -24.466  0.00  0.00     0.001 A 
ATOM     15  C   UNL d   1      32.729  19.359 -25.094  0.00  0.00     0.003 A 
ATOM     16  C   UNL d   1      32.377  18.622 -25.046  0.00  0.00     0.033 A 
BRANCH  12  17
ATOM     17  S   UNL d   1      32.977  18.000 -23.053  0.00  0.00    -0.110 SA
ATOM     18  C   UNL d   1      33.206  18.347 -22.331  0.00  0.00     0.074 C 
ENDBRANCH  12  17
ENDBRANCH   2  11
TORSDOF 4
ENDMDL
MODEL 4
REMARK VINA RESULT:      -1.2      1.516      3.981
REMARK  4 active torsions:
REMARK  status: ('A' for Active; 'I' for Inactive)
REMARK    1  A    between atoms: C_3  and  C_1 
REMARK       I    between atoms: N_6  and  C_3 
REMARK    2  A    between atoms: C_12  and  N_5 
REMARK    3  A    between atoms: C_8  and  N_6 
REMARK    4  A    between atoms: S_11  and  C_10 
ROOT
ATOM      1  C   UNL d   1      30.045  17.411 -24.615  0.00  0.00     0.348 C 
ATOM      2  N   UNL d   1      30.824  17.335 -24.329  0.00  0.00    -0.363 NA
ATOM      3  O   UNL d   1      29.799  18.132 -24.997  0.00  0.00    -0.249 OA
ENDROOT
BRANCH   1   4
ATOM      4  C   UNL d   1      29.513  16.773 -24.523  0.00  0.00     0.173 A 
ATOM      5  N   UNL d   1      29.066  16.606 -23.840  0.00  0.00    -0.159 NA
ATOM      6  N   UNL d   1      28.617  15.923 -24.000  0.00  0.00    -0.227 N 
ATOM      7  C   UNL d   1      28.786  15.677 -24.767  0.00  0.00     0.102 A 
ATOM      8  C   UNL d   1      29.340  16.199 -25.095  0.00  0.00     0.048 A 
BRANCH   6   9
ATOM      9  C   UNL d   1      28.092  15.558 -23.475  0.00  0.00     0.101 C 
ATOM     10  C   UNL d   1      27.673  15.803 -22.807  0.00  0.00     0.022 C 
ENDBRANCH   6   9
ENDBRANCH   1   4
BRANCH   2  11
ATOM     11  C   UNL d   1      31.677  17.508 -24.123  0.00  0.00     0.141 A 
ATOM     12  C   UNL d   1      32.249  16.982 -24.388  0.00  0.00     0.055 A 
ATOM     13  C   UNL d   1      33.024  17.117 -24.214  0.00  0.00     0.009 A 
ATOM     14  C   UNL d   1      33.238  17.782 -23.771  0.00  0.00     0.001 A 
ATOM     15  C   UNL d   1      32.667  18.298 -23.513  0.00  0.00     0.003 A 
ATOM     16  C   UNL d   1      31.881  18.155 -23.693  0.00  0.00     0.033 A 
BRANCH  12  17
ATOM     17  S   UNL d   1      32.040  16.313 -24.832  0.00  0.00    -0.110 SA
ATOM     18  C   UNL d   1      32.579  15.690 -24.954  0.00  0.00     0.074 C 
ENDBRANCH  12  17
ENDBRANCH   2  11
TORSDOF 4
ENDMDL
MODEL 5
REMARK VINA RESULT:      -1.2      4.095      6.420
REMARK  4 active torsions:
REMARK  status: ('A' for Active; 'I' for Inactive)
REMARK    1  A    between atoms: C_3  and  C_1 
REMARK       I    between atoms: N_6  and  C_3 
REMARK    2  A    between atoms: C_12  and  N_5 
REMARK    3  A    between atoms: C_8  and  N_6 
REMARK    4  A    between atoms: S_11  and  C_10 
ROOT
ATOM      1  C   UNL d   1      32.097  20.978 -20.984  0.00  0.00     0.348 C 
ATOM      2  N   UNL d   1      32.537  21.608 -20.660  0.00  0.00    -0.363 NA
ATOM      3  O   UNL d   1      31.265  20.907 -20.815  0.00  0.00    -0.249 OA
ENDROOT
BRANCH   1   4
ATOM      4  C   UNL d   1      32.483  20.422 -21.475  0.00  0.00     0.173 A 
ATOM      5  N   UNL d   1      32.599  20.494 -22.296  0.00  0.00    -0.159 NA
ATOM      6  N   UNL d   1      33.006  19.813 -22.549  0.00  0.00    -0.227 N 
ATOM      7  C   UNL d   1      33.136  19.332 -21.893  0.00  0.00     0.102 A 
ATOM      8  C   UNL d   1      32.814  19.704 -21.226  0.00  0.00     0.048 A 
BRANCH   6   9
ATOM      9  C   UNL d   1      33.238  19.651 -23.327  0.00  0.00     0.101 C 
ATOM     10  C   UNL d   1      32.910  19.227 -23.954  0.00  0.00     0.022 C 
ENDBRANCH   6   9
ENDBRANCH   1   4
BRANCH   2  11
ATOM     11  C   UNL d   1      32.764  22.344 -20.206  0.00  0.00     0.141 A 
ATOM     12  C   UNL d   1      33.031  22.991 -20.634  0.00  0.00     0.055 A 
ATOM     13  C   UNL d   1      33.240  23.665 -20.246  0.00  0.00     0.009 A 
ATOM     14  C   UNL d   1      33.186  23.702 -19.422  0.00  0.00     0.001 A 
ATOM     15  C   UNL d   1      32.921  23.057 -19.005  0.00  0.00     0.003 A 
ATOM     16  C   UNL d   1      32.710  22.375 -19.405  0.00  0.00     0.033 A 
BRANCH  12  17
ATOM     17  S   UNL d   1      33.087  22.960 -21.462  0.00  0.00    -0.110 SA
ATOM     18  C   UNL d   1      33.193  23.653 -21.913  0.00  0.00     0.074 C 
ENDBRANCH  12  17
ENDBRANCH   2  11
TORSDOF 4
ENDMDL
MODEL 6
REMARK VINA RESULT:      -0.3      3.512      5.744
REMARK  4 active torsions:
REMARK  status: ('A' for Active; 'I' for Inactive)
REMARK    1  A    between atoms: C_3  and  C_1 
REMARK       I    between atoms: N_6  and  C_3 
REMARK    2  A    between atoms: C_12  and  N_5 
REMARK    3  A    between atoms: C_8  and  N_6 
REMARK    4  A    between atoms: S_11  and  C_10 
ROOT
ATOM      1  C   UNL d   1      33.094  20.412 -21.869  0.00  0.00     0.348 C 
ATOM      2  N   UNL d   1      32.992  21.194 -22.139  0.00  0.00    -0.363 NA
ATOM      3  O   UNL d   1      33.239  20.262 -21.042  0.00  0.00    -0.249 OA
ENDROOT
BRANCH   1   4
ATOM      4  C   UNL d   1      33.052  19.782 -22.417  0.00  0.00     0.173 A 
ATOM      5  N   UNL d   1      33.037  19.858 -23.246  0.00  0.00    -0.159 NA
ATOM      6  N   UNL d   1      32.994  19.090 -23.563  0.00  0.00    -0.227 N 
ATOM      7  C   UNL d   1      32.984  18.553 -22.939  0.00  0.00     0.102 A 
ATOM      8  C   UNL d   1      33.020  18.977 -22.227  0.00  0.00     0.048 A 
BRANCH   6   9
ATOM      9  C   UNL d   1      32.967  18.901 -24.369  0.00  0.00     0.101 C 
ATOM     10  C   UNL d   1      32.453  18.467 -24.847  0.00  0.00     0.022 C 
ENDBRANCH   6   9
ENDBRANCH   1   4
BRANCH   2  11
ATOM     11  C   UNL d   1      32.922  22.085 -22.164  0.00  0.00     0.141 A 
ATOM     12  C   UNL d   1      32.526  22.455 -21.546  0.00  0.00     0.055 A 
ATOM     13  C   UNL d   1      32.451  23.257 -21.547  0.00  0.00     0.009 A 
ATOM     14  C   UNL d   1      32.770  23.702 -22.166  0.00  0.00     0.001 A 
ATOM     15  C   UNL d   1      33.159  23.329 -22.774  0.00  0.00     0.003 A 
ATOM     16  C   UNL d   1      33.233  22.514 -22.768  0.00  0.00     0.033 A 
BRANCH  12  17
ATOM     17  S   UNL d   1      32.204  22.013 -20.922  0.00  0.00    -0.110 SA
ATOM     18  C   UNL d   1      31.842  22.387 -20.271  0.00  0.00     0.074 C 
ENDBRANCH  12  17
ENDBRANCH   2  11
TORSDOF 4
ENDMDL
