MODEL 1
REMARK VINA RESULT:     -11.3      0.000      0.000
REMARK  2 active torsions:
REMARK  status: ('A' for Active; 'I' for Inactive)
REMARK    1  A    between atoms: C_10  and  N_3 
REMARK    2  A    between atoms: C_15  and  C_10 
ROOT
ATOM      1  C   UNL d   1      53.318  32.481  53.928  0.00  0.00     0.166 A 
ATOM      2  C   UNL d   1      52.785  32.549  53.300  0.00  0.00     0.117 A 
ATOM      3  N   UNL d   1      53.435  33.239  54.214  0.00  0.00    -0.289 N 
ATOM      4  N   UNL d   1      53.619  31.741  54.149  0.00  0.00    -0.225 NA
ATOM      5  N   UNL d   1      52.569  31.859  52.907  0.00  0.00    -0.241 NA
ATOM      6  C   UNL d   1      52.589  33.329  53.213  0.00  0.00     0.037 A 
ATOM      7  C   UNL d   1      52.996  33.761  53.785  0.00  0.00     0.067 A 
ATOM      8  C   UNL d   1      53.392  31.073  53.749  0.00  0.00     0.101 A 
ATOM      9  C   UNL d   1      52.859  31.142  53.121  0.00  0.00     0.099 A 
ATOM     10  C   UNL d   1      52.088  33.715  52.683  0.00  0.00     0.003 A 
ATOM     11  C   UNL d   1      52.900  34.577  53.825  0.00  0.00     0.018 A 
ATOM     12  C   UNL d   1      52.631  30.477  52.718  0.00  0.00     0.021 A 
ATOM     13  C   UNL d   1      53.682  30.359  53.961  0.00  0.00     0.021 A 
ATOM     14  C   UNL d   1      51.994  34.534  52.726  0.00  0.00     0.000 A 
ATOM     15  C   UNL d   1      52.401  34.966  53.299  0.00  0.00     0.002 A 
ATOM     16  C   UNL d   1      53.440  29.676  53.540  0.00  0.00     0.002 A 
ATOM     17  C   UNL d   1      52.920  29.724  52.923  0.00  0.00     0.002 A 
ENDROOT
BRANCH   3  18
ATOM     18  C   UNL d   1      53.920  33.435  54.835  0.00  0.00     0.082 C 
BRANCH  18  19
ATOM     19  C   UNL d   1      54.729  33.583  54.677  0.00  0.00     0.019 C 
ATOM     20  C   UNL d   1      55.226  33.782  55.274  0.00  0.00     0.002 C 
ENDBRANCH  18  19
ENDBRANCH   3  18
TORSDOF 2
ENDMDL
MODEL 2
REMARK VINA RESULT:     -10.9      0.803      2.203
REMARK  2 active torsions:
REMARK  status: ('A' for Active; 'I' for Inactive)
REMARK    1  A    between atoms: C_10  and  N_3 
REMARK    2  A    between atoms: C_15  and  C_10 
ROOT
ATOM      1  C   UNL d   1      52.600  32.956  53.211  0.00  0.00     0.166 A 
ATOM      2  C   UNL d   1      53.168  32.985  53.810  0.00  0.00     0.117 A 
ATOM      3  N   UNL d   1      52.322  33.721  53.120  0.00  0.00    -0.289 N 
ATOM      4  N   UNL d   1      52.418  32.240  52.835  0.00  0.00    -0.225 NA
ATOM      5  N   UNL d   1      53.541  32.280  54.016  0.00  0.00    -0.241 NA
ATOM      6  C   UNL d   1      53.229  33.748  54.071  0.00  0.00     0.037 A 
ATOM      7  C   UNL d   1      52.699  34.209  53.639  0.00  0.00     0.067 A 
ATOM      8  C   UNL d   1      52.797  31.558  53.052  0.00  0.00     0.101 A 
ATOM      9  C   UNL d   1      53.365  31.587  53.652  0.00  0.00     0.099 A 
ATOM     10  C   UNL d   1      53.700  34.095  54.653  0.00  0.00     0.003 A 
ATOM     11  C   UNL d   1      52.643  35.015  53.790  0.00  0.00     0.018 A 
ATOM     12  C   UNL d   1      53.746  30.906  53.873  0.00  0.00     0.021 A 
ATOM     13  C   UNL d   1      52.622  30.866  52.691  0.00  0.00     0.021 A 
ATOM     14  C   UNL d   1      53.641  34.905  54.801  0.00  0.00     0.000 A 
ATOM     15  C   UNL d   1      53.111  35.367  54.369  0.00  0.00     0.002 A 
ATOM     16  C   UNL d   1      53.020  30.167  52.925  0.00  0.00     0.002 A 
ATOM     17  C   UNL d   1      53.579  30.177  53.509  0.00  0.00     0.002 A 
ENDROOT
BRANCH   3  18
ATOM     18  C   UNL d   1      51.755  33.953  52.588  0.00  0.00     0.082 C 
BRANCH  18  19
ATOM     19  C   UNL d   1      50.961  34.006  52.851  0.00  0.00     0.019 C 
ATOM     20  C   UNL d   1      50.383  34.233  52.343  0.00  0.00     0.002 C 
ENDBRANCH  18  19
ENDBRANCH   3  18
TORSDOF 2
ENDMDL
MODEL 3
REMARK VINA RESULT:     -10.6      0.820      3.136
REMARK  2 active torsions:
REMARK  status: ('A' for Active; 'I' for Inactive)
REMARK    1  A    between atoms: C_10  and  N_3 
REMARK    2  A    between atoms: C_15  and  C_10 
ROOT
ATOM      1  C   UNL d   1      52.943  32.843  53.460  0.00  0.00     0.166 A 
ATOM      2  C   UNL d   1      52.435  32.261  53.165  0.00  0.00     0.117 A 
ATOM      3  N   UNL d   1      53.626  32.456  53.693  0.00  0.00    -0.289 N 
ATOM      4  N   UNL d   1      52.711  33.639  53.474  0.00  0.00    -0.225 NA
ATOM      5  N   UNL d   1      51.698  32.503  52.889  0.00  0.00    -0.241 NA
ATOM      6  C   UNL d   1      52.805  31.544  53.220  0.00  0.00     0.037 A 
ATOM      7  C   UNL d   1      53.551  31.666  53.551  0.00  0.00     0.067 A 
ATOM      8  C   UNL d   1      51.981  33.855  53.198  0.00  0.00     0.101 A 
ATOM      9  C   UNL d   1      51.474  33.273  52.902  0.00  0.00     0.099 A 
ATOM     10  C   UNL d   1      52.565  30.783  53.012  0.00  0.00     0.003 A 
ATOM     11  C   UNL d   1      54.052  31.026  53.671  0.00  0.00     0.018 A 
ATOM     12  C   UNL d   1      50.742  33.486  52.625  0.00  0.00     0.021 A 
ATOM     13  C   UNL d   1      51.756  34.622  53.211  0.00  0.00     0.021 A 
ATOM     14  C   UNL d   1      53.072  30.143  53.135  0.00  0.00     0.000 A 
ATOM     15  C   UNL d   1      53.818  30.264  53.466  0.00  0.00     0.002 A 
ATOM     16  C   UNL d   1      50.999  34.835  52.922  0.00  0.00     0.002 A 
ATOM     17  C   UNL d   1      50.489  34.279  52.630  0.00  0.00     0.002 A 
ENDROOT
BRANCH   3  18
ATOM     18  C   UNL d   1      54.278  32.813  54.017  0.00  0.00     0.082 C 
BRANCH  18  19
ATOM     19  C   UNL d   1      54.283  32.960  54.842  0.00  0.00     0.019 C 
ATOM     20  C   UNL d   1      54.875  33.389  55.172  0.00  0.00     0.002 C 
ENDBRANCH  18  19
ENDBRANCH   3  18
TORSDOF 2
ENDMDL
MODEL 4
REMARK VINA RESULT:     -10.0      1.000      3.264
REMARK  2 active torsions:
REMARK  status: ('A' for Active; 'I' for Inactive)
REMARK    1  A    between atoms: C_10  and  N_3 
REMARK    2  A    between atoms: C_15  and  C_10 
ROOT
ATOM      1  C   UNL d   1      52.744  33.038  53.409  0.00  0.00     0.166 A 
ATOM      2  C   UNL d   1      52.795  33.715  53.879  0.00  0.00     0.117 A 
ATOM      3  N   UNL d   1      53.406  32.588  53.579  0.00  0.00    -0.289 N 
ATOM      4  N   UNL d   1      52.102  32.928  52.894  0.00  0.00    -0.225 NA
ATOM      5  N   UNL d   1      52.191  34.270  53.816  0.00  0.00    -0.241 NA
ATOM      6  C   UNL d   1      53.472  33.671  54.320  0.00  0.00     0.037 A 
ATOM      7  C   UNL d   1      53.855  32.965  54.132  0.00  0.00     0.067 A 
ATOM      8  C   UNL d   1      51.518  33.486  52.848  0.00  0.00     0.101 A 
ATOM      9  C   UNL d   1      51.570  34.164  53.319  0.00  0.00     0.099 A 
ATOM     10  C   UNL d   1      53.801  34.184  54.877  0.00  0.00     0.003 A 
ATOM     11  C   UNL d   1      54.564  32.776  54.502  0.00  0.00     0.018 A 
ATOM     12  C   UNL d   1      50.986  34.725  53.275  0.00  0.00     0.021 A 
ATOM     13  C   UNL d   1      50.899  33.382  52.352  0.00  0.00     0.021 A 
ATOM     14  C   UNL d   1      54.514  33.990  55.245  0.00  0.00     0.000 A 
ATOM     15  C   UNL d   1      54.896  33.283  55.057  0.00  0.00     0.002 A 
ATOM     16  C   UNL d   1      50.300  33.966  52.313  0.00  0.00     0.002 A 
ATOM     17  C   UNL d   1      50.334  34.635  52.765  0.00  0.00     0.002 A 
ENDROOT
BRANCH   3  18
ATOM     18  C   UNL d   1      53.584  31.871  53.242  0.00  0.00     0.082 C 
BRANCH  18  19
ATOM     19  C   UNL d   1      53.323  31.175  53.627  0.00  0.00     0.019 C 
ATOM     20  C   UNL d   1      53.426  30.459  53.280  0.00  0.00     0.002 C 
ENDBRANCH  18  19
ENDBRANCH   3  18
TORSDOF 2
ENDMDL
MODEL 5
REMARK VINA RESULT:      -9.7      0.897      3.572
REMARK  2 active torsions:
REMARK  status: ('A' for Active; 'I' for Inactive)
REMARK    1  A    between atoms: C_10  and  N_3 
REMARK    2  A    between atoms: C_15  and  C_10 
ROOT
ATOM      1  C   UNL d   1      53.158  32.783  53.695  0.00  0.00     0.166 A 
ATOM      2  C   UNL d   1      53.656  32.178  53.957  0.00  0.00     0.117 A 
ATOM      3  N   UNL d   1      52.609  32.431  53.200  0.00  0.00    -0.289 N 
ATOM      4  N   UNL d   1      53.276  33.565  53.943  0.00  0.00    -0.225 NA
ATOM      5  N   UNL d   1      54.266  32.382  54.470  0.00  0.00    -0.241 NA
ATOM      6  C   UNL d   1      53.410  31.481  53.628  0.00  0.00     0.037 A 
ATOM      7  C   UNL d   1      52.755  31.639  53.153  0.00  0.00     0.067 A 
ATOM      8  C   UNL d   1      53.883  33.745  54.448  0.00  0.00     0.101 A 
ATOM      9  C   UNL d   1      54.381  33.139  54.711  0.00  0.00     0.099 A 
ATOM     10  C   UNL d   1      53.696  30.710  53.694  0.00  0.00     0.003 A 
ATOM     11  C   UNL d   1      52.388  31.026  52.747  0.00  0.00     0.018 A 
ATOM     12  C   UNL d   1      54.990  33.315  55.216  0.00  0.00     0.021 A 
ATOM     13  C   UNL d   1      53.999  34.499  54.688  0.00  0.00     0.021 A 
ATOM     14  C   UNL d   1      53.325  30.097  53.284  0.00  0.00     0.000 A 
ATOM     15  C   UNL d   1      52.669  30.255  52.809  0.00  0.00     0.002 A 
ATOM     16  C   UNL d   1      54.630  34.673  55.211  0.00  0.00     0.002 A 
ATOM     17  C   UNL d   1      55.127  34.094  55.478  0.00  0.00     0.002 A 
ENDROOT
BRANCH   3  18
ATOM     18  C   UNL d   1      52.009  32.819  52.815  0.00  0.00     0.082 C 
BRANCH  18  19
ATOM     19  C   UNL d   1      51.311  32.997  53.242  0.00  0.00     0.019 C 
ATOM     20  C   UNL d   1      50.742  33.456  52.912  0.00  0.00     0.002 C 
ENDBRANCH  18  19
ENDBRANCH   3  18
TORSDOF 2
ENDMDL
MODEL 6
REMARK VINA RESULT:      -9.2      0.832      3.013
REMARK  2 active torsions:
REMARK  status: ('A' for Active; 'I' for Inactive)
REMARK    1  A    between atoms: C_10  and  N_3 
REMARK    2  A    between atoms: C_15  and  C_10 
ROOT
ATOM      1  C   UNL d   1      53.035  33.057  53.561  0.00  0.00     0.166 A 
ATOM      2  C   UNL d   1      52.695  33.784  53.757  0.00  0.00     0.117 A 
ATOM      3  N   UNL d   1      52.523  32.698  53.032  0.00  0.00    -0.289 N 
ATOM      4  N   UNL d   1      53.760  32.827  53.890  0.00  0.00    -0.225 NA
ATOM      5  N   UNL d   1      53.101  34.264  54.287  0.00  0.00    -0.241 NA
ATOM      6  C   UNL d   1      51.996  33.858  53.355  0.00  0.00     0.037 A 
ATOM      7  C   UNL d   1      51.889  33.178  52.901  0.00  0.00     0.067 A 
ATOM      8  C   UNL d   1      54.144  33.315  54.411  0.00  0.00     0.101 A 
ATOM      9  C   UNL d   1      53.803  34.042  54.607  0.00  0.00     0.099 A 
ATOM     10  C   UNL d   1      51.432  34.459  53.338  0.00  0.00     0.003 A 
ATOM     11  C   UNL d   1      51.218  33.103  52.433  0.00  0.00     0.018 A 
ATOM     12  C   UNL d   1      54.184  34.533  55.127  0.00  0.00     0.021 A 
ATOM     13  C   UNL d   1      54.843  33.094  54.730  0.00  0.00     0.021 A 
ATOM     14  C   UNL d   1      50.759  34.380  52.866  0.00  0.00     0.000 A 
ATOM     15  C   UNL d   1      50.652  33.700  52.412  0.00  0.00     0.002 A 
ATOM     16  C   UNL d   1      55.231  33.607  55.267  0.00  0.00     0.002 A 
ATOM     17  C   UNL d   1      54.913  34.322  55.470  0.00  0.00     0.002 A 
ENDROOT
BRANCH   3  18
ATOM     18  C   UNL d   1      52.637  31.970  52.691  0.00  0.00     0.082 C 
BRANCH  18  19
ATOM     19  C   UNL d   1      52.441  31.288  53.135  0.00  0.00     0.019 C 
ATOM     20  C   UNL d   1      52.631  30.559  52.859  0.00  0.00     0.002 C 
ENDBRANCH  18  19
ENDBRANCH   3  18
TORSDOF 2
ENDMDL
