MODEL 1
REMARK VINA RESULT:      -3.3      0.000      0.000
REMARK  5 active torsions:
REMARK  status: ('A' for Active; 'I' for Inactive)
REMARK    1  A    between atoms: N_2  and  C_1 
REMARK    2  A    between atoms: C_9  and  C_5 
REMARK       I    between atoms: N_6  and  C_7 
REMARK    3  A    between atoms: C_11  and  N_6 
REMARK    4  A    between atoms: C_7  and  C_10 
REMARK    5  A    between atoms: C_10  and  C_9 
ROOT
ATOM      1  N   UNL d   1      32.590  18.827 -23.273  0.00  0.00    -0.208 NA
ATOM      2  C   UNL d   1      32.885  19.124 -22.590  0.00  0.00     0.279 C 
ATOM      3  O   UNL d   1      33.241  18.641 -22.035  0.00  0.00    -0.265 OA
ENDROOT
BRANCH   2   4
ATOM      4  C   UNL d   1      32.830  19.935 -22.439  0.00  0.00     0.063 C 
BRANCH   4   5
ATOM      5  C   UNL d   1      32.910  20.236 -21.664  0.00  0.00     0.011 C 
BRANCH   5   6
ATOM      6  C   UNL d   1      32.741  21.009 -21.496  0.00  0.00     0.031 A 
ATOM      7  S   UNL d   1      32.875  21.709 -21.910  0.00  0.00    -0.064 SA
ATOM      8  C   UNL d   1      32.582  22.310 -21.460  0.00  0.00     0.156 A 
ATOM      9  C   UNL d   1      32.270  22.003 -20.778  0.00  0.00     0.031 A 
ATOM     10  C   UNL d   1      32.362  21.206 -20.789  0.00  0.00     0.009 A 
BRANCH   8  11
ATOM     11  N   UNL d   1      32.610  23.116 -21.686  0.00  0.00    -0.107 N 
ATOM     12  O   UNL d   1      32.139  23.417 -22.271  0.00  0.00    -0.531 OA
ATOM     13  O   UNL d   1      33.145  23.617 -21.286  0.00  0.00    -0.531 OA
ENDBRANCH   8  11
ENDBRANCH   5   6
ENDBRANCH   4   5
ENDBRANCH   2   4
BRANCH   1  14
ATOM     14  C   UNL d   1      32.645  18.020 -23.424  0.00  0.00     0.085 A 
ATOM     15  C   UNL d   1      32.161  17.673 -24.001  0.00  0.00     0.018 A 
ATOM     16  C   UNL d   1      31.627  18.137 -24.421  0.00  0.00     0.002 C 
ATOM     17  C   UNL d   1      32.215  16.868 -24.151  0.00  0.00     0.002 A 
ATOM     18  C   UNL d   1      32.755  16.398 -23.726  0.00  0.00     0.000 A 
ATOM     19  C   UNL d   1      33.235  16.751 -23.151  0.00  0.00     0.002 A 
ATOM     20  C   UNL d   1      33.181  17.556 -23.001  0.00  0.00     0.019 A 
ENDBRANCH   1  14
TORSDOF 5
ENDMDL
MODEL 2
REMARK VINA RESULT:      -2.9      1.130      1.493
REMARK  5 active torsions:
REMARK  status: ('A' for Active; 'I' for Inactive)
REMARK    1  A    between atoms: N_2  and  C_1 
REMARK    2  A    between atoms: C_9  and  C_5 
REMARK       I    between atoms: N_6  and  C_7 
REMARK    3  A    between atoms: C_11  and  N_6 
REMARK    4  A    between atoms: C_7  and  C_10 
REMARK    5  A    between atoms: C_10  and  C_9 
ROOT
ATOM      1  N   UNL d   1      32.063  17.935 -23.756  0.00  0.00    -0.208 NA
ATOM      2  C   UNL d   1      32.645  18.142 -23.247  0.00  0.00     0.279 C 
ATOM      3  O   UNL d   1      33.098  17.579 -22.866  0.00  0.00    -0.265 OA
ENDROOT
BRANCH   2   4
ATOM      4  C   UNL d   1      32.796  18.942 -23.101  0.00  0.00     0.063 C 
BRANCH   4   5
ATOM      5  C   UNL d   1      33.109  19.197 -22.369  0.00  0.00     0.011 C 
BRANCH   5   6
ATOM      6  C   UNL d   1      33.040  19.966 -22.129  0.00  0.00     0.031 A 
ATOM      7  S   UNL d   1      32.791  20.306 -21.421  0.00  0.00    -0.064 SA
ATOM      8  C   UNL d   1      32.842  21.106 -21.512  0.00  0.00     0.156 A 
ATOM      9  C   UNL d   1      33.116  21.271 -22.256  0.00  0.00     0.031 A 
ATOM     10  C   UNL d   1      33.241  20.579 -22.644  0.00  0.00     0.009 A 
BRANCH   8  11
ATOM     11  N   UNL d   1      32.638  21.656 -20.914  0.00  0.00    -0.107 N 
ATOM     12  O   UNL d   1      31.889  21.709 -20.614  0.00  0.00    -0.531 OA
ATOM     13  O   UNL d   1      33.238  22.161 -20.626  0.00  0.00    -0.531 OA
ENDBRANCH   8  11
ENDBRANCH   5   6
ENDBRANCH   4   5
ENDBRANCH   2   4
BRANCH   1  14
ATOM     14  C   UNL d   1      31.914  17.139 -23.901  0.00  0.00     0.085 A 
ATOM     15  C   UNL d   1      31.274  16.919 -24.382  0.00  0.00     0.018 A 
ATOM     16  C   UNL d   1      30.791  17.498 -24.711  0.00  0.00     0.002 C 
ATOM     17  C   UNL d   1      31.125  16.126 -24.527  0.00  0.00     0.002 A 
ATOM     18  C   UNL d   1      31.613  15.539 -24.193  0.00  0.00     0.000 A 
ATOM     19  C   UNL d   1      32.250  15.766 -23.715  0.00  0.00     0.002 A 
ATOM     20  C   UNL d   1      32.399  16.560 -23.570  0.00  0.00     0.019 A 
ENDBRANCH   1  14
TORSDOF 5
ENDMDL
MODEL 3
REMARK VINA RESULT:      -2.8      1.915      5.092
REMARK  5 active torsions:
REMARK  status: ('A' for Active; 'I' for Inactive)
REMARK    1  A    between atoms: N_2  and  C_1 
REMARK    2  A    between atoms: C_9  and  C_5 
REMARK       I    between atoms: N_6  and  C_7 
REMARK    3  A    between atoms: C_11  and  N_6 
REMARK    4  A    between atoms: C_7  and  C_10 
REMARK    5  A    between atoms: C_10  and  C_9 
ROOT
ATOM      1  N   UNL d   1      32.769  20.318 -21.824  0.00  0.00    -0.208 NA
ATOM      2  C   UNL d   1      32.968  19.937 -22.500  0.00  0.00     0.279 C 
ATOM      3  O   UNL d   1      33.239  20.344 -23.155  0.00  0.00    -0.265 OA
ENDROOT
BRANCH   2   4
ATOM      4  C   UNL d   1      32.900  19.114 -22.541  0.00  0.00     0.063 C 
BRANCH   4   5
ATOM      5  C   UNL d   1      32.924  18.714 -23.274  0.00  0.00     0.011 C 
BRANCH   5   6
ATOM      6  C   UNL d   1      32.734  17.929 -23.329  0.00  0.00     0.031 A 
ATOM      7  S   UNL d   1      32.117  17.533 -23.704  0.00  0.00    -0.064 SA
ATOM      8  C   UNL d   1      32.221  16.746 -23.563  0.00  0.00     0.156 A 
ATOM      9  C   UNL d   1      32.885  16.643 -23.111  0.00  0.00     0.031 A 
ATOM     10  C   UNL d   1      33.209  17.363 -22.961  0.00  0.00     0.009 A 
BRANCH   8  11
ATOM     11  N   UNL d   1      31.708  16.150 -23.851  0.00  0.00    -0.107 N 
ATOM     12  O   UNL d   1      31.866  15.733 -24.526  0.00  0.00    -0.531 OA
ATOM     13  O   UNL d   1      31.012  15.990 -23.417  0.00  0.00    -0.531 OA
ENDBRANCH   8  11
ENDBRANCH   5   6
ENDBRANCH   4   5
ENDBRANCH   2   4
BRANCH   1  14
ATOM     14  C   UNL d   1      32.837  21.137 -21.784  0.00  0.00     0.085 A 
ATOM     15  C   UNL d   1      32.568  21.542 -21.112  0.00  0.00     0.018 A 
ATOM     16  C   UNL d   1      32.234  21.124 -20.487  0.00  0.00     0.002 C 
ATOM     17  C   UNL d   1      32.636  22.359 -21.072  0.00  0.00     0.002 A 
ATOM     18  C   UNL d   1      32.974  22.784 -21.703  0.00  0.00     0.000 A 
ATOM     19  C   UNL d   1      33.241  22.372 -22.371  0.00  0.00     0.002 A 
ATOM     20  C   UNL d   1      33.173  21.556 -22.411  0.00  0.00     0.019 A 
ENDBRANCH   1  14
TORSDOF 5
ENDMDL
MODEL 4
REMARK VINA RESULT:      -2.0      3.252      4.997
REMARK  5 active torsions:
REMARK  status: ('A' for Active; 'I' for Inactive)
REMARK    1  A    between atoms: N_2  and  C_1 
REMARK    2  A    between atoms: C_9  and  C_5 
REMARK       I    between atoms: N_6  and  C_7 
REMARK    3  A    between atoms: C_11  and  N_6 
REMARK    4  A    between atoms: C_7  and  C_10 
REMARK    5  A    between atoms: C_10  and  C_9 
ROOT
ATOM      1  N   UNL d   1      32.310  22.475 -20.466  0.00  0.00    -0.208 NA
ATOM      2  C   UNL d   1      32.577  23.173 -20.178  0.00  0.00     0.279 C 
ATOM      3  O   UNL d   1      33.078  23.649 -20.614  0.00  0.00    -0.265 OA
ENDROOT
BRANCH   2   4
ATOM      4  C   UNL d   1      32.344  23.420 -19.424  0.00  0.00     0.063 C 
BRANCH   4   5
ATOM      5  C   UNL d   1      32.908  23.640 -18.848  0.00  0.00     0.011 C 
BRANCH   5   6
ATOM      6  C   UNL d   1      32.766  23.529 -18.059  0.00  0.00     0.031 A 
ATOM      7  S   UNL d   1      33.241  23.260 -17.442  0.00  0.00    -0.064 SA
ATOM      8  C   UNL d   1      32.789  23.268 -16.775  0.00  0.00     0.156 A 
ATOM      9  C   UNL d   1      32.046  23.534 -16.960  0.00  0.00     0.031 A 
ATOM     10  C   UNL d   1      32.020  23.697 -17.746  0.00  0.00     0.009 A 
BRANCH   8  11
ATOM     11  N   UNL d   1      33.068  23.034 -16.021  0.00  0.00    -0.107 N 
ATOM     12  O   UNL d   1      33.225  23.567 -15.433  0.00  0.00    -0.531 OA
ATOM     13  O   UNL d   1      33.185  22.218 -15.883  0.00  0.00    -0.531 OA
ENDBRANCH   8  11
ENDBRANCH   5   6
ENDBRANCH   4   5
ENDBRANCH   2   4
BRANCH   1  14
ATOM     14  C   UNL d   1      32.542  22.229 -21.216  0.00  0.00     0.085 A 
ATOM     15  C   UNL d   1      32.584  21.419 -21.391  0.00  0.00     0.018 A 
ATOM     16  C   UNL d   1      32.395  20.865 -20.814  0.00  0.00     0.002 C 
ATOM     17  C   UNL d   1      32.815  21.174 -22.139  0.00  0.00     0.002 A 
ATOM     18  C   UNL d   1      33.007  21.734 -22.724  0.00  0.00     0.000 A 
ATOM     19  C   UNL d   1      32.962  22.541 -22.542  0.00  0.00     0.002 A 
ATOM     20  C   UNL d   1      32.731  22.786 -21.794  0.00  0.00     0.019 A 
ENDBRANCH   1  14
TORSDOF 5
ENDMDL
MODEL 5
REMARK VINA RESULT:      -1.4      1.630      5.181
REMARK  5 active torsions:
REMARK  status: ('A' for Active; 'I' for Inactive)
REMARK    1  A    between atoms: N_2  and  C_1 
REMARK    2  A    between atoms: C_9  and  C_5 
REMARK       I    between atoms: N_6  and  C_7 
REMARK    3  A    between atoms: C_11  and  N_6 
REMARK    4  A    between atoms: C_7  and  C_10 
REMARK    5  A    between atoms: C_10  and  C_9 
ROOT
ATOM      1  N   UNL d   1      32.975  21.309 -20.478  0.00  0.00    -0.208 NA
ATOM      2  C   UNL d   1      33.135  21.232 -21.259  0.00  0.00     0.279 C 
ATOM      3  O   UNL d   1      33.216  21.885 -21.743  0.00  0.00    -0.265 OA
ENDROOT
BRANCH   2   4
ATOM      4  C   UNL d   1      33.222  20.477 -21.586  0.00  0.00     0.063 C 
BRANCH   4   5
ATOM      5  C   UNL d   1      32.950  20.307 -22.357  0.00  0.00     0.011 C 
BRANCH   5   6
ATOM      6  C   UNL d   1      32.871  19.544 -22.614  0.00  0.00     0.031 A 
ATOM      7  S   UNL d   1      32.526  19.218 -23.288  0.00  0.00    -0.064 SA
ATOM      8  C   UNL d   1      32.620  18.419 -23.238  0.00  0.00     0.156 A 
ATOM      9  C   UNL d   1      33.013  18.240 -22.552  0.00  0.00     0.031 A 
ATOM     10  C   UNL d   1      33.173  18.923 -22.161  0.00  0.00     0.009 A 
BRANCH   8  11
ATOM     11  N   UNL d   1      32.344  17.881 -23.818  0.00  0.00    -0.107 N 
ATOM     12  O   UNL d   1      32.227  17.097 -23.659  0.00  0.00    -0.531 OA
ATOM     13  O   UNL d   1      32.188  18.177 -24.583  0.00  0.00    -0.531 OA
ENDBRANCH   8  11
ENDBRANCH   5   6
ENDBRANCH   4   5
ENDBRANCH   2   4
BRANCH   1  14
ATOM     14  C   UNL d   1      32.889  22.060 -20.153  0.00  0.00     0.085 A 
ATOM     15  C   UNL d   1      33.021  22.178 -19.342  0.00  0.00     0.018 A 
ATOM     16  C   UNL d   1      33.239  21.542 -18.866  0.00  0.00     0.002 C 
ATOM     17  C   UNL d   1      32.935  22.926 -19.018  0.00  0.00     0.002 A 
ATOM     18  C   UNL d   1      32.715  23.569 -19.498  0.00  0.00     0.000 A 
ATOM     19  C   UNL d   1      32.585  23.444 -20.307  0.00  0.00     0.002 A 
ATOM     20  C   UNL d   1      32.670  22.696 -20.631  0.00  0.00     0.019 A 
ENDBRANCH   1  14
TORSDOF 5
ENDMDL
MODEL 6
REMARK VINA RESULT:      -0.8      3.043      5.272
REMARK  5 active torsions:
REMARK  status: ('A' for Active; 'I' for Inactive)
REMARK    1  A    between atoms: N_2  and  C_1 
REMARK    2  A    between atoms: C_9  and  C_5 
REMARK       I    between atoms: N_6  and  C_7 
REMARK    3  A    between atoms: C_11  and  N_6 
REMARK    4  A    between atoms: C_7  and  C_10 
REMARK    5  A    between atoms: C_10  and  C_9 
ROOT
ATOM      1  N   UNL d   1      32.342  18.313 -23.241  0.00  0.00    -0.208 NA
ATOM      2  C   UNL d   1      32.439  17.705 -23.754  0.00  0.00     0.279 C 
ATOM      3  O   UNL d   1      32.829  17.806 -24.465  0.00  0.00    -0.265 OA
ENDROOT
BRANCH   2   4
ATOM      4  C   UNL d   1      32.139  16.958 -23.563  0.00  0.00     0.063 C 
BRANCH   4   5
ATOM      5  C   UNL d   1      31.687  16.521 -24.113  0.00  0.00     0.011 C 
BRANCH   5   6
ATOM      6  C   UNL d   1      30.958  16.230 -23.918  0.00  0.00     0.031 A 
ATOM      7  S   UNL d   1      30.198  16.419 -24.174  0.00  0.00    -0.064 SA
ATOM      8  C   UNL d   1      29.688  15.937 -23.777  0.00  0.00     0.156 A 
ATOM      9  C   UNL d   1      30.110  15.455 -23.281  0.00  0.00     0.031 A 
ATOM     10  C   UNL d   1      30.891  15.626 -23.359  0.00  0.00     0.009 A 
BRANCH   8  11
ATOM     11  N   UNL d   1      28.857  15.954 -23.880  0.00  0.00    -0.107 N 
ATOM     12  O   UNL d   1      28.485  15.530 -24.460  0.00  0.00    -0.531 OA
ATOM     13  O   UNL d   1      28.408  16.428 -23.360  0.00  0.00    -0.531 OA
ENDBRANCH   8  11
ENDBRANCH   5   6
ENDBRANCH   4   5
ENDBRANCH   2   4
BRANCH   1  14
ATOM     14  C   UNL d   1      32.640  19.056 -23.430  0.00  0.00     0.085 A 
ATOM     15  C   UNL d   1      32.944  19.545 -22.833  0.00  0.00     0.018 A 
ATOM     16  C   UNL d   1      32.946  19.285 -22.052  0.00  0.00     0.002 C 
ATOM     17  C   UNL d   1      33.241  20.286 -23.021  0.00  0.00     0.002 A 
ATOM     18  C   UNL d   1      33.239  20.551 -23.811  0.00  0.00     0.000 A 
ATOM     19  C   UNL d   1      32.934  20.057 -24.402  0.00  0.00     0.002 A 
ATOM     20  C   UNL d   1      32.637  19.316 -24.214  0.00  0.00     0.019 A 
ENDBRANCH   1  14
TORSDOF 5
ENDMDL
MODEL 7
REMARK VINA RESULT:      -0.5      2.137      3.123
REMARK  5 active torsions:
REMARK  status: ('A' for Active; 'I' for Inactive)
REMARK    1  A    between atoms: N_2  and  C_1 
REMARK    2  A    between atoms: C_9  and  C_5 
REMARK       I    between atoms: N_6  and  C_7 
REMARK    3  A    between atoms: C_11  and  N_6 
REMARK    4  A    between atoms: C_7  and  C_10 
REMARK    5  A    between atoms: C_10  and  C_9 
ROOT
ATOM      1  N   UNL d   1      32.515  20.635 -21.298  0.00  0.00    -0.208 NA
ATOM      2  C   UNL d   1      32.587  21.409 -21.488  0.00  0.00     0.279 C 
ATOM      3  O   UNL d   1      32.838  21.643 -22.230  0.00  0.00    -0.265 OA
ENDROOT
BRANCH   2   4
ATOM      4  C   UNL d   1      32.405  21.987 -20.926  0.00  0.00     0.063 C 
BRANCH   4   5
ATOM      5  C   UNL d   1      33.007  22.395 -20.514  0.00  0.00     0.011 C 
BRANCH   5   6
ATOM      6  C   UNL d   1      32.869  22.721 -19.787  0.00  0.00     0.031 A 
ATOM      7  S   UNL d   1      33.114  22.510 -19.029  0.00  0.00    -0.064 SA
ATOM      8  C   UNL d   1      32.798  23.050 -18.520  0.00  0.00     0.156 A 
ATOM      9  C   UNL d   1      32.364  23.589 -18.941  0.00  0.00     0.031 A 
ATOM     10  C   UNL d   1      32.400  23.397 -19.720  0.00  0.00     0.009 A 
BRANCH   8  11
ATOM     11  N   UNL d   1      32.916  23.032 -17.691  0.00  0.00    -0.107 N 
ATOM     12  O   UNL d   1      33.240  22.393 -17.314  0.00  0.00    -0.531 OA
ATOM     13  O   UNL d   1      32.688  23.702 -17.249  0.00  0.00    -0.531 OA
ENDBRANCH   8  11
ENDBRANCH   5   6
ENDBRANCH   4   5
ENDBRANCH   2   4
BRANCH   1  14
ATOM     14  C   UNL d   1      32.696  20.059 -21.857  0.00  0.00     0.085 A 
ATOM     15  C   UNL d   1      33.060  19.352 -21.621  0.00  0.00     0.018 A 
ATOM     16  C   UNL d   1      33.238  19.228 -20.827  0.00  0.00     0.002 C 
ATOM     17  C   UNL d   1      33.241  18.778 -22.178  0.00  0.00     0.002 A 
ATOM     18  C   UNL d   1      33.061  18.902 -22.982  0.00  0.00     0.000 A 
ATOM     19  C   UNL d   1      32.698  19.611 -23.211  0.00  0.00     0.002 A 
ATOM     20  C   UNL d   1      32.517  20.184 -22.653  0.00  0.00     0.019 A 
ENDBRANCH   1  14
TORSDOF 5
ENDMDL
