MODEL 1
REMARK VINA RESULT:      23.7      0.000      0.000
REMARK  4 active torsions:
REMARK  status: ('A' for Active; 'I' for Inactive)
REMARK    1  A    between atoms: C_5  and  N_1 
REMARK       I    between atoms: C_2  and  N_3 
REMARK    2  A    between atoms: C_6  and  C_2 
REMARK    3  A    between atoms: N_3  and  C_4 
REMARK    4  A    between atoms: O_18  and  C_11 
ROOT
ATOM      1  C   UNL d   1      14.469  13.236  -2.179  0.00  0.00     0.108 A 
ATOM      2  C   UNL d   1      14.622  12.800  -0.887  0.00  0.00     0.128 A 
ATOM      3  C   UNL d   1      14.472  12.619  -1.648  0.00  0.00     0.045 A 
ATOM      4  C   UNL d   1      14.608  13.988  -1.958  0.00  0.00     0.112 A 
ATOM      5  C   UNL d   1      14.763  13.513  -0.618  0.00  0.00     0.026 A 
ATOM      6  C   UNL d   1      14.762  14.149  -1.150  0.00  0.00     0.027 A 
ENDROOT
BRANCH   1   7
ATOM      7  N   UNL d   1      14.306  13.067  -3.035  0.00  0.00    -0.204 NA
ATOM      8  C   UNL d   1      13.735  12.484  -3.214  0.00  0.00     0.302 C 
ATOM      9  O   UNL d   1      13.362  12.104  -2.585  0.00  0.00    -0.263 OA
BRANCH   8  10
ATOM     10  C   UNL d   1      13.541  12.283  -3.992  0.00  0.00     0.158 A 
ATOM     11  O   UNL d   1      14.033  12.011  -4.598  0.00  0.00    -0.300 OA
ATOM     12  C   UNL d   1      13.553  11.894  -5.271  0.00  0.00     0.123 A 
ATOM     13  C   UNL d   1      12.769  12.102  -5.050  0.00  0.00     0.029 A 
ATOM     14  C   UNL d   1      12.796  12.331  -4.280  0.00  0.00     0.032 A 
ENDBRANCH   8  10
ENDBRANCH   1   7
BRANCH   4  15
ATOM     15  O   UNL d   1      14.607  14.624  -2.489  0.00  0.00    -0.327 OA
ATOM     16  C   UNL d   1      14.915  15.399  -2.220  0.00  0.00     0.181 C 
ENDBRANCH   4  15
BRANCH   2  17
ATOM     17  N   UNL d   1      14.624  12.117  -0.309  0.00  0.00    -0.114 N 
ATOM     18  O   UNL d   1      13.883  11.780  -0.019  0.00  0.00    -0.532 OA
ATOM     19  O   UNL d   1      15.368  11.816  -0.060  0.00  0.00    -0.532 OA
ENDBRANCH   2  17
TORSDOF 4
ENDMDL
MODEL 2
REMARK VINA RESULT:      25.7      1.374      3.810
REMARK  4 active torsions:
REMARK  status: ('A' for Active; 'I' for Inactive)
REMARK    1  A    between atoms: C_5  and  N_1 
REMARK       I    between atoms: C_2  and  N_3 
REMARK    2  A    between atoms: C_6  and  C_2 
REMARK    3  A    between atoms: N_3  and  C_4 
REMARK    4  A    between atoms: O_18  and  C_11 
ROOT
ATOM      1  C   UNL d   1      13.631  13.200  -3.438  0.00  0.00     0.108 A 
ATOM      2  C   UNL d   1      13.614  14.457  -3.989  0.00  0.00     0.128 A 
ATOM      3  C   UNL d   1      13.857  13.981  -3.398  0.00  0.00     0.045 A 
ATOM      4  C   UNL d   1      13.187  12.916  -4.035  0.00  0.00     0.112 A 
ATOM      5  C   UNL d   1      13.182  14.233  -4.592  0.00  0.00     0.026 A 
ATOM      6  C   UNL d   1      12.945  13.440  -4.643  0.00  0.00     0.027 A 
ENDROOT
BRANCH   1   7
ATOM      7  N   UNL d   1      13.886  12.644  -2.796  0.00  0.00    -0.204 NA
ATOM      8  C   UNL d   1      14.217  12.975  -2.104  0.00  0.00     0.302 C 
ATOM      9  O   UNL d   1      14.285  13.795  -2.064  0.00  0.00    -0.263 OA
BRANCH   8  10
ATOM     10  C   UNL d   1      14.473  12.508  -1.472  0.00  0.00     0.158 A 
ATOM     11  O   UNL d   1      15.231  12.220  -1.311  0.00  0.00    -0.300 OA
ATOM     12  C   UNL d   1      15.182  11.779  -0.604  0.00  0.00     0.123 A 
ATOM     13  C   UNL d   1      14.380  11.813  -0.351  0.00  0.00     0.029 A 
ATOM     14  C   UNL d   1      13.984  12.255  -0.891  0.00  0.00     0.032 A 
ENDBRANCH   8  10
ENDBRANCH   1   7
BRANCH   4  15
ATOM     15  O   UNL d   1      12.951  12.124  -4.087  0.00  0.00    -0.327 OA
ATOM     16  C   UNL d   1      12.793  11.781  -4.877  0.00  0.00     0.181 C 
ENDBRANCH   4  15
BRANCH   2  17
ATOM     17  N   UNL d   1      13.866  15.314  -3.938  0.00  0.00    -0.114 N 
ATOM     18  O   UNL d   1      14.297  15.609  -3.249  0.00  0.00    -0.532 OA
ATOM     19  O   UNL d   1      13.671  15.819  -4.580  0.00  0.00    -0.532 OA
ENDBRANCH   2  17
TORSDOF 4
ENDMDL
