MODEL 1
REMARK VINA RESULT:      77.0      0.000      0.000
REMARK  6 active torsions:
REMARK  status: ('A' for Active; 'I' for Inactive)
REMARK    1  A    between atoms: C_4  and  S_1 
REMARK    2  A    between atoms: C_5  and  S_1 
REMARK    3  A    between atoms: C_2  and  N_7 
REMARK    4  A    between atoms: N_3  and  C_2 
REMARK    5  A    between atoms: C_17  and  N_6 
REMARK    6  A    between atoms: N_7  and  C_12 
ROOT
ATOM      1  C   UNL d   1      59.921  49.244  50.926  0.00  0.00     0.206 C 
ATOM      2  S   UNL d   1      59.928  49.517  51.702  0.00  0.00    -0.038 SA
ENDROOT
BRANCH   1   3
ATOM      3  N   UNL d   1      59.577  49.706  50.330  0.00  0.00    -0.218 NA
BRANCH   3   4
ATOM      4  C   UNL d   1      58.806  49.554  50.079  0.00  0.00     0.085 A 
ATOM      5  C   UNL d   1      58.235  49.329  50.632  0.00  0.00     0.031 A 
ATOM      6  C   UNL d   1      57.468  49.178  50.380  0.00  0.00     0.094 A 
ATOM      7  C   UNL d   1      57.271  49.252  49.576  0.00  0.00     0.012 A 
ATOM      8  C   UNL d   1      57.848  49.476  49.031  0.00  0.00     0.002 A 
ATOM      9  C   UNL d   1      58.617  49.627  49.290  0.00  0.00     0.019 A 
BRANCH   6  10
ATOM     10  S   UNL d   1      56.895  48.955  50.926  0.00  0.00     0.262 S 
ATOM     11  O   UNL d   1      57.231  48.198  50.961  0.00  0.00    -0.213 OA
ATOM     12  O   UNL d   1      56.566  49.706  50.888  0.00  0.00    -0.213 OA
BRANCH  10  13
ATOM     13  C   UNL d   1      56.324  48.730  51.471  0.00  0.00     0.364 C 
ATOM     14  F   UNL d   1      56.035  47.959  51.472  0.00  0.00    -0.159 F 
ATOM     15  F   UNL d   1      56.035  49.278  52.022  0.00  0.00    -0.159 F 
ENDBRANCH  10  13
ENDBRANCH   6  10
ENDBRANCH   3   4
ENDBRANCH   1   3
BRANCH   1  16
ATOM     16  N   UNL d   1      60.254  48.516  50.742  0.00  0.00    -0.278 N 
ATOM     17  C   UNL d   1      59.950  47.827  51.076  0.00  0.00     0.101 A 
ATOM     18  C   UNL d   1      60.283  47.100  50.892  0.00  0.00     0.100 A 
ATOM     19  N   UNL d   1      60.919  47.060  50.374  0.00  0.00    -0.301 N 
ATOM     20  C   UNL d   1      61.226  47.746  50.038  0.00  0.00     0.100 A 
ATOM     21  C   UNL d   1      60.890  48.477  50.224  0.00  0.00     0.101 A 
BRANCH  19  22
ATOM     22  C   UNL d   1      61.249  46.325  50.194  0.00  0.00     0.064 A 
ATOM     23  C   UNL d   1      61.898  46.285  49.685  0.00  0.00     0.018 A 
ATOM     24  C   UNL d   1      62.231  45.557  49.501  0.00  0.00     0.002 A 
ATOM     25  C   UNL d   1      61.917  44.863  49.825  0.00  0.00     0.000 A 
ATOM     26  C   UNL d   1      61.271  44.902  50.331  0.00  0.00     0.002 A 
ATOM     27  C   UNL d   1      60.935  45.632  50.517  0.00  0.00     0.018 A 
ENDBRANCH  19  22
ENDBRANCH   1  16
TORSDOF 6
ENDMDL
