MODEL 1
REMARK VINA RESULT:      44.6      0.000      0.000
REMARK  3 active torsions:
REMARK  status: ('A' for Active; 'I' for Inactive)
REMARK    1  A    between atoms: C_6  and  C_1 
REMARK    2  A    between atoms: N_7  and  C_2 
REMARK    3  A    between atoms: C_9  and  C_5 
REMARK       I    between atoms: N_8  and  C_6 
ROOT
ATOM      1  C   UNL d   1      13.695  13.470  -3.371  0.00  0.00     0.106 A 
ATOM      2  C   UNL d   1      14.029  12.811  -2.158  0.00  0.00     0.180 A 
ATOM      3  N   UNL d   1      13.955  12.244  -2.729  0.00  0.00    -0.222 NA
ATOM      4  S   UNL d   1      13.882  13.530  -2.509  0.00  0.00    -0.044 SA
ATOM      5  C   UNL d   1      13.765  12.602  -3.425  0.00  0.00     0.094 A 
ENDROOT
BRANCH   1   6
ATOM      6  C   UNL d   1      13.529  14.144  -3.821  0.00  0.00     0.272 C 
ATOM      7  N   UNL d   1      13.980  14.838  -3.717  0.00  0.00    -0.272 N 
ATOM      8  C   UNL d   1      14.599  15.248  -3.333  0.00  0.00     0.083 A 
ATOM      9  C   UNL d   1      13.528  15.212  -4.296  0.00  0.00     0.083 A 
ATOM     10  C   UNL d   1      14.760  16.032  -3.533  0.00  0.00     0.019 A 
ATOM     11  C   UNL d   1      14.306  16.416  -4.119  0.00  0.00     0.003 A 
ATOM     12  C   UNL d   1      13.692  16.006  -4.499  0.00  0.00     0.019 A 
ATOM     13  O   UNL d   1      12.919  14.139  -4.377  0.00  0.00    -0.266 OA
ENDBRANCH   1   6
BRANCH   5  14
ATOM     14  C   UNL d   1      13.622  12.331  -4.183  0.00  0.00     0.018 A 
ATOM     15  C   UNL d   1      12.905  12.042  -4.387  0.00  0.00     0.002 A 
ATOM     16  C   UNL d   1      12.769  11.780  -5.121  0.00  0.00     0.000 A 
ATOM     17  C   UNL d   1      13.350  11.802  -5.670  0.00  0.00     0.000 A 
ATOM     18  C   UNL d   1      14.078  12.090  -5.483  0.00  0.00     0.000 A 
ATOM     19  C   UNL d   1      14.206  12.353  -4.736  0.00  0.00     0.002 A 
ENDBRANCH   5  14
BRANCH   2  20
ATOM     20  N   UNL d   1      14.217  12.477  -1.462  0.00  0.00    -0.280 N 
ATOM     21  C   UNL d   1      13.621  12.176  -0.969  0.00  0.00     0.109 A 
ATOM     22  C   UNL d   1      13.815  11.830  -0.250  0.00  0.00     0.142 A 
ATOM     23  O   UNL d   1      14.607  11.780  -0.016  0.00  0.00    -0.300 OA
ATOM     24  C   UNL d   1      15.210  12.080  -0.506  0.00  0.00     0.142 A 
ATOM     25  C   UNL d   1      15.015  12.428  -1.230  0.00  0.00     0.109 A 
ENDBRANCH   2  20
TORSDOF 3
ENDMDL
