MODEL 1
REMARK VINA RESULT:       2.6      0.000      0.000
REMARK  4 active torsions:
REMARK  status: ('A' for Active; 'I' for Inactive)
REMARK    1  A    between atoms: N_9  and  C_3 
REMARK    2  A    between atoms: C_11  and  C_5 
REMARK    3  A    between atoms: C_15  and  C_10 
REMARK    4  A    between atoms: C_18  and  C_15 
ROOT
ATOM      1  N   UNL d   1      58.825  -0.287  30.430  0.00  0.00    -0.196 N 
ATOM      2  C   UNL d   1      58.133  -0.618  30.762  0.00  0.00     0.167 A 
ATOM      3  C   UNL d   1      59.127  -0.622  29.750  0.00  0.00     0.152 A 
ATOM      4  N   UNL d   1      58.862   0.680  31.470  0.00  0.00    -0.163 NA
ATOM      5  C   UNL d   1      57.816  -0.300  31.437  0.00  0.00     0.055 A 
ATOM      6  C   UNL d   1      58.170   0.349  31.802  0.00  0.00     0.104 A 
ATOM      7  N   UNL d   1      57.779  -1.267  30.398  0.00  0.00    -0.227 NA
ATOM      8  C   UNL d   1      58.787  -1.259  29.384  0.00  0.00     0.057 A 
ATOM      9  C   UNL d   1      58.096  -1.590  29.717  0.00  0.00     0.086 A 
ATOM     10  C   UNL d   1      57.857   0.673  32.481  0.00  0.00     0.023 C 
ENDROOT
BRANCH   5  11
ATOM     11  C   UNL d   1      57.134  -0.626  31.765  0.00  0.00     0.004 A 
ATOM     12  C   UNL d   1      56.434  -0.196  31.755  0.00  0.00     0.000 A 
ATOM     13  C   UNL d   1      55.753  -0.522  32.082  0.00  0.00     0.000 A 
ATOM     14  C   UNL d   1      55.772  -1.278  32.420  0.00  0.00     0.000 A 
ATOM     15  C   UNL d   1      56.474  -1.711  32.431  0.00  0.00     0.000 A 
ATOM     16  C   UNL d   1      57.166  -1.380  32.099  0.00  0.00     0.000 A 
ENDBRANCH   5  11
BRANCH   3  17
ATOM     17  N   UNL d   1      59.841  -0.280  29.407  0.00  0.00    -0.289 N 
ATOM     18  C   UNL d   1      60.517  -0.553  29.590  0.00  0.00     0.082 A 
ATOM     19  C   UNL d   1      61.133  -0.258  29.294  0.00  0.00     0.021 A 
ATOM     20  C   UNL d   1      60.411   0.584  28.628  0.00  0.00     0.021 A 
ATOM     21  C   UNL d   1      59.783   0.284  28.930  0.00  0.00     0.082 A 
ENDBRANCH   3  17
BRANCH   9  22
ATOM     22  C   UNL d   1      57.723  -2.266  29.341  0.00  0.00     0.019 C 
BRANCH  22  23
ATOM     23  C   UNL d   1      58.189  -2.963  29.123  0.00  0.00     0.002 C 
ATOM     24  C   UNL d   1      57.833  -3.597  28.682  0.00  0.00     0.000 C 
ENDBRANCH  22  23
ENDBRANCH   9  22
TORSDOF 4
ENDMDL
MODEL 2
REMARK VINA RESULT:       3.2      0.939      3.588
REMARK  4 active torsions:
REMARK  status: ('A' for Active; 'I' for Inactive)
REMARK    1  A    between atoms: N_9  and  C_3 
REMARK    2  A    between atoms: C_11  and  C_5 
REMARK    3  A    between atoms: C_15  and  C_10 
REMARK    4  A    between atoms: C_18  and  C_15 
ROOT
ATOM      1  N   UNL d   1      58.398  -0.237  31.116  0.00  0.00    -0.196 N 
ATOM      2  C   UNL d   1      58.900  -0.422  30.473  0.00  0.00     0.167 A 
ATOM      3  C   UNL d   1      57.645  -0.553  31.124  0.00  0.00     0.152 A 
ATOM      4  N   UNL d   1      59.425   0.558  31.690  0.00  0.00    -0.163 NA
ATOM      5  C   UNL d   1      59.651  -0.118  30.446  0.00  0.00     0.055 A 
ATOM      6  C   UNL d   1      59.927   0.373  31.047  0.00  0.00     0.104 A 
ATOM      7  N   UNL d   1      58.623  -0.913  29.872  0.00  0.00    -0.227 NA
ATOM      8  C   UNL d   1      57.365  -1.036  30.539  0.00  0.00     0.057 A 
ATOM      9  C   UNL d   1      57.866  -1.221  29.896  0.00  0.00     0.086 A 
ATOM     10  C   UNL d   1      60.681   0.682  31.026  0.00  0.00     0.023 C 
ENDROOT
BRANCH   5  11
ATOM     11  C   UNL d   1      60.145  -0.301  29.812  0.00  0.00     0.004 A 
ATOM     12  C   UNL d   1      60.147   0.183  29.148  0.00  0.00     0.000 A 
ATOM     13  C   UNL d   1      60.641   0.001  28.515  0.00  0.00     0.000 A 
ATOM     14  C   UNL d   1      61.133  -0.664  28.547  0.00  0.00     0.000 A 
ATOM     15  C   UNL d   1      61.133  -1.150  29.213  0.00  0.00     0.000 A 
ATOM     16  C   UNL d   1      60.631  -0.965  29.856  0.00  0.00     0.000 A 
ENDBRANCH   5  11
BRANCH   3  17
ATOM     17  N   UNL d   1      57.128  -0.363  31.787  0.00  0.00    -0.289 N 
ATOM     18  C   UNL d   1      57.103  -0.811  32.389  0.00  0.00     0.082 A 
ATOM     19  C   UNL d   1      56.656  -0.646  32.962  0.00  0.00     0.021 A 
ATOM     20  C   UNL d   1      56.252   0.415  32.341  0.00  0.00     0.021 A 
ATOM     21  C   UNL d   1      56.707   0.247  31.758  0.00  0.00     0.082 A 
ENDBRANCH   3  17
BRANCH   9  22
ATOM     22  C   UNL d   1      57.584  -1.733  29.267  0.00  0.00     0.019 C 
BRANCH  22  23
ATOM     23  C   UNL d   1      57.844  -2.558  29.218  0.00  0.00     0.002 C 
ATOM     24  C   UNL d   1      57.988  -2.919  28.461  0.00  0.00     0.000 C 
ENDBRANCH  22  23
ENDBRANCH   9  22
TORSDOF 4
ENDMDL
MODEL 3
REMARK VINA RESULT:       4.0      8.955      9.492
REMARK  4 active torsions:
REMARK  status: ('A' for Active; 'I' for Inactive)
REMARK    1  A    between atoms: N_9  and  C_3 
REMARK    2  A    between atoms: C_11  and  C_5 
REMARK    3  A    between atoms: C_15  and  C_10 
REMARK    4  A    between atoms: C_18  and  C_15 
ROOT
ATOM      1  N   UNL d   1      58.038  -9.805  30.930  0.00  0.00    -0.196 N 
ATOM      2  C   UNL d   1      58.760  -9.803  31.351  0.00  0.00     0.167 A 
ATOM      3  C   UNL d   1      58.065  -9.802  30.114  0.00  0.00     0.152 A 
ATOM      4  N   UNL d   1      57.322  -9.810  32.157  0.00  0.00    -0.163 NA
ATOM      5  C   UNL d   1      58.756  -9.805  32.162  0.00  0.00     0.055 A 
ATOM      6  C   UNL d   1      58.045  -9.809  32.578  0.00  0.00     0.104 A 
ATOM      7  N   UNL d   1      59.472  -9.800  30.935  0.00  0.00    -0.227 NA
ATOM      8  C   UNL d   1      58.758  -9.799  29.697  0.00  0.00     0.057 A 
ATOM      9  C   UNL d   1      59.480  -9.797  30.118  0.00  0.00     0.086 A 
ATOM     10  C   UNL d   1      58.033  -9.811  33.393  0.00  0.00     0.023 C 
ENDROOT
BRANCH   5  11
ATOM     11  C   UNL d   1      59.468  -9.804  32.577  0.00  0.00     0.004 A 
ATOM     12  C   UNL d   1      59.457  -9.789  33.399  0.00  0.00     0.000 A 
ATOM     13  C   UNL d   1      60.168  -9.788  33.813  0.00  0.00     0.000 A 
ATOM     14  C   UNL d   1      60.890  -9.801  33.407  0.00  0.00     0.000 A 
ATOM     15  C   UNL d   1      60.902  -9.816  32.582  0.00  0.00     0.000 A 
ATOM     16  C   UNL d   1      60.179  -9.817  32.161  0.00  0.00     0.000 A 
ENDBRANCH   5  11
BRANCH   3  17
ATOM     17  N   UNL d   1      57.320  -9.804  29.680  0.00  0.00    -0.289 N 
ATOM     18  C   UNL d   1      57.320  -9.795  28.929  0.00  0.00     0.082 A 
ATOM     19  C   UNL d   1      56.676  -9.796  28.553  0.00  0.00     0.021 A 
ATOM     20  C   UNL d   1      56.024  -9.815  29.671  0.00  0.00     0.021 A 
ATOM     21  C   UNL d   1      56.679  -9.814  30.053  0.00  0.00     0.082 A 
ENDBRANCH   3  17
BRANCH   9  22
ATOM     22  C   UNL d   1      60.224  -9.794  29.690  0.00  0.00     0.019 C 
BRANCH  22  23
ATOM     23  C   UNL d   1      60.391  -9.182  29.099  0.00  0.00     0.002 C 
ATOM     24  C   UNL d   1      61.128  -9.184  28.674  0.00  0.00     0.000 C 
ENDBRANCH  22  23
ENDBRANCH   9  22
TORSDOF 4
ENDMDL
