MODEL 1
REMARK VINA RESULT:      -1.5      0.000      0.000
REMARK  3 active torsions:
REMARK  status: ('A' for Active; 'I' for Inactive)
REMARK    1  A    between atoms: N_7  and  C_1 
REMARK    2  A    between atoms: C_11  and  N_3 
REMARK       I    between atoms: C_9  and  N_7 
REMARK    3  A    between atoms: C_12  and  C_9 
ROOT
ATOM      1  C   UNL d   1      58.952  -0.561  29.968  0.00  0.00     0.169 A 
ATOM      2  C   UNL d   1      59.621  -0.337  29.625  0.00  0.00     0.067 A 
ATOM      3  N   UNL d   1      58.642   0.067  30.323  0.00  0.00    -0.212 N 
ATOM      4  C   UNL d   1      59.727   0.434  29.769  0.00  0.00     0.116 A 
ATOM      5  N   UNL d   1      59.123   0.680  30.199  0.00  0.00    -0.163 NA
ATOM      6  S   UNL d   1      60.703   0.018  29.069  0.00  0.00     0.213 S 
ATOM      7  C   UNL d   1      60.395   0.650  29.425  0.00  0.00     0.120 A 
ATOM      8  C   UNL d   1      60.224  -0.591  29.193  0.00  0.00     0.103 A 
ATOM      9  O   UNL d   1      61.128   0.670  28.989  0.00  0.00    -0.217 OA
ATOM     10  O   UNL d   1      60.929  -0.555  28.779  0.00  0.00    -0.217 OA
ENDROOT
BRANCH   1  11
ATOM     11  N   UNL d   1      59.011  -1.237  29.750  0.00  0.00    -0.187 NA
ATOM     12  C   UNL d   1      58.404  -1.915  29.300  0.00  0.00     0.303 C 
ATOM     13  O   UNL d   1      57.680  -1.743  29.107  0.00  0.00    -0.263 OA
BRANCH  12  14
ATOM     14  C   UNL d   1      58.697  -2.673  29.135  0.00  0.00     0.158 A 
ATOM     15  O   UNL d   1      59.362  -3.048  29.501  0.00  0.00    -0.300 OA
ATOM     16  C   UNL d   1      59.452  -3.807  29.161  0.00  0.00     0.123 A 
ATOM     17  C   UNL d   1      58.849  -3.913  28.586  0.00  0.00     0.029 A 
ATOM     18  C   UNL d   1      58.381  -3.219  28.564  0.00  0.00     0.032 A 
ENDBRANCH  12  14
ENDBRANCH   1  11
BRANCH   3  19
ATOM     19  C   UNL d   1      57.926   0.085  30.759  0.00  0.00     0.085 A 
ATOM     20  C   UNL d   1      57.798  -0.482  31.369  0.00  0.00     0.031 A 
ATOM     21  C   UNL d   1      57.095  -0.465  31.797  0.00  0.00     0.059 A 
ATOM     22 CL   UNL d   1      56.954  -1.023  32.407  0.00  0.00    -0.082 Cl
ATOM     23  C   UNL d   1      56.505   0.119  31.624  0.00  0.00     0.011 A 
ATOM     24  C   UNL d   1      56.646   0.676  31.015  0.00  0.00     0.002 A 
ATOM     25  C   UNL d   1      57.352   0.653  30.591  0.00  0.00     0.019 A 
ENDBRANCH   3  19
TORSDOF 3
ENDMDL
MODEL 2
REMARK VINA RESULT:       1.3      2.459      3.899
REMARK  3 active torsions:
REMARK  status: ('A' for Active; 'I' for Inactive)
REMARK    1  A    between atoms: N_7  and  C_1 
REMARK    2  A    between atoms: C_11  and  N_3 
REMARK       I    between atoms: C_9  and  N_7 
REMARK    3  A    between atoms: C_12  and  C_9 
ROOT
ATOM      1  C   UNL d   1      58.382   0.266  31.431  0.00  0.00     0.169 A 
ATOM      2  C   UNL d   1      58.836   0.397  32.056  0.00  0.00     0.067 A 
ATOM      3  N   UNL d   1      58.850   0.189  30.805  0.00  0.00    -0.212 N 
ATOM      4  C   UNL d   1      59.591   0.401  31.817  0.00  0.00     0.116 A 
ATOM      5  N   UNL d   1      59.596   0.273  31.046  0.00  0.00    -0.163 NA
ATOM      6  S   UNL d   1      59.566   0.610  33.071  0.00  0.00     0.213 S 
ATOM      7  C   UNL d   1      60.038   0.533  32.445  0.00  0.00     0.120 A 
ATOM      8  C   UNL d   1      58.824   0.526  32.830  0.00  0.00     0.103 A 
ATOM      9  O   UNL d   1      60.328   0.682  33.233  0.00  0.00    -0.217 OA
ATOM     10  O   UNL d   1      59.118   0.669  33.579  0.00  0.00    -0.217 OA
ENDROOT
BRANCH   1  11
ATOM     11  N   UNL d   1      57.776   0.293  31.805  0.00  0.00    -0.187 NA
ATOM     12  C   UNL d   1      56.969  -0.309  31.935  0.00  0.00     0.303 C 
ATOM     13  O   UNL d   1      56.910  -0.987  31.577  0.00  0.00    -0.263 OA
BRANCH  12  14
ATOM     14  C   UNL d   1      56.358  -0.064  32.439  0.00  0.00     0.158 A 
ATOM     15  O   UNL d   1      55.905   0.649  32.375  0.00  0.00    -0.300 OA
ATOM     16  C   UNL d   1      55.353   0.663  33.003  0.00  0.00     0.123 A 
ATOM     17  C   UNL d   1      55.454  -0.033  33.461  0.00  0.00     0.029 A 
ATOM     18  C   UNL d   1      56.071  -0.485  33.120  0.00  0.00     0.032 A 
ENDBRANCH  12  14
ENDBRANCH   1  11
BRANCH   3  19
ATOM     19  C   UNL d   1      58.601   0.042  30.017  0.00  0.00     0.085 A 
ATOM     20  C   UNL d   1      58.763  -0.705  29.664  0.00  0.00     0.031 A 
ATOM     21  C   UNL d   1      58.518  -0.849  28.890  0.00  0.00     0.059 A 
ATOM     22 CL   UNL d   1      58.672  -1.587  28.525  0.00  0.00    -0.082 Cl
ATOM     23  C   UNL d   1      58.107  -0.249  28.455  0.00  0.00     0.011 A 
ATOM     24  C   UNL d   1      57.953   0.489  28.820  0.00  0.00     0.002 A 
ATOM     25  C   UNL d   1      58.201   0.627  29.594  0.00  0.00     0.019 A 
ENDBRANCH   3  19
TORSDOF 3
ENDMDL
