MODEL 1
REMARK VINA RESULT:      -5.6      0.000      0.000
REMARK  3 active torsions:
REMARK  status: ('A' for Active; 'I' for Inactive)
REMARK    1  A    between atoms: C_8  and  C_2 
REMARK    2  A    between atoms: O_6  and  C_8 
REMARK    3  A    between atoms: C_7  and  O_6 
ROOT
ATOM      1  N   UNL d   1      56.845  -1.191  31.717  0.00  0.00    -0.224 NA
ATOM      2  C   UNL d   1      57.231  -0.610  31.281  0.00  0.00     0.188 A 
ATOM      3  N   UNL d   1      56.999   0.114  31.599  0.00  0.00    -0.224 NA
ATOM      4  C   UNL d   1      56.392  -0.838  32.284  0.00  0.00     0.101 A 
ATOM      5  C   UNL d   1      56.488  -0.022  32.210  0.00  0.00     0.101 A 
ATOM      6  C   UNL d   1      55.900  -1.112  32.865  0.00  0.00     0.021 A 
ATOM      7  C   UNL d   1      56.089   0.489  32.720  0.00  0.00     0.021 A 
ATOM      8  C   UNL d   1      55.593   0.183  33.305  0.00  0.00     0.002 A 
ATOM      9  C   UNL d   1      55.496  -0.633  33.378  0.00  0.00     0.002 A 
ENDROOT
BRANCH   2  10
ATOM     10  C   UNL d   1      57.712  -0.301  30.715  0.00  0.00     0.161 C 
BRANCH  10  11
ATOM     11  O   UNL d   1      57.981  -0.761  30.170  0.00  0.00    -0.302 OA
BRANCH  11  12
ATOM     12  C   UNL d   1      58.516  -0.467  29.578  0.00  0.00     0.100 A 
ATOM     13  C   UNL d   1      58.924  -0.978  29.118  0.00  0.00     0.023 A 
ATOM     14  C   UNL d   1      58.835  -1.789  29.206  0.00  0.00     0.002 C 
ATOM     15  C   UNL d   1      59.443  -0.679  28.544  0.00  0.00     0.002 A 
ATOM     16  C   UNL d   1      59.532   0.136  28.456  0.00  0.00     0.000 A 
ATOM     17  C   UNL d   1      59.105   0.682  28.939  0.00  0.00     0.002 A 
ATOM     18  C   UNL d   1      58.586   0.353  29.512  0.00  0.00     0.025 A 
ENDBRANCH  11  12
ENDBRANCH  10  11
ENDBRANCH   2  10
TORSDOF 3
ENDMDL
MODEL 2
REMARK VINA RESULT:      -5.1      1.094      4.300
REMARK  3 active torsions:
REMARK  status: ('A' for Active; 'I' for Inactive)
REMARK    1  A    between atoms: C_8  and  C_2 
REMARK    2  A    between atoms: O_6  and  C_8 
REMARK    3  A    between atoms: C_7  and  O_6 
ROOT
ATOM      1  N   UNL d   1      57.736   0.046  30.007  0.00  0.00    -0.224 NA
ATOM      2  C   UNL d   1      57.613   0.197  30.806  0.00  0.00     0.188 A 
ATOM      3  N   UNL d   1      58.334   0.459  31.108  0.00  0.00    -0.224 NA
ATOM      4  C   UNL d   1      58.505   0.209  29.823  0.00  0.00     0.101 A 
ATOM      5  C   UNL d   1      58.879   0.467  30.511  0.00  0.00     0.101 A 
ATOM      6  C   UNL d   1      58.943   0.170  29.143  0.00  0.00     0.021 A 
ATOM      7  C   UNL d   1      59.677   0.675  30.495  0.00  0.00     0.021 A 
ATOM      8  C   UNL d   1      60.101   0.626  29.788  0.00  0.00     0.002 A 
ATOM      9  C   UNL d   1      59.727   0.368  29.099  0.00  0.00     0.002 A 
ENDROOT
BRANCH   2  10
ATOM     10  C   UNL d   1      57.210   0.249  31.499  0.00  0.00     0.161 C 
BRANCH  10  11
ATOM     11  O   UNL d   1      56.671  -0.268  31.650  0.00  0.00    -0.302 OA
BRANCH  11  12
ATOM     12  C   UNL d   1      56.180  -0.195  32.341  0.00  0.00     0.100 A 
ATOM     13  C   UNL d   1      55.958  -0.848  32.745  0.00  0.00     0.023 A 
ATOM     14  C   UNL d   1      56.197  -1.596  32.505  0.00  0.00     0.002 C 
ATOM     15  C   UNL d   1      55.480  -0.765  33.418  0.00  0.00     0.002 A 
ATOM     16  C   UNL d   1      55.240  -0.013  33.660  0.00  0.00     0.000 A 
ATOM     17  C   UNL d   1      55.470   0.681  33.238  0.00  0.00     0.002 A 
ATOM     18  C   UNL d   1      55.955   0.568  32.561  0.00  0.00     0.025 A 
ENDBRANCH  11  12
ENDBRANCH  10  11
ENDBRANCH   2  10
TORSDOF 3
ENDMDL
MODEL 3
REMARK VINA RESULT:      -4.4      1.017      4.411
REMARK  3 active torsions:
REMARK  status: ('A' for Active; 'I' for Inactive)
REMARK    1  A    between atoms: C_8  and  C_2 
REMARK    2  A    between atoms: O_6  and  C_8 
REMARK    3  A    between atoms: C_7  and  O_6 
ROOT
ATOM      1  N   UNL d   1      57.744   0.356  30.172  0.00  0.00    -0.224 NA
ATOM      2  C   UNL d   1      57.477  -0.123  30.785  0.00  0.00     0.188 A 
ATOM      3  N   UNL d   1      57.745  -0.885  30.619  0.00  0.00    -0.224 NA
ATOM      4  C   UNL d   1      58.161  -0.094  29.647  0.00  0.00     0.101 A 
ATOM      5  C   UNL d   1      58.162  -0.870  29.927  0.00  0.00     0.101 A 
ATOM      6  C   UNL d   1      58.549   0.061  28.954  0.00  0.00     0.021 A 
ATOM      7  C   UNL d   1      58.550  -1.462  29.503  0.00  0.00     0.021 A 
ATOM      8  C   UNL d   1      58.938  -1.277  28.798  0.00  0.00     0.002 A 
ATOM      9  C   UNL d   1      58.937  -0.500  28.518  0.00  0.00     0.002 A 
ENDROOT
BRANCH   2  10
ATOM     10  C   UNL d   1      57.103  -0.315  31.470  0.00  0.00     0.161 C 
BRANCH  10  11
ATOM     11  O   UNL d   1      57.143   0.168  32.058  0.00  0.00    -0.302 OA
BRANCH  11  12
ATOM     12  C   UNL d   1      56.611   0.095  32.718  0.00  0.00     0.100 A 
ATOM     13  C   UNL d   1      56.835   0.349  33.442  0.00  0.00     0.023 A 
ATOM     14  C   UNL d   1      57.576   0.682  33.563  0.00  0.00     0.002 C 
ATOM     15  C   UNL d   1      56.308   0.273  34.078  0.00  0.00     0.002 A 
ATOM     16  C   UNL d   1      55.564  -0.062  33.956  0.00  0.00     0.000 A 
ATOM     17  C   UNL d   1      55.321  -0.332  33.193  0.00  0.00     0.002 A 
ATOM     18  C   UNL d   1      55.873  -0.243  32.567  0.00  0.00     0.025 A 
ENDBRANCH  11  12
ENDBRANCH  10  11
ENDBRANCH   2  10
TORSDOF 3
ENDMDL
MODEL 4
REMARK VINA RESULT:      -3.0      9.470      9.641
REMARK  3 active torsions:
REMARK  status: ('A' for Active; 'I' for Inactive)
REMARK    1  A    between atoms: C_8  and  C_2 
REMARK    2  A    between atoms: O_6  and  C_8 
REMARK    3  A    between atoms: C_7  and  O_6 
ROOT
ATOM      1  N   UNL d   1      59.054  -9.557  34.514  0.00  0.00    -0.224 NA
ATOM      2  C   UNL d   1      59.332  -9.430  33.750  0.00  0.00     0.188 A 
ATOM      3  N   UNL d   1      59.983  -8.930  33.819  0.00  0.00    -0.224 NA
ATOM      4  C   UNL d   1      59.517  -9.149  35.034  0.00  0.00     0.101 A 
ATOM      5  C   UNL d   1      60.098  -8.757  34.600  0.00  0.00     0.101 A 
ATOM      6  C   UNL d   1      59.517  -9.060  35.839  0.00  0.00     0.021 A 
ATOM      7  C   UNL d   1      60.658  -8.290  34.986  0.00  0.00     0.021 A 
ATOM      8  C   UNL d   1      60.636  -8.216  35.808  0.00  0.00     0.002 A 
ATOM      9  C   UNL d   1      60.055  -8.608  36.242  0.00  0.00     0.002 A 
ENDROOT
BRANCH   2  10
ATOM     10  C   UNL d   1      59.363  -9.496  32.949  0.00  0.00     0.161 C 
BRANCH  10  11
ATOM     11  O   UNL d   1      58.774  -9.813  32.584  0.00  0.00    -0.302 OA
BRANCH  11  12
ATOM     12  C   UNL d   1      58.740  -9.815  31.734  0.00  0.00     0.100 A 
ATOM     13  C   UNL d   1      58.032  -9.815  31.362  0.00  0.00     0.023 A 
ATOM     14  C   UNL d   1      57.331  -9.813  31.788  0.00  0.00     0.002 C 
ATOM     15  C   UNL d   1      58.011  -9.816  30.533  0.00  0.00     0.002 A 
ATOM     16  C   UNL d   1      58.716  -9.817  30.105  0.00  0.00     0.000 A 
ATOM     17  C   UNL d   1      59.468  -9.817  30.491  0.00  0.00     0.002 A 
ATOM     18  C   UNL d   1      59.460  -9.816  31.331  0.00  0.00     0.025 A 
ENDBRANCH  11  12
ENDBRANCH  10  11
ENDBRANCH   2  10
TORSDOF 3
ENDMDL
