MODEL 1
REMARK VINA RESULT:      -8.3      0.000      0.000
REMARK  3 active torsions:
REMARK  status: ('A' for Active; 'I' for Inactive)
REMARK    1  A    between atoms: N_2  and  S_1 
REMARK    2  A    between atoms: C_4  and  S_1 
REMARK       I    between atoms: C_8  and  N_10 
REMARK    3  A    between atoms: N_10  and  C_16 
ROOT
ATOM      1  S   UNL d   1     -48.033  13.089  22.872  0.00  0.00     0.271 S 
ATOM      2  O   UNL d   1     -47.634  13.593  22.358  0.00  0.00    -0.200 OA
ATOM      3  O   UNL d   1     -48.429  12.581  23.388  0.00  0.00    -0.200 OA
ENDROOT
BRANCH   1   4
ATOM      4  N   UNL d   1     -48.738  13.485  22.714  0.00  0.00    -0.229 N 
ATOM      5  C   UNL d   1     -48.956  14.128  23.187  0.00  0.00     0.092 A 
ATOM      6  C   UNL d   1     -49.658  14.525  23.032  0.00  0.00     0.018 A 
ATOM      7  C   UNL d   1     -49.874  15.165  23.504  0.00  0.00     0.002 A 
ATOM      8  C   UNL d   1     -50.144  14.287  22.409  0.00  0.00     0.003 A 
ATOM      9  C   UNL d   1     -50.576  15.562  23.349  0.00  0.00     0.000 A 
ATOM     10  C   UNL d   1     -51.064  15.327  22.728  0.00  0.00     0.000 A 
ATOM     11  C   UNL d   1     -50.843  14.685  22.258  0.00  0.00     0.000 A 
ATOM     12  C   UNL d   1     -49.920  13.646  21.942  0.00  0.00     0.020 A 
ATOM     13  C   UNL d   1     -49.213  13.243  22.096  0.00  0.00     0.092 A 
ENDBRANCH   1   4
BRANCH   1  14
ATOM     14  C   UNL d   1     -47.322  12.695  23.026  0.00  0.00     0.104 A 
ATOM     15  C   UNL d   1     -46.628  12.948  22.653  0.00  0.00     0.014 A 
ATOM     16  C   UNL d   1     -45.920  12.552  22.810  0.00  0.00     0.020 A 
ATOM     17  C   UNL d   1     -45.906  11.913  23.332  0.00  0.00     0.085 A 
ATOM     18  C   UNL d   1     -46.609  11.671  23.698  0.00  0.00     0.020 A 
ATOM     19  C   UNL d   1     -47.312  12.063  23.543  0.00  0.00     0.014 A 
BRANCH  17  20
ATOM     20  N   UNL d   1     -45.199  11.527  23.482  0.00  0.00    -0.208 NA
ATOM     21  C   UNL d   1     -45.160  10.707  23.467  0.00  0.00     0.279 C 
ATOM     22  O   UNL d   1     -45.836  10.264  23.300  0.00  0.00    -0.265 OA
ATOM     23  C   UNL d   1     -44.448  10.317  23.617  0.00  0.00     0.068 C 
ENDBRANCH  17  20
ENDBRANCH   1  14
TORSDOF 3
ENDMDL
MODEL 2
REMARK VINA RESULT:      -7.8      1.726      2.203
REMARK  3 active torsions:
REMARK  status: ('A' for Active; 'I' for Inactive)
REMARK    1  A    between atoms: N_2  and  S_1 
REMARK    2  A    between atoms: C_4  and  S_1 
REMARK       I    between atoms: C_8  and  N_10 
REMARK    3  A    between atoms: N_10  and  C_16 
ROOT
ATOM      1  S   UNL d   1     -47.444  13.184  22.770  0.00  0.00     0.271 S 
ATOM      2  O   UNL d   1     -47.286  13.302  23.569  0.00  0.00    -0.200 OA
ATOM      3  O   UNL d   1     -47.599  13.065  21.969  0.00  0.00    -0.200 OA
ENDROOT
BRANCH   1   4
ATOM      4  N   UNL d   1     -48.252  13.189  22.930  0.00  0.00    -0.229 N 
ATOM      5  C   UNL d   1     -48.625  12.485  23.153  0.00  0.00     0.092 A 
ATOM      6  C   UNL d   1     -49.431  12.485  23.313  0.00  0.00     0.018 A 
ATOM      7  C   UNL d   1     -49.800  11.783  23.535  0.00  0.00     0.002 A 
ATOM      8  C   UNL d   1     -49.867  13.183  23.252  0.00  0.00     0.003 A 
ATOM      9  C   UNL d   1     -50.606  11.785  23.695  0.00  0.00     0.000 A 
ATOM     10  C   UNL d   1     -51.046  12.479  23.636  0.00  0.00     0.000 A 
ATOM     11  C   UNL d   1     -50.670  13.180  23.412  0.00  0.00     0.000 A 
ATOM     12  C   UNL d   1     -49.489  13.880  23.030  0.00  0.00     0.020 A 
ATOM     13  C   UNL d   1     -48.677  13.882  22.868  0.00  0.00     0.092 A 
ENDBRANCH   1   4
BRANCH   1  14
ATOM     14  C   UNL d   1     -46.631  13.180  22.617  0.00  0.00     0.104 A 
ATOM     15  C   UNL d   1     -46.264  13.872  22.350  0.00  0.00     0.014 A 
ATOM     16  C   UNL d   1     -45.452  13.863  22.198  0.00  0.00     0.020 A 
ATOM     17  C   UNL d   1     -45.014  13.174  22.312  0.00  0.00     0.085 A 
ATOM     18  C   UNL d   1     -45.394  12.489  22.580  0.00  0.00     0.020 A 
ATOM     19  C   UNL d   1     -46.200  12.496  22.731  0.00  0.00     0.014 A 
BRANCH  17  20
ATOM     20  N   UNL d   1     -44.208  13.175  22.159  0.00  0.00    -0.208 NA
ATOM     21  C   UNL d   1     -43.918  12.886  21.448  0.00  0.00     0.279 C 
ATOM     22  O   UNL d   1     -44.437  12.591  20.879  0.00  0.00    -0.265 OA
ATOM     23  C   UNL d   1     -43.107  12.887  21.294  0.00  0.00     0.068 C 
ENDBRANCH  17  20
ENDBRANCH   1  14
TORSDOF 3
ENDMDL
MODEL 3
REMARK VINA RESULT:      -6.8      1.166      4.982
REMARK  3 active torsions:
REMARK  status: ('A' for Active; 'I' for Inactive)
REMARK    1  A    between atoms: N_2  and  S_1 
REMARK    2  A    between atoms: C_4  and  S_1 
REMARK       I    between atoms: C_8  and  N_10 
REMARK    3  A    between atoms: N_10  and  C_16 
ROOT
ATOM      1  S   UNL d   1     -47.363  13.094  22.989  0.00  0.00     0.271 S 
ATOM      2  O   UNL d   1     -47.646  12.622  22.377  0.00  0.00    -0.200 OA
ATOM      3  O   UNL d   1     -47.082  13.569  23.602  0.00  0.00    -0.200 OA
ENDROOT
BRANCH   1   4
ATOM      4  N   UNL d   1     -46.646  12.688  22.970  0.00  0.00    -0.229 N 
ATOM      5  C   UNL d   1     -46.588  11.952  23.343  0.00  0.00     0.092 A 
ATOM      6  C   UNL d   1     -45.875  11.544  23.326  0.00  0.00     0.018 A 
ATOM      7  C   UNL d   1     -45.819  10.811  23.698  0.00  0.00     0.002 A 
ATOM      8  C   UNL d   1     -45.220  11.865  22.940  0.00  0.00     0.003 A 
ATOM      9  C   UNL d   1     -45.106  10.404  23.681  0.00  0.00     0.000 A 
ATOM     10  C   UNL d   1     -44.449  10.721  23.297  0.00  0.00     0.000 A 
ATOM     11  C   UNL d   1     -44.511  11.456  22.925  0.00  0.00     0.000 A 
ATOM     12  C   UNL d   1     -45.285  12.598  22.571  0.00  0.00     0.020 A 
ATOM     13  C   UNL d   1     -46.003  13.012  22.586  0.00  0.00     0.092 A 
ENDBRANCH   1   4
BRANCH   1  14
ATOM     14  C   UNL d   1     -48.085  13.497  23.002  0.00  0.00     0.104 A 
ATOM     15  C   UNL d   1     -48.122  14.275  22.722  0.00  0.00     0.014 A 
ATOM     16  C   UNL d   1     -48.845  14.674  22.738  0.00  0.00     0.020 A 
ATOM     17  C   UNL d   1     -49.521  14.301  23.029  0.00  0.00     0.085 A 
ATOM     18  C   UNL d   1     -49.469  13.522  23.305  0.00  0.00     0.020 A 
ATOM     19  C   UNL d   1     -48.752  13.125  23.291  0.00  0.00     0.014 A 
BRANCH  17  20
ATOM     20  N   UNL d   1     -50.235  14.704  23.040  0.00  0.00    -0.208 NA
ATOM     21  C   UNL d   1     -50.285  15.453  23.372  0.00  0.00     0.279 C 
ATOM     22  O   UNL d   1     -49.615  15.807  23.698  0.00  0.00    -0.265 OA
ATOM     23  C   UNL d   1     -51.004  15.860  23.383  0.00  0.00     0.068 C 
ENDBRANCH  17  20
ENDBRANCH   1  14
TORSDOF 3
ENDMDL
MODEL 4
REMARK VINA RESULT:      -6.5      8.761      9.884
REMARK  3 active torsions:
REMARK  status: ('A' for Active; 'I' for Inactive)
REMARK    1  A    between atoms: N_2  and  S_1 
REMARK    2  A    between atoms: C_4  and  S_1 
REMARK       I    between atoms: C_8  and  N_10 
REMARK    3  A    between atoms: N_10  and  C_16 
ROOT
ATOM      1  S   UNL d   1     -39.816  14.804  20.473  0.00  0.00     0.271 S 
ATOM      2  O   UNL d   1     -40.543  14.557  20.768  0.00  0.00    -0.200 OA
ATOM      3  O   UNL d   1     -39.087  15.052  20.174  0.00  0.00    -0.200 OA
ENDROOT
BRANCH   1   4
ATOM      4  N   UNL d   1     -39.481  14.710  21.220  0.00  0.00    -0.229 N 
ATOM      5  C   UNL d   1     -39.128  13.989  21.418  0.00  0.00     0.092 A 
ATOM      6  C   UNL d   1     -38.793  13.890  22.162  0.00  0.00     0.018 A 
ATOM      7  C   UNL d   1     -38.442  13.171  22.356  0.00  0.00     0.002 A 
ATOM      8  C   UNL d   1     -38.809  14.506  22.710  0.00  0.00     0.003 A 
ATOM      9  C   UNL d   1     -38.108  13.074  23.100  0.00  0.00     0.000 A 
ATOM     10  C   UNL d   1     -38.121  13.687  23.652  0.00  0.00     0.000 A 
ATOM     11  C   UNL d   1     -38.476  14.406  23.451  0.00  0.00     0.000 A 
ATOM     12  C   UNL d   1     -39.163  15.222  22.507  0.00  0.00     0.020 A 
ATOM     13  C   UNL d   1     -39.501  15.324  21.758  0.00  0.00     0.092 A 
ENDBRANCH   1   4
BRANCH   1  14
ATOM     14  C   UNL d   1     -40.158  14.897  19.726  0.00  0.00     0.104 A 
ATOM     15  C   UNL d   1     -40.105  14.281  19.175  0.00  0.00     0.014 A 
ATOM     16  C   UNL d   1     -40.448  14.379  18.430  0.00  0.00     0.020 A 
ATOM     17  C   UNL d   1     -40.838  15.080  18.238  0.00  0.00     0.085 A 
ATOM     18  C   UNL d   1     -40.882  15.688  18.799  0.00  0.00     0.020 A 
ATOM     19  C   UNL d   1     -40.542  15.593  19.539  0.00  0.00     0.014 A 
BRANCH  17  20
ATOM     20  N   UNL d   1     -41.175  15.167  17.496  0.00  0.00    -0.208 NA
ATOM     21  C   UNL d   1     -40.782  15.578  16.904  0.00  0.00     0.279 C 
ATOM     22  O   UNL d   1     -40.040  15.908  17.053  0.00  0.00    -0.265 OA
ATOM     23  C   UNL d   1     -41.122  15.666  16.157  0.00  0.00     0.068 C 
ENDBRANCH  17  20
ENDBRANCH   1  14
TORSDOF 3
ENDMDL
MODEL 5
REMARK VINA RESULT:      -6.2      8.824      9.493
REMARK  3 active torsions:
REMARK  status: ('A' for Active; 'I' for Inactive)
REMARK    1  A    between atoms: N_2  and  S_1 
REMARK    2  A    between atoms: C_4  and  S_1 
REMARK       I    between atoms: C_8  and  N_10 
REMARK    3  A    between atoms: N_10  and  C_16 
ROOT
ATOM      1  S   UNL d   1     -39.547  14.807  19.553  0.00  0.00     0.271 S 
ATOM      2  O   UNL d   1     -39.874  14.054  19.480  0.00  0.00    -0.200 OA
ATOM      3  O   UNL d   1     -39.219  15.560  19.629  0.00  0.00    -0.200 OA
ENDROOT
BRANCH   1   4
ATOM      4  N   UNL d   1     -39.731  14.962  18.765  0.00  0.00    -0.229 N 
ATOM      5  C   UNL d   1     -40.469  15.286  18.578  0.00  0.00     0.092 A 
ATOM      6  C   UNL d   1     -40.656  15.443  17.793  0.00  0.00     0.018 A 
ATOM      7  C   UNL d   1     -41.391  15.766  17.609  0.00  0.00     0.002 A 
ATOM      8  C   UNL d   1     -40.113  15.278  17.194  0.00  0.00     0.003 A 
ATOM      9  C   UNL d   1     -41.577  15.922  16.825  0.00  0.00     0.000 A 
ATOM     10  C   UNL d   1     -41.038  15.759  16.223  0.00  0.00     0.000 A 
ATOM     11  C   UNL d   1     -40.303  15.435  16.414  0.00  0.00     0.000 A 
ATOM     12  C   UNL d   1     -39.381  14.955  17.388  0.00  0.00     0.020 A 
ATOM     13  C   UNL d   1     -39.189  14.796  18.178  0.00  0.00     0.092 A 
ENDBRANCH   1   4
BRANCH   1  14
ATOM     14  C   UNL d   1     -39.365  14.644  20.343  0.00  0.00     0.104 A 
ATOM     15  C   UNL d   1     -39.940  14.304  20.832  0.00  0.00     0.014 A 
ATOM     16  C   UNL d   1     -39.754  14.143  21.620  0.00  0.00     0.020 A 
ATOM     17  C   UNL d   1     -39.004  14.320  21.916  0.00  0.00     0.085 A 
ATOM     18  C   UNL d   1     -38.439  14.660  21.416  0.00  0.00     0.020 A 
ATOM     19  C   UNL d   1     -38.622  14.820  20.633  0.00  0.00     0.014 A 
BRANCH  17  20
ATOM     20  N   UNL d   1     -38.829  14.156  22.700  0.00  0.00    -0.208 NA
ATOM     21  C   UNL d   1     -38.458  13.454  22.907  0.00  0.00     0.279 C 
ATOM     22  O   UNL d   1     -38.259  12.904  22.325  0.00  0.00    -0.265 OA
ATOM     23  C   UNL d   1     -38.281  13.290  23.697  0.00  0.00     0.068 C 
ENDBRANCH  17  20
ENDBRANCH   1  14
TORSDOF 3
ENDMDL
MODEL 6
REMARK VINA RESULT:      -6.0      9.052     10.720
REMARK  3 active torsions:
REMARK  status: ('A' for Active; 'I' for Inactive)
REMARK    1  A    between atoms: N_2  and  S_1 
REMARK    2  A    between atoms: C_4  and  S_1 
REMARK       I    between atoms: C_8  and  N_10 
REMARK    3  A    between atoms: N_10  and  C_16 
ROOT
ATOM      1  S   UNL d   1     -38.995  14.398  19.007  0.00  0.00     0.271 S 
ATOM      2  O   UNL d   1     -39.299  13.641  18.895  0.00  0.00    -0.200 OA
ATOM      3  O   UNL d   1     -38.689  15.157  19.116  0.00  0.00    -0.200 OA
ENDROOT
BRANCH   1   4
ATOM      4  N   UNL d   1     -39.144  14.338  19.815  0.00  0.00    -0.229 N 
ATOM      5  C   UNL d   1     -38.631  13.896  20.290  0.00  0.00     0.092 A 
ATOM      6  C   UNL d   1     -38.776  13.834  21.096  0.00  0.00     0.018 A 
ATOM      7  C   UNL d   1     -38.264  13.394  21.568  0.00  0.00     0.002 A 
ATOM      8  C   UNL d   1     -39.430  14.208  21.432  0.00  0.00     0.003 A 
ATOM      9  C   UNL d   1     -38.411  13.332  22.374  0.00  0.00     0.000 A 
ATOM     10  C   UNL d   1     -39.063  13.704  22.713  0.00  0.00     0.000 A 
ATOM     11  C   UNL d   1     -39.573  14.144  22.236  0.00  0.00     0.000 A 
ATOM     12  C   UNL d   1     -39.938  14.647  20.953  0.00  0.00     0.020 A 
ATOM     13  C   UNL d   1     -39.793  14.711  20.140  0.00  0.00     0.092 A 
ENDBRANCH   1   4
BRANCH   1  14
ATOM     14  C   UNL d   1     -38.847  14.451  18.195  0.00  0.00     0.104 A 
ATOM     15  C   UNL d   1     -39.466  14.329  17.660  0.00  0.00     0.014 A 
ATOM     16  C   UNL d   1     -39.314  14.383  16.850  0.00  0.00     0.020 A 
ATOM     17  C   UNL d   1     -38.555  14.558  16.579  0.00  0.00     0.085 A 
ATOM     18  C   UNL d   1     -37.945  14.678  17.126  0.00  0.00     0.020 A 
ATOM     19  C   UNL d   1     -38.094  14.625  17.930  0.00  0.00     0.014 A 
BRANCH  17  20
ATOM     20  N   UNL d   1     -38.413  14.610  15.773  0.00  0.00    -0.208 NA
ATOM     21  C   UNL d   1     -38.108  13.969  15.360  0.00  0.00     0.279 C 
ATOM     22  O   UNL d   1     -37.941  13.265  15.756  0.00  0.00    -0.265 OA
ATOM     23  C   UNL d   1     -37.966  14.022  14.549  0.00  0.00     0.068 C 
ENDBRANCH  17  20
ENDBRANCH   1  14
TORSDOF 3
ENDMDL
MODEL 7
REMARK VINA RESULT:      -5.7      9.293     10.729
REMARK  3 active torsions:
REMARK  status: ('A' for Active; 'I' for Inactive)
REMARK    1  A    between atoms: N_2  and  S_1 
REMARK    2  A    between atoms: C_4  and  S_1 
REMARK       I    between atoms: C_8  and  N_10 
REMARK    3  A    between atoms: N_10  and  C_16 
ROOT
ATOM      1  S   UNL d   1     -38.970  15.027  19.059  0.00  0.00     0.271 S 
ATOM      2  O   UNL d   1     -38.159  15.162  19.095  0.00  0.00    -0.200 OA
ATOM      3  O   UNL d   1     -39.784  14.893  19.027  0.00  0.00    -0.200 OA
ENDROOT
BRANCH   1   4
ATOM      4  N   UNL d   1     -38.910  14.877  18.251  0.00  0.00    -0.229 N 
ATOM      5  C   UNL d   1     -38.486  14.216  17.993  0.00  0.00     0.092 A 
ATOM      6  C   UNL d   1     -38.424  14.063  17.188  0.00  0.00     0.018 A 
ATOM      7  C   UNL d   1     -38.002  13.404  16.932  0.00  0.00     0.002 A 
ATOM      8  C   UNL d   1     -38.780  14.566  16.639  0.00  0.00     0.003 A 
ATOM      9  C   UNL d   1     -37.940  13.252  16.127  0.00  0.00     0.000 A 
ATOM     10  C   UNL d   1     -38.294  13.751  15.576  0.00  0.00     0.000 A 
ATOM     11  C   UNL d   1     -38.716  14.411  15.838  0.00  0.00     0.000 A 
ATOM     12  C   UNL d   1     -39.200  15.223  16.904  0.00  0.00     0.020 A 
ATOM     13  C   UNL d   1     -39.265  15.379  17.715  0.00  0.00     0.092 A 
ENDBRANCH   1   4
BRANCH   1  14
ATOM     14  C   UNL d   1     -39.024  15.178  19.871  0.00  0.00     0.104 A 
ATOM     15  C   UNL d   1     -38.558  15.775  20.205  0.00  0.00     0.014 A 
ATOM     16  C   UNL d   1     -38.615  15.922  21.016  0.00  0.00     0.020 A 
ATOM     17  C   UNL d   1     -39.130  15.480  21.485  0.00  0.00     0.085 A 
ATOM     18  C   UNL d   1     -39.590  14.886  21.137  0.00  0.00     0.020 A 
ATOM     19  C   UNL d   1     -39.535  14.739  20.333  0.00  0.00     0.014 A 
BRANCH  17  20
ATOM     20  N   UNL d   1     -39.180  15.634  22.289  0.00  0.00    -0.208 NA
ATOM     21  C   UNL d   1     -38.703  15.229  22.822  0.00  0.00     0.279 C 
ATOM     22  O   UNL d   1     -38.169  14.663  22.550  0.00  0.00    -0.265 OA
ATOM     23  C   UNL d   1     -38.754  15.384  23.631  0.00  0.00     0.068 C 
ENDBRANCH  17  20
ENDBRANCH   1  14
TORSDOF 3
ENDMDL
