MODEL 1
REMARK VINA RESULT:      -6.5      0.000      0.000
REMARK  5 active torsions:
REMARK  status: ('A' for Active; 'I' for Inactive)
REMARK    1  A    between atoms: C_3  and  C_1 
REMARK       I    between atoms: N_4  and  C_1 
REMARK    2  A    between atoms: C_9  and  N_4 
REMARK    3  A    between atoms: C_5  and  O_6 
REMARK    4  A    between atoms: O_6  and  C_10 
REMARK    5  A    between atoms: C_10  and  C_9 
ROOT
ATOM      1  C   UNL d   1     -46.627  13.377  22.794  0.00  0.00     0.279 C 
ATOM      2  O   UNL d   1     -46.041  13.819  22.416  0.00  0.00    -0.265 OA
ATOM      3  N   UNL d   1     -47.378  13.699  22.905  0.00  0.00    -0.204 NA
ENDROOT
BRANCH   3   4
ATOM      4  C   UNL d   1     -47.545  14.463  22.639  0.00  0.00     0.129 C 
BRANCH   4   5
ATOM      5  C   UNL d   1     -48.222  14.854  22.902  0.00  0.00     0.143 C 
BRANCH   5   6
ATOM      6  O   UNL d   1     -48.919  14.816  22.462  0.00  0.00    -0.303 OA
BRANCH   6   7
ATOM      7  C   UNL d   1     -49.639  15.096  22.782  0.00  0.00     0.100 A 
ATOM      8  C   UNL d   1     -50.354  14.812  22.484  0.00  0.00     0.025 A 
ATOM      9  C   UNL d   1     -51.064  15.079  22.789  0.00  0.00     0.002 A 
ATOM     10  C   UNL d   1     -51.061  15.633  23.397  0.00  0.00     0.000 A 
ATOM     11  C   UNL d   1     -50.346  15.917  23.695  0.00  0.00     0.002 A 
ATOM     12  C   UNL d   1     -49.635  15.647  23.386  0.00  0.00     0.025 A 
ENDBRANCH   6   7
ENDBRANCH   5   6
ENDBRANCH   4   5
ENDBRANCH   3   4
BRANCH   1  13
ATOM     13  C   UNL d   1     -46.463  12.617  23.059  0.00  0.00     0.058 A 
ATOM     14  C   UNL d   1     -47.048  12.183  23.431  0.00  0.00     0.005 A 
ATOM     15  C   UNL d   1     -46.886  11.420  23.698  0.00  0.00     0.000 A 
ATOM     16  C   UNL d   1     -46.134  11.097  23.590  0.00  0.00     0.000 A 
ATOM     17  C   UNL d   1     -45.545  11.538  23.214  0.00  0.00     0.000 A 
ATOM     18  C   UNL d   1     -45.712  12.294  22.951  0.00  0.00     0.005 A 
ENDBRANCH   1  13
TORSDOF 5
ENDMDL
MODEL 2
REMARK VINA RESULT:      -6.2      8.771      9.739
REMARK  5 active torsions:
REMARK  status: ('A' for Active; 'I' for Inactive)
REMARK    1  A    between atoms: C_3  and  C_1 
REMARK       I    between atoms: N_4  and  C_1 
REMARK    2  A    between atoms: C_9  and  N_4 
REMARK    3  A    between atoms: C_5  and  O_6 
REMARK    4  A    between atoms: O_6  and  C_10 
REMARK    5  A    between atoms: C_10  and  C_9 
ROOT
ATOM      1  C   UNL d   1     -40.567  14.454  18.461  0.00  0.00     0.279 C 
ATOM      2  O   UNL d   1     -40.939  13.718  18.448  0.00  0.00    -0.265 OA
ATOM      3  N   UNL d   1     -40.224  14.730  19.159  0.00  0.00    -0.204 NA
ENDROOT
BRANCH   3   4
ATOM      4  C   UNL d   1     -40.254  14.271  19.844  0.00  0.00     0.129 C 
BRANCH   4   5
ATOM      5  C   UNL d   1     -39.788  14.470  20.496  0.00  0.00     0.143 C 
BRANCH   5   6
ATOM      6  O   UNL d   1     -39.971  14.169  21.242  0.00  0.00    -0.303 OA
BRANCH   6   7
ATOM      7  C   UNL d   1     -39.438  14.263  21.880  0.00  0.00     0.100 A 
ATOM      8  C   UNL d   1     -39.065  13.599  22.199  0.00  0.00     0.025 A 
ATOM      9  C   UNL d   1     -38.543  13.679  22.823  0.00  0.00     0.002 A 
ATOM     10  C   UNL d   1     -38.391  14.426  23.131  0.00  0.00     0.000 A 
ATOM     11  C   UNL d   1     -38.764  15.090  22.813  0.00  0.00     0.002 A 
ATOM     12  C   UNL d   1     -39.288  15.006  22.186  0.00  0.00     0.025 A 
ENDBRANCH   6   7
ENDBRANCH   5   6
ENDBRANCH   4   5
ENDBRANCH   3   4
BRANCH   1  13
ATOM     13  C   UNL d   1     -40.536  14.913  17.779  0.00  0.00     0.058 A 
ATOM     14  C   UNL d   1     -39.914  14.820  17.257  0.00  0.00     0.005 A 
ATOM     15  C   UNL d   1     -39.882  15.279  16.572  0.00  0.00     0.000 A 
ATOM     16  C   UNL d   1     -40.476  15.830  16.418  0.00  0.00     0.000 A 
ATOM     17  C   UNL d   1     -41.103  15.922  16.948  0.00  0.00     0.000 A 
ATOM     18  C   UNL d   1     -41.130  15.464  17.625  0.00  0.00     0.005 A 
ENDBRANCH   1  13
TORSDOF 5
ENDMDL
MODEL 3
REMARK VINA RESULT:      -6.2      0.615      4.716
REMARK  5 active torsions:
REMARK  status: ('A' for Active; 'I' for Inactive)
REMARK    1  A    between atoms: C_3  and  C_1 
REMARK       I    between atoms: N_4  and  C_1 
REMARK    2  A    between atoms: C_9  and  N_4 
REMARK    3  A    between atoms: C_5  and  O_6 
REMARK    4  A    between atoms: O_6  and  C_10 
REMARK    5  A    between atoms: C_10  and  C_9 
ROOT
ATOM      1  C   UNL d   1     -48.629  14.733  22.645  0.00  0.00     0.279 C 
ATOM      2  O   UNL d   1     -48.251  15.137  22.033  0.00  0.00    -0.265 OA
ATOM      3  N   UNL d   1     -48.221  14.156  23.071  0.00  0.00    -0.204 NA
ENDROOT
BRANCH   3   4
ATOM      4  C   UNL d   1     -47.436  13.982  22.885  0.00  0.00     0.129 C 
BRANCH   4   5
ATOM      5  C   UNL d   1     -47.051  13.354  23.258  0.00  0.00     0.143 C 
BRANCH   5   6
ATOM      6  O   UNL d   1     -46.606  12.820  22.815  0.00  0.00    -0.303 OA
BRANCH   6   7
ATOM      7  C   UNL d   1     -46.437  12.057  23.114  0.00  0.00     0.100 A 
ATOM      8  C   UNL d   1     -45.652  11.809  23.176  0.00  0.00     0.025 A 
ATOM      9  C   UNL d   1     -45.476  11.065  23.466  0.00  0.00     0.002 A 
ATOM     10  C   UNL d   1     -46.087  10.565  23.697  0.00  0.00     0.000 A 
ATOM     11  C   UNL d   1     -46.871  10.813  23.635  0.00  0.00     0.002 A 
ATOM     12  C   UNL d   1     -47.045  11.561  23.343  0.00  0.00     0.025 A 
ENDBRANCH   6   7
ENDBRANCH   5   6
ENDBRANCH   4   5
ENDBRANCH   3   4
BRANCH   1  13
ATOM     13  C   UNL d   1     -49.410  14.905  22.832  0.00  0.00     0.058 A 
ATOM     14  C   UNL d   1     -49.997  14.363  22.655  0.00  0.00     0.005 A 
ATOM     15  C   UNL d   1     -50.782  14.534  22.842  0.00  0.00     0.000 A 
ATOM     16  C   UNL d   1     -50.973  15.250  23.205  0.00  0.00     0.000 A 
ATOM     17  C   UNL d   1     -50.378  15.795  23.382  0.00  0.00     0.000 A 
ATOM     18  C   UNL d   1     -49.601  15.621  23.195  0.00  0.00     0.005 A 
ENDBRANCH   1  13
TORSDOF 5
ENDMDL
MODEL 4
REMARK VINA RESULT:      -6.2      2.254      4.795
REMARK  5 active torsions:
REMARK  status: ('A' for Active; 'I' for Inactive)
REMARK    1  A    between atoms: C_3  and  C_1 
REMARK       I    between atoms: N_4  and  C_1 
REMARK    2  A    between atoms: C_9  and  N_4 
REMARK    3  A    between atoms: C_5  and  O_6 
REMARK    4  A    between atoms: O_6  and  C_10 
REMARK    5  A    between atoms: C_10  and  C_9 
ROOT
ATOM      1  C   UNL d   1     -48.747  11.839  23.269  0.00  0.00     0.279 C 
ATOM      2  O   UNL d   1     -48.614  11.053  23.484  0.00  0.00    -0.265 OA
ATOM      3  N   UNL d   1     -48.115  12.368  23.229  0.00  0.00    -0.204 NA
ENDROOT
BRANCH   3   4
ATOM      4  C   UNL d   1     -47.350  12.112  23.404  0.00  0.00     0.129 C 
BRANCH   4   5
ATOM      5  C   UNL d   1     -46.700  12.563  23.169  0.00  0.00     0.143 C 
BRANCH   5   6
ATOM      6  O   UNL d   1     -45.934  12.282  23.297  0.00  0.00    -0.303 OA
BRANCH   6   7
ATOM      7  C   UNL d   1     -45.315  12.480  22.770  0.00  0.00     0.100 A 
ATOM      8  C   UNL d   1     -45.368  13.171  22.323  0.00  0.00     0.025 A 
ATOM      9  C   UNL d   1     -44.769  13.374  21.804  0.00  0.00     0.002 A 
ATOM     10  C   UNL d   1     -44.112  12.883  21.732  0.00  0.00     0.000 A 
ATOM     11  C   UNL d   1     -44.060  12.192  22.179  0.00  0.00     0.002 A 
ATOM     12  C   UNL d   1     -44.664  11.991  22.699  0.00  0.00     0.025 A 
ENDBRANCH   6   7
ENDBRANCH   5   6
ENDBRANCH   4   5
ENDBRANCH   3   4
BRANCH   1  13
ATOM     13  C   UNL d   1     -49.508  12.095  23.095  0.00  0.00     0.058 A 
ATOM     14  C   UNL d   1     -49.710  12.267  22.322  0.00  0.00     0.005 A 
ATOM     15  C   UNL d   1     -50.474  12.525  22.145  0.00  0.00     0.000 A 
ATOM     16  C   UNL d   1     -51.030  12.607  22.748  0.00  0.00     0.000 A 
ATOM     17  C   UNL d   1     -50.824  12.432  23.528  0.00  0.00     0.000 A 
ATOM     18  C   UNL d   1     -50.065  12.177  23.698  0.00  0.00     0.005 A 
ENDBRANCH   1  13
TORSDOF 5
ENDMDL
MODEL 5
REMARK VINA RESULT:      -6.1      8.924     10.026
REMARK  5 active torsions:
REMARK  status: ('A' for Active; 'I' for Inactive)
REMARK    1  A    between atoms: C_3  and  C_1 
REMARK       I    between atoms: N_4  and  C_1 
REMARK    2  A    between atoms: C_9  and  N_4 
REMARK    3  A    between atoms: C_5  and  O_6 
REMARK    4  A    between atoms: O_6  and  C_10 
REMARK    5  A    between atoms: C_10  and  C_9 
ROOT
ATOM      1  C   UNL d   1     -39.784  14.010  18.083  0.00  0.00     0.279 C 
ATOM      2  O   UNL d   1     -40.557  13.723  18.062  0.00  0.00    -0.265 OA
ATOM      3  N   UNL d   1     -39.495  14.365  18.770  0.00  0.00    -0.204 NA
ENDROOT
BRANCH   3   4
ATOM      4  C   UNL d   1     -39.978  14.433  19.435  0.00  0.00     0.129 C 
BRANCH   4   5
ATOM      5  C   UNL d   1     -39.697  14.809  20.114  0.00  0.00     0.143 C 
BRANCH   5   6
ATOM      6  O   UNL d   1     -39.945  14.557  20.860  0.00  0.00    -0.303 OA
BRANCH   6   7
ATOM      7  C   UNL d   1     -39.585  14.860  21.552  0.00  0.00     0.100 A 
ATOM      8  C   UNL d   1     -39.093  14.373  22.000  0.00  0.00     0.025 A 
ATOM      9  C   UNL d   1     -38.736  14.658  22.678  0.00  0.00     0.002 A 
ATOM     10  C   UNL d   1     -38.872  15.435  22.912  0.00  0.00     0.000 A 
ATOM     11  C   UNL d   1     -39.365  15.922  22.464  0.00  0.00     0.002 A 
ATOM     12  C   UNL d   1     -39.722  15.632  21.783  0.00  0.00     0.025 A 
ENDBRANCH   6   7
ENDBRANCH   5   6
ENDBRANCH   4   5
ENDBRANCH   3   4
BRANCH   1  13
ATOM     13  C   UNL d   1     -39.302  13.943  17.421  0.00  0.00     0.058 A 
ATOM     14  C   UNL d   1     -39.313  14.530  16.852  0.00  0.00     0.005 A 
ATOM     15  C   UNL d   1     -38.829  14.465  16.187  0.00  0.00     0.000 A 
ATOM     16  C   UNL d   1     -38.337  13.808  16.098  0.00  0.00     0.000 A 
ATOM     17  C   UNL d   1     -38.328  13.218  16.675  0.00  0.00     0.000 A 
ATOM     18  C   UNL d   1     -38.810  13.287  17.333  0.00  0.00     0.005 A 
ENDBRANCH   1  13
TORSDOF 5
ENDMDL
MODEL 6
REMARK VINA RESULT:      -5.9      1.495      5.003
REMARK  5 active torsions:
REMARK  status: ('A' for Active; 'I' for Inactive)
REMARK    1  A    between atoms: C_3  and  C_1 
REMARK       I    between atoms: N_4  and  C_1 
REMARK    2  A    between atoms: C_9  and  N_4 
REMARK    3  A    between atoms: C_5  and  O_6 
REMARK    4  A    between atoms: O_6  and  C_10 
REMARK    5  A    between atoms: C_10  and  C_9 
ROOT
ATOM      1  C   UNL d   1     -48.412  13.462  22.691  0.00  0.00     0.279 C 
ATOM      2  O   UNL d   1     -48.085  14.215  22.772  0.00  0.00    -0.265 OA
ATOM      3  N   UNL d   1     -47.941  12.794  22.807  0.00  0.00    -0.204 NA
ENDROOT
BRANCH   3   4
ATOM      4  C   UNL d   1     -47.144  12.879  23.004  0.00  0.00     0.129 C 
BRANCH   4   5
ATOM      5  C   UNL d   1     -46.660  12.213  23.061  0.00  0.00     0.143 C 
BRANCH   5   6
ATOM      6  O   UNL d   1     -45.891  12.285  23.353  0.00  0.00    -0.303 OA
BRANCH   6   7
ATOM      7  C   UNL d   1     -45.368  11.633  23.338  0.00  0.00     0.100 A 
ATOM      8  C   UNL d   1     -45.590  10.925  23.698  0.00  0.00     0.025 A 
ATOM      9  C   UNL d   1     -45.086  10.281  23.689  0.00  0.00     0.002 A 
ATOM     10  C   UNL d   1     -44.355  10.344  23.318  0.00  0.00     0.000 A 
ATOM     11  C   UNL d   1     -44.133  11.052  22.958  0.00  0.00     0.002 A 
ATOM     12  C   UNL d   1     -44.641  11.697  22.969  0.00  0.00     0.025 A 
ENDBRANCH   6   7
ENDBRANCH   5   6
ENDBRANCH   4   5
ENDBRANCH   3   4
BRANCH   1  13
ATOM     13  C   UNL d   1     -49.205  13.376  22.495  0.00  0.00     0.058 A 
ATOM     14  C   UNL d   1     -49.769  13.369  23.087  0.00  0.00     0.005 A 
ATOM     15  C   UNL d   1     -50.567  13.283  22.892  0.00  0.00     0.000 A 
ATOM     16  C   UNL d   1     -50.792  13.204  22.102  0.00  0.00     0.000 A 
ATOM     17  C   UNL d   1     -50.219  13.211  21.507  0.00  0.00     0.000 A 
ATOM     18  C   UNL d   1     -49.430  13.297  21.705  0.00  0.00     0.005 A 
ENDBRANCH   1  13
TORSDOF 5
ENDMDL
MODEL 7
REMARK VINA RESULT:      -5.8      8.595     10.153
REMARK  5 active torsions:
REMARK  status: ('A' for Active; 'I' for Inactive)
REMARK    1  A    between atoms: C_3  and  C_1 
REMARK       I    between atoms: N_4  and  C_1 
REMARK    2  A    between atoms: C_9  and  N_4 
REMARK    3  A    between atoms: C_5  and  O_6 
REMARK    4  A    between atoms: O_6  and  C_10 
REMARK    5  A    between atoms: C_10  and  C_9 
ROOT
ATOM      1  C   UNL d   1     -40.141  14.751  20.710  0.00  0.00     0.279 C 
ATOM      2  O   UNL d   1     -40.964  14.705  20.671  0.00  0.00    -0.265 OA
ATOM      3  N   UNL d   1     -39.687  14.602  20.037  0.00  0.00    -0.204 NA
ENDROOT
BRANCH   3   4
ATOM      4  C   UNL d   1     -40.056  14.408  19.324  0.00  0.00     0.129 C 
BRANCH   4   5
ATOM      5  C   UNL d   1     -39.626  14.421  18.620  0.00  0.00     0.143 C 
BRANCH   5   6
ATOM      6  O   UNL d   1     -39.737  13.827  18.057  0.00  0.00    -0.303 OA
BRANCH   6   7
ATOM      7  C   UNL d   1     -39.230  13.770  17.394  0.00  0.00     0.100 A 
ATOM      8  C   UNL d   1     -38.729  13.119  17.321  0.00  0.00     0.025 A 
ATOM      9  C   UNL d   1     -38.229  13.053  16.676  0.00  0.00     0.002 A 
ATOM     10  C   UNL d   1     -38.230  13.641  16.101  0.00  0.00     0.000 A 
ATOM     11  C   UNL d   1     -38.731  14.292  16.175  0.00  0.00     0.002 A 
ATOM     12  C   UNL d   1     -39.232  14.355  16.823  0.00  0.00     0.025 A 
ENDBRANCH   6   7
ENDBRANCH   5   6
ENDBRANCH   4   5
ENDBRANCH   3   4
BRANCH   1  13
ATOM     13  C   UNL d   1     -39.772  14.944  21.419  0.00  0.00     0.058 A 
ATOM     14  C   UNL d   1     -39.417  14.356  21.863  0.00  0.00     0.005 A 
ATOM     15  C   UNL d   1     -39.047  14.549  22.575  0.00  0.00     0.000 A 
ATOM     16  C   UNL d   1     -39.036  15.331  22.835  0.00  0.00     0.000 A 
ATOM     17  C   UNL d   1     -39.395  15.922  22.384  0.00  0.00     0.000 A 
ATOM     18  C   UNL d   1     -39.761  15.726  21.679  0.00  0.00     0.005 A 
ENDBRANCH   1  13
TORSDOF 5
ENDMDL
MODEL 8
REMARK VINA RESULT:      -5.7      1.565      2.076
REMARK  5 active torsions:
REMARK  status: ('A' for Active; 'I' for Inactive)
REMARK    1  A    between atoms: C_3  and  C_1 
REMARK       I    between atoms: N_4  and  C_1 
REMARK    2  A    between atoms: C_9  and  N_4 
REMARK    3  A    between atoms: C_5  and  O_6 
REMARK    4  A    between atoms: O_6  and  C_10 
REMARK    5  A    between atoms: C_10  and  C_9 
ROOT
ATOM      1  C   UNL d   1     -46.125  12.931  22.923  0.00  0.00     0.279 C 
ATOM      2  O   UNL d   1     -46.224  12.665  23.697  0.00  0.00    -0.265 OA
ATOM      3  N   UNL d   1     -46.748  13.307  22.533  0.00  0.00    -0.204 NA
ENDROOT
BRANCH   3   4
ATOM      4  C   UNL d   1     -47.470  13.416  22.918  0.00  0.00     0.129 C 
BRANCH   4   5
ATOM      5  C   UNL d   1     -48.166  13.488  22.479  0.00  0.00     0.143 C 
BRANCH   5   6
ATOM      6  O   UNL d   1     -48.859  13.749  22.842  0.00  0.00    -0.303 OA
BRANCH   6   7
ATOM      7  C   UNL d   1     -49.605  13.586  22.500  0.00  0.00     0.100 A 
ATOM      8  C   UNL d   1     -49.860  14.028  21.852  0.00  0.00     0.025 A 
ATOM      9  C   UNL d   1     -50.587  13.878  21.510  0.00  0.00     0.002 A 
ATOM     10  C   UNL d   1     -51.064  13.283  21.817  0.00  0.00     0.000 A 
ATOM     11  C   UNL d   1     -50.810  12.841  22.465  0.00  0.00     0.002 A 
ATOM     12  C   UNL d   1     -50.078  12.994  22.807  0.00  0.00     0.025 A 
ENDBRANCH   6   7
ENDBRANCH   5   6
ENDBRANCH   4   5
ENDBRANCH   3   4
BRANCH   1  13
ATOM     13  C   UNL d   1     -45.407  12.823  22.539  0.00  0.00     0.058 A 
ATOM     14  C   UNL d   1     -44.979  12.139  22.667  0.00  0.00     0.005 A 
ATOM     15  C   UNL d   1     -44.257  12.028  22.282  0.00  0.00     0.000 A 
ATOM     16  C   UNL d   1     -43.970  12.608  21.770  0.00  0.00     0.000 A 
ATOM     17  C   UNL d   1     -44.405  13.298  21.643  0.00  0.00     0.000 A 
ATOM     18  C   UNL d   1     -45.120  13.403  22.027  0.00  0.00     0.005 A 
ENDBRANCH   1  13
TORSDOF 5
ENDMDL
MODEL 9
REMARK VINA RESULT:      -5.7      8.539      9.284
REMARK  5 active torsions:
REMARK  status: ('A' for Active; 'I' for Inactive)
REMARK    1  A    between atoms: C_3  and  C_1 
REMARK       I    between atoms: N_4  and  C_1 
REMARK    2  A    between atoms: C_9  and  N_4 
REMARK    3  A    between atoms: C_5  and  O_6 
REMARK    4  A    between atoms: O_6  and  C_10 
REMARK    5  A    between atoms: C_10  and  C_9 
ROOT
ATOM      1  C   UNL d   1     -39.984  14.283  21.280  0.00  0.00     0.279 C 
ATOM      2  O   UNL d   1     -40.745  14.012  21.447  0.00  0.00    -0.265 OA
ATOM      3  N   UNL d   1     -39.781  14.493  20.508  0.00  0.00    -0.204 NA
ENDROOT
BRANCH   3   4
ATOM      4  C   UNL d   1     -40.339  14.432  19.903  0.00  0.00     0.129 C 
BRANCH   4   5
ATOM      5  C   UNL d   1     -40.205  14.804  19.179  0.00  0.00     0.143 C 
BRANCH   5   6
ATOM      6  O   UNL d   1     -40.565  14.517  18.494  0.00  0.00    -0.303 OA
BRANCH   6   7
ATOM      7  C   UNL d   1     -40.527  14.952  17.780  0.00  0.00     0.100 A 
ATOM      8  C   UNL d   1     -41.129  15.486  17.597  0.00  0.00     0.025 A 
ATOM      9  C   UNL d   1     -41.102  15.916  16.902  0.00  0.00     0.002 A 
ATOM     10  C   UNL d   1     -40.471  15.813  16.386  0.00  0.00     0.000 A 
ATOM     11  C   UNL d   1     -39.870  15.278  16.568  0.00  0.00     0.002 A 
ATOM     12  C   UNL d   1     -39.899  14.848  17.267  0.00  0.00     0.025 A 
ENDBRANCH   6   7
ENDBRANCH   5   6
ENDBRANCH   4   5
ENDBRANCH   3   4
BRANCH   1  13
ATOM     13  C   UNL d   1     -39.427  14.344  21.882  0.00  0.00     0.058 A 
ATOM     14  C   UNL d   1     -39.251  15.078  22.197  0.00  0.00     0.005 A 
ATOM     15  C   UNL d   1     -38.693  15.141  22.801  0.00  0.00     0.000 A 
ATOM     16  C   UNL d   1     -38.314  14.465  23.084  0.00  0.00     0.000 A 
ATOM     17  C   UNL d   1     -38.494  13.726  22.764  0.00  0.00     0.000 A 
ATOM     18  C   UNL d   1     -39.048  13.668  22.165  0.00  0.00     0.005 A 
ENDBRANCH   1  13
TORSDOF 5
ENDMDL
