MODEL 1
REMARK VINA RESULT:      31.6      0.000      0.000
REMARK  4 active torsions:
REMARK  status: ('A' for Active; 'I' for Inactive)
REMARK    1  A    between atoms: C_6  and  C_4 
REMARK    2  A    between atoms: C_9  and  C_6 
REMARK    3  A    between atoms: O_15  and  C_8 
REMARK    4  A    between atoms: O_16  and  C_12 
ROOT
ATOM      1  C   UNL d   1     -51.252  26.290  33.411  0.00  0.00     0.116 A 
ATOM      2  C   UNL d   1     -52.113  25.155  33.333  0.00  0.00     0.003 A 
ATOM      3  C   UNL d   1     -52.005  25.970  33.385  0.00  0.00     0.026 A 
ATOM      4  C   UNL d   1     -50.585  25.794  33.386  0.00  0.00     0.116 A 
ATOM      5  C   UNL d   1     -50.697  24.972  33.334  0.00  0.00     0.026 A 
ATOM      6  C   UNL d   1     -51.450  24.653  33.308  0.00  0.00     0.002 A 
ENDROOT
BRANCH   2   7
ATOM      7  C   UNL d   1     -52.872  24.834  33.307  0.00  0.00     0.009 C 
BRANCH   7   8
ATOM      8  C   UNL d   1     -53.110  24.298  33.879  0.00  0.00     0.062 A 
ATOM      9  C   UNL d   1     -52.794  23.541  33.997  0.00  0.00     0.145 A 
ATOM     10  N   UNL d   1     -53.194  23.191  34.628  0.00  0.00    -0.191 NA
ATOM     11  S   UNL d   1     -52.185  23.204  33.558  0.00  0.00    -0.057 SA
ATOM     12  C   UNL d   1     -53.760  23.730  34.902  0.00  0.00     0.311 A 
ATOM     13  S   UNL d   1     -53.705  24.407  34.439  0.00  0.00    -0.023 SA
ATOM     14  O   UNL d   1     -54.282  23.602  35.528  0.00  0.00    -0.258 OA
ENDBRANCH   7   8
ENDBRANCH   2   7
BRANCH   1  15
ATOM     15  O   UNL d   1     -51.153  27.109  33.462  0.00  0.00    -0.326 OA
ATOM     16  C   UNL d   1     -51.170  27.481  34.206  0.00  0.00     0.181 C 
ENDBRANCH   1  15
BRANCH   4  17
ATOM     17  O   UNL d   1     -49.830  26.104  33.411  0.00  0.00    -0.326 OA
ATOM     18  C   UNL d   1     -49.201  25.652  33.697  0.00  0.00     0.181 C 
ENDBRANCH   4  17
TORSDOF 4
ENDMDL
MODEL 2
REMARK VINA RESULT:      33.2      1.807      3.656
REMARK  4 active torsions:
REMARK  status: ('A' for Active; 'I' for Inactive)
REMARK    1  A    between atoms: C_6  and  C_4 
REMARK    2  A    between atoms: C_9  and  C_6 
REMARK    3  A    between atoms: O_15  and  C_8 
REMARK    4  A    between atoms: O_16  and  C_12 
ROOT
ATOM      1  C   UNL d   1     -53.324  24.216  33.317  0.00  0.00     0.116 A 
ATOM      2  C   UNL d   1     -51.925  24.499  33.311  0.00  0.00     0.003 A 
ATOM      3  C   UNL d   1     -52.547  23.957  33.312  0.00  0.00     0.026 A 
ATOM      4  C   UNL d   1     -53.495  25.030  33.320  0.00  0.00     0.116 A 
ATOM      5  C   UNL d   1     -52.866  25.573  33.319  0.00  0.00     0.026 A 
ATOM      6  C   UNL d   1     -52.089  25.314  33.314  0.00  0.00     0.002 A 
ENDROOT
BRANCH   2   7
ATOM      7  C   UNL d   1     -51.143  24.238  33.306  0.00  0.00     0.009 C 
BRANCH   7   8
ATOM      8  C   UNL d   1     -50.534  24.765  33.450  0.00  0.00     0.062 A 
ATOM      9  C   UNL d   1     -49.765  24.567  33.689  0.00  0.00     0.145 A 
ATOM     10  N   UNL d   1     -49.333  25.265  33.769  0.00  0.00    -0.191 NA
ATOM     11  S   UNL d   1     -49.488  23.804  33.822  0.00  0.00    -0.057 SA
ATOM     12  C   UNL d   1     -49.833  25.898  33.579  0.00  0.00     0.311 A 
ATOM     13  S   UNL d   1     -50.567  25.587  33.384  0.00  0.00    -0.023 SA
ATOM     14  O   UNL d   1     -49.622  26.696  33.588  0.00  0.00    -0.258 OA
ENDBRANCH   7   8
ENDBRANCH   2   7
BRANCH   1  15
ATOM     15  O   UNL d   1     -53.941  23.666  33.318  0.00  0.00    -0.326 OA
ATOM     16  C   UNL d   1     -54.258  23.404  34.040  0.00  0.00     0.181 C 
ENDBRANCH   1  15
BRANCH   4  17
ATOM     17  O   UNL d   1     -54.267  25.296  33.325  0.00  0.00    -0.326 OA
ATOM     18  C   UNL d   1     -54.526  25.817  33.910  0.00  0.00     0.181 C 
ENDBRANCH   4  17
TORSDOF 4
ENDMDL
