MODEL 1
REMARK VINA RESULT:     124.5      0.000      0.000
REMARK  6 active torsions:
REMARK  status: ('A' for Active; 'I' for Inactive)
REMARK    1  A    between atoms: C_3  and  S_1 
REMARK    2  A    between atoms: N_5  and  S_1 
REMARK    3  A    between atoms: S_2  and  N_6 
REMARK    4  A    between atoms: C_4  and  S_2 
REMARK    5  A    between atoms: O_25  and  C_15 
REMARK    6  A    between atoms: O_26  and  C_16 
ROOT
ATOM      1  N   UNL d   1      60.878  46.604  50.824  0.00  0.00    -0.226 N 
ATOM      2  N   UNL d   1      61.446  45.059  50.846  0.00  0.00    -0.226 N 
ATOM      3  C   UNL d   1      61.346  46.337  50.199  0.00  0.00     0.111 A 
ATOM      4  C   UNL d   1      60.976  45.338  51.468  0.00  0.00     0.111 A 
ATOM      5  C   UNL d   1      61.631  45.557  50.212  0.00  0.00     0.111 A 
ATOM      6  C   UNL d   1      60.693  46.107  51.458  0.00  0.00     0.111 A 
ENDROOT
BRANCH   1   7
ATOM      7  S   UNL d   1      60.592  47.389  50.810  0.00  0.00     0.273 S 
ATOM      8  O   UNL d   1      59.962  47.599  51.304  0.00  0.00    -0.200 OA
ATOM      9  O   UNL d   1      60.930  47.945  50.312  0.00  0.00    -0.200 OA
BRANCH   7  10
ATOM     10  C   UNL d   1      60.310  48.167  50.794  0.00  0.00     0.126 A 
ATOM     11  C   UNL d   1      60.804  48.785  51.006  0.00  0.00     0.106 A 
ATOM     12  C   UNL d   1      60.515  49.560  50.987  0.00  0.00     0.025 A 
ATOM     13  C   UNL d   1      59.736  49.708  50.757  0.00  0.00     0.002 A 
ATOM     14  C   UNL d   1      59.243  49.076  50.544  0.00  0.00     0.001 A 
ATOM     15  C   UNL d   1      59.525  48.307  50.561  0.00  0.00     0.015 A 
ATOM     16  C   UNL d   1      58.458  49.226  50.311  0.00  0.00     0.000 C 
BRANCH  11  17
ATOM     17  O   UNL d   1      61.579  48.640  51.236  0.00  0.00    -0.327 OA
ATOM     18  C   UNL d   1      62.003  49.222  51.640  0.00  0.00     0.181 C 
ENDBRANCH  11  17
ENDBRANCH   7  10
ENDBRANCH   1   7
BRANCH   2  19
ATOM     19  S   UNL d   1      61.732  44.283  50.856  0.00  0.00     0.273 S 
ATOM     20  O   UNL d   1      61.686  43.838  51.551  0.00  0.00    -0.200 OA
ATOM     21  O   UNL d   1      62.062  43.951  50.177  0.00  0.00    -0.200 OA
BRANCH  19  22
ATOM     22  C   UNL d   1      62.009  43.505  50.898  0.00  0.00     0.126 A 
ATOM     23  C   UNL d   1      61.844  43.047  51.561  0.00  0.00     0.106 A 
ATOM     24  C   UNL d   1      62.118  42.277  51.602  0.00  0.00     0.025 A 
ATOM     25  C   UNL d   1      62.558  41.961  50.980  0.00  0.00     0.002 A 
ATOM     26  C   UNL d   1      62.722  42.423  50.316  0.00  0.00     0.001 A 
ATOM     27  C   UNL d   1      62.441  43.200  50.282  0.00  0.00     0.015 A 
ATOM     28  C   UNL d   1      63.158  42.119  49.694  0.00  0.00     0.000 C 
BRANCH  23  29
ATOM     29  O   UNL d   1      61.403  43.363  52.183  0.00  0.00    -0.327 OA
ATOM     30  C   UNL d   1      61.006  42.860  52.702  0.00  0.00     0.181 C 
ENDBRANCH  23  29
ENDBRANCH  19  22
ENDBRANCH   2  19
TORSDOF 6
ENDMDL
MODEL 2
REMARK VINA RESULT:     125.1      0.697      5.537
REMARK  6 active torsions:
REMARK  status: ('A' for Active; 'I' for Inactive)
REMARK    1  A    between atoms: C_3  and  S_1 
REMARK    2  A    between atoms: N_5  and  S_1 
REMARK    3  A    between atoms: S_2  and  N_6 
REMARK    4  A    between atoms: C_4  and  S_2 
REMARK    5  A    between atoms: O_25  and  C_15 
REMARK    6  A    between atoms: O_26  and  C_16 
ROOT
ATOM      1  N   UNL d   1      61.690  44.950  50.703  0.00  0.00    -0.226 N 
ATOM      2  N   UNL d   1      61.266  46.539  50.640  0.00  0.00    -0.226 N 
ATOM      3  C   UNL d   1      62.139  45.470  50.245  0.00  0.00     0.111 A 
ATOM      4  C   UNL d   1      60.824  46.008  51.096  0.00  0.00     0.111 A 
ATOM      5  C   UNL d   1      61.923  46.271  50.215  0.00  0.00     0.111 A 
ATOM      6  C   UNL d   1      61.034  45.217  51.129  0.00  0.00     0.111 A 
ENDROOT
BRANCH   1   7
ATOM      7  S   UNL d   1      61.908  44.144  50.733  0.00  0.00     0.273 S 
ATOM      8  O   UNL d   1      62.503  43.865  50.229  0.00  0.00    -0.200 OA
ATOM      9  O   UNL d   1      61.537  43.633  51.256  0.00  0.00    -0.200 OA
BRANCH   7  10
ATOM     10  C   UNL d   1      62.121  43.345  50.766  0.00  0.00     0.126 A 
ATOM     11  C   UNL d   1      61.927  42.895  51.423  0.00  0.00     0.106 A 
ATOM     12  C   UNL d   1      62.143  42.097  51.448  0.00  0.00     0.025 A 
ATOM     13  C   UNL d   1      62.552  41.758  50.815  0.00  0.00     0.002 A 
ATOM     14  C   UNL d   1      62.745  42.220  50.154  0.00  0.00     0.001 A 
ATOM     15  C   UNL d   1      62.533  43.010  50.125  0.00  0.00     0.015 A 
ATOM     16  C   UNL d   1      63.157  41.876  49.517  0.00  0.00     0.000 C 
BRANCH  11  17
ATOM     17  O   UNL d   1      61.520  43.231  52.052  0.00  0.00    -0.327 OA
ATOM     18  C   UNL d   1      61.658  42.962  52.821  0.00  0.00     0.181 C 
ENDBRANCH  11  17
ENDBRANCH   7  10
ENDBRANCH   1   7
BRANCH   2  19
ATOM     19  S   UNL d   1      61.054  47.337  50.608  0.00  0.00     0.273 S 
ATOM     20  O   UNL d   1      60.546  47.651  51.181  0.00  0.00    -0.200 OA
ATOM     21  O   UNL d   1      61.344  47.823  50.008  0.00  0.00    -0.200 OA
BRANCH  19  22
ATOM     22  C   UNL d   1      60.823  48.131  50.603  0.00  0.00     0.126 A 
ATOM     23  C   UNL d   1      60.821  48.562  51.304  0.00  0.00     0.106 A 
ATOM     24  C   UNL d   1      60.593  49.348  51.299  0.00  0.00     0.025 A 
ATOM     25  C   UNL d   1      60.365  49.707  50.592  0.00  0.00     0.002 A 
ATOM     26  C   UNL d   1      60.368  49.273  49.891  0.00  0.00     0.001 A 
ATOM     27  C   UNL d   1      60.600  48.480  49.904  0.00  0.00     0.015 A 
ATOM     28  C   UNL d   1      60.144  49.621  49.184  0.00  0.00     0.000 C 
BRANCH  23  29
ATOM     29  O   UNL d   1      61.049  48.202  52.011  0.00  0.00    -0.327 OA
ATOM     30  C   UNL d   1      61.241  48.666  52.665  0.00  0.00     0.181 C 
ENDBRANCH  23  29
ENDBRANCH  19  22
ENDBRANCH   2  19
TORSDOF 6
ENDMDL
