MODEL 1
REMARK VINA RESULT:     -10.1      0.000      0.000
REMARK  4 active torsions:
REMARK  status: ('A' for Active; 'I' for Inactive)
REMARK    1  A    between atoms: C_13  and  N_3 
REMARK    2  A    between atoms: C_11  and  C_6 
REMARK    3  A    between atoms: O_22  and  C_11 
REMARK    4  A    between atoms: C_21  and  C_13 
ROOT
ATOM      1  C   UNL d   1      52.817  32.602  53.289  0.00  0.00     0.155 A 
ATOM      2  C   UNL d   1      52.183  32.079  53.243  0.00  0.00     0.091 A 
ATOM      3  N   UNL d   1      53.579  32.316  53.409  0.00  0.00    -0.274 N 
ATOM      4  N   UNL d   1      52.689  33.414  53.215  0.00  0.00    -0.210 NA
ATOM      5  N   UNL d   1      51.290  33.174  53.049  0.00  0.00    -0.258 N 
ATOM      6  C   UNL d   1      53.082  30.984  53.438  0.00  0.00     0.100 A 
ATOM      7  C   UNL d   1      51.923  33.705  53.094  0.00  0.00     0.152 A 
ATOM      8  C   UNL d   1      53.711  31.513  53.483  0.00  0.00     0.175 A 
ATOM      9  C   UNL d   1      51.413  32.357  53.122  0.00  0.00     0.269 A 
ATOM     10  C   UNL d   1      52.311  31.262  53.317  0.00  0.00     0.016 A 
ATOM     11  C   UNL d   1      51.793  34.512  53.020  0.00  0.00     0.035 A 
ATOM     12  C   UNL d   1      50.518  33.461  52.927  0.00  0.00     0.084 A 
ATOM     13  N   UNL d   1      54.480  31.224  53.604  0.00  0.00    -0.128 N 
ATOM     14  O   UNL d   1      50.779  31.835  53.076  0.00  0.00    -0.266 OA
ATOM     15  C   UNL d   1      50.398  34.275  52.854  0.00  0.00     0.019 A 
ATOM     16  C   UNL d   1      51.035  34.800  52.901  0.00  0.00     0.005 A 
ATOM     17  C   UNL d   1      52.436  35.030  53.068  0.00  0.00     0.003 C 
ENDROOT
BRANCH   3  18
ATOM     18  C   UNL d   1      54.210  32.842  53.455  0.00  0.00     0.084 C 
BRANCH  18  19
ATOM     19  C   UNL d   1      54.495  33.084  54.194  0.00  0.00     0.037 A 
ATOM     20  C   UNL d   1      54.134  32.815  54.874  0.00  0.00     0.100 A 
ATOM     21  N   UNL d   1      54.413  33.051  55.613  0.00  0.00    -0.242 NA
ATOM     22  C   UNL d   1      55.058  33.561  55.655  0.00  0.00     0.099 A 
ATOM     23  C   UNL d   1      55.424  33.834  54.967  0.00  0.00     0.021 A 
ATOM     24  C   UNL d   1      55.137  33.591  54.236  0.00  0.00     0.005 A 
ENDBRANCH  18  19
ENDBRANCH   3  18
BRANCH   6  25
ATOM     25  C   UNL d   1      53.211  30.173  53.512  0.00  0.00     0.299 C 
ATOM     26  O   UNL d   1      53.359  29.707  52.839  0.00  0.00    -0.259 OA
BRANCH  25  27
ATOM     27  O   UNL d   1      53.195  29.820  54.253  0.00  0.00    -0.296 OA
ATOM     28  C   UNL d   1      53.206  28.997  54.324  0.00  0.00     0.185 C 
ENDBRANCH  25  27
ENDBRANCH   6  25
TORSDOF 4
ENDMDL
MODEL 2
REMARK VINA RESULT:      -9.1      1.755      4.271
REMARK  4 active torsions:
REMARK  status: ('A' for Active; 'I' for Inactive)
REMARK    1  A    between atoms: C_13  and  N_3 
REMARK    2  A    between atoms: C_11  and  C_6 
REMARK    3  A    between atoms: O_22  and  C_11 
REMARK    4  A    between atoms: C_21  and  C_13 
ROOT
ATOM      1  C   UNL d   1      52.949  32.956  53.437  0.00  0.00     0.155 A 
ATOM      2  C   UNL d   1      53.415  33.007  54.113  0.00  0.00     0.091 A 
ATOM      3  N   UNL d   1      52.642  33.638  53.095  0.00  0.00    -0.274 N 
ATOM      4  N   UNL d   1      52.789  32.219  53.101  0.00  0.00    -0.210 NA
ATOM      5  N   UNL d   1      53.565  31.589  54.123  0.00  0.00    -0.258 N 
ATOM      6  C   UNL d   1      53.262  34.429  54.101  0.00  0.00     0.100 A 
ATOM      7  C   UNL d   1      53.097  31.530  53.443  0.00  0.00     0.152 A 
ATOM      8  C   UNL d   1      52.797  34.370  53.424  0.00  0.00     0.175 A 
ATOM      9  C   UNL d   1      53.728  32.327  54.465  0.00  0.00     0.269 A 
ATOM     10  C   UNL d   1      53.576  33.749  54.452  0.00  0.00     0.016 A 
ATOM     11  C   UNL d   1      52.940  30.797  53.111  0.00  0.00     0.035 A 
ATOM     12  C   UNL d   1      53.877  30.900  54.471  0.00  0.00     0.084 A 
ATOM     13  N   UNL d   1      52.487  35.059  53.079  0.00  0.00    -0.128 N 
ATOM     14  O   UNL d   1      54.194  32.378  55.141  0.00  0.00    -0.266 OA
ATOM     15  C   UNL d   1      53.713  30.167  54.129  0.00  0.00     0.019 A 
ATOM     16  C   UNL d   1      53.244  30.115  53.449  0.00  0.00     0.005 A 
ATOM     17  C   UNL d   1      52.471  30.753  52.431  0.00  0.00     0.003 C 
ENDROOT
BRANCH   3  18
ATOM     18  C   UNL d   1      52.176  33.582  52.419  0.00  0.00     0.084 C 
BRANCH  18  19
ATOM     19  C   UNL d   1      51.378  33.802  52.446  0.00  0.00     0.037 A 
ATOM     20  C   UNL d   1      50.916  33.570  53.078  0.00  0.00     0.100 A 
ATOM     21  N   UNL d   1      50.121  33.786  53.111  0.00  0.00    -0.242 NA
ATOM     22  C   UNL d   1      49.800  34.235  52.501  0.00  0.00     0.099 A 
ATOM     23  C   UNL d   1      50.267  34.469  51.861  0.00  0.00     0.021 A 
ATOM     24  C   UNL d   1      51.059  34.249  51.839  0.00  0.00     0.005 A 
ENDBRANCH  18  19
ENDBRANCH   3  18
BRANCH   6  25
ATOM     25  C   UNL d   1      53.421  35.166  54.435  0.00  0.00     0.299 C 
ATOM     26  O   UNL d   1      54.056  35.627  54.159  0.00  0.00    -0.259 OA
BRANCH  25  27
ATOM     27  O   UNL d   1      52.951  35.451  55.046  0.00  0.00    -0.296 OA
ATOM     28  C   UNL d   1      53.030  36.231  55.307  0.00  0.00     0.185 C 
ENDBRANCH  25  27
ENDBRANCH   6  25
TORSDOF 4
ENDMDL
MODEL 3
REMARK VINA RESULT:      -8.8      1.062      3.260
REMARK  4 active torsions:
REMARK  status: ('A' for Active; 'I' for Inactive)
REMARK    1  A    between atoms: C_13  and  N_3 
REMARK    2  A    between atoms: C_11  and  C_6 
REMARK    3  A    between atoms: O_22  and  C_11 
REMARK    4  A    between atoms: C_21  and  C_13 
ROOT
ATOM      1  C   UNL d   1      53.108  32.080  53.333  0.00  0.00     0.155 A 
ATOM      2  C   UNL d   1      52.304  32.020  53.169  0.00  0.00     0.091 A 
ATOM      3  N   UNL d   1      53.471  32.817  53.355  0.00  0.00    -0.274 N 
ATOM      4  N   UNL d   1      53.551  31.398  53.477  0.00  0.00    -0.210 NA
ATOM      5  N   UNL d   1      52.380  30.601  53.290  0.00  0.00    -0.258 N 
ATOM      6  C   UNL d   1      52.231  33.443  53.048  0.00  0.00     0.100 A 
ATOM      7  C   UNL d   1      53.189  30.653  53.456  0.00  0.00     0.152 A 
ATOM      8  C   UNL d   1      53.036  33.495  53.213  0.00  0.00     0.175 A 
ATOM      9  C   UNL d   1      51.930  31.282  53.145  0.00  0.00     0.269 A 
ATOM     10  C   UNL d   1      51.857  32.705  53.024  0.00  0.00     0.016 A 
ATOM     11  C   UNL d   1      53.627  29.975  53.598  0.00  0.00     0.035 A 
ATOM     12  C   UNL d   1      52.010  29.855  53.267  0.00  0.00     0.084 A 
ATOM     13  N   UNL d   1      53.402  34.240  53.235  0.00  0.00    -0.128 N 
ATOM     14  O   UNL d   1      51.125  31.222  52.980  0.00  0.00    -0.266 OA
ATOM     15  C   UNL d   1      52.461  29.179  53.412  0.00  0.00     0.019 A 
ATOM     16  C   UNL d   1      53.269  29.239  53.577  0.00  0.00     0.005 A 
ATOM     17  C   UNL d   1      54.435  30.043  53.763  0.00  0.00     0.003 C 
ENDROOT
BRANCH   3  18
ATOM     18  C   UNL d   1      54.275  32.872  53.520  0.00  0.00     0.084 C 
BRANCH  18  19
ATOM     19  C   UNL d   1      54.529  33.164  54.253  0.00  0.00     0.037 A 
ATOM     20  C   UNL d   1      54.142  32.935  54.934  0.00  0.00     0.100 A 
ATOM     21  N   UNL d   1      54.390  33.221  55.667  0.00  0.00    -0.242 NA
ATOM     22  C   UNL d   1      55.029  33.738  55.702  0.00  0.00     0.099 A 
ATOM     23  C   UNL d   1      55.419  33.970  55.012  0.00  0.00     0.021 A 
ATOM     24  C   UNL d   1      55.164  33.679  54.287  0.00  0.00     0.005 A 
ENDBRANCH  18  19
ENDBRANCH   3  18
BRANCH   6  25
ATOM     25  C   UNL d   1      51.790  34.124  52.905  0.00  0.00     0.299 C 
ATOM     26  O   UNL d   1      51.896  34.556  52.201  0.00  0.00    -0.259 OA
BRANCH  25  27
ATOM     27  O   UNL d   1      51.240  34.383  53.457  0.00  0.00    -0.296 OA
ATOM     28  C   UNL d   1      50.557  34.780  53.215  0.00  0.00     0.185 C 
ENDBRANCH  25  27
ENDBRANCH   6  25
TORSDOF 4
ENDMDL
MODEL 4
REMARK VINA RESULT:      -8.7      1.176      3.337
REMARK  4 active torsions:
REMARK  status: ('A' for Active; 'I' for Inactive)
REMARK    1  A    between atoms: C_13  and  N_3 
REMARK    2  A    between atoms: C_11  and  C_6 
REMARK    3  A    between atoms: O_22  and  C_11 
REMARK    4  A    between atoms: C_21  and  C_13 
ROOT
ATOM      1  C   UNL d   1      52.959  32.984  53.952  0.00  0.00     0.155 A 
ATOM      2  C   UNL d   1      53.599  32.470  53.892  0.00  0.00     0.091 A 
ATOM      3  N   UNL d   1      52.230  32.771  53.639  0.00  0.00    -0.274 N 
ATOM      4  N   UNL d   1      53.050  33.714  54.326  0.00  0.00    -0.210 NA
ATOM      5  N   UNL d   1      54.423  33.410  54.579  0.00  0.00    -0.258 N 
ATOM      6  C   UNL d   1      52.770  31.530  53.204  0.00  0.00     0.100 A 
ATOM      7  C   UNL d   1      53.784  33.931  54.643  0.00  0.00     0.152 A 
ATOM      8  C   UNL d   1      52.135  32.049  53.267  0.00  0.00     0.175 A 
ATOM      9  C   UNL d   1      54.338  32.675  54.205  0.00  0.00     0.269 A 
ATOM     10  C   UNL d   1      53.509  31.735  53.516  0.00  0.00     0.016 A 
ATOM     11  C   UNL d   1      53.876  34.656  55.015  0.00  0.00     0.035 A 
ATOM     12  C   UNL d   1      55.163  33.622  54.896  0.00  0.00     0.084 A 
ATOM     13  N   UNL d   1      51.398  31.834  52.950  0.00  0.00    -0.128 N 
ATOM     14  O   UNL d   1      54.978  32.161  54.146  0.00  0.00    -0.266 OA
ATOM     15  C   UNL d   1      55.245  34.355  55.269  0.00  0.00     0.019 A 
ATOM     16  C   UNL d   1      54.602  34.871  55.328  0.00  0.00     0.005 A 
ATOM     17  C   UNL d   1      53.228  35.167  55.070  0.00  0.00     0.003 C 
ENDROOT
BRANCH   3  18
ATOM     18  C   UNL d   1      51.592  33.288  53.700  0.00  0.00     0.084 C 
BRANCH  18  19
ATOM     19  C   UNL d   1      51.297  33.663  53.023  0.00  0.00     0.037 A 
ATOM     20  C   UNL d   1      51.814  33.934  52.452  0.00  0.00     0.100 A 
ATOM     21  N   UNL d   1      51.526  34.308  51.777  0.00  0.00    -0.242 NA
ATOM     22  C   UNL d   1      50.714  34.406  51.686  0.00  0.00     0.099 A 
ATOM     23  C   UNL d   1      50.191  34.133  52.263  0.00  0.00     0.021 A 
ATOM     24  C   UNL d   1      50.488  33.761  52.933  0.00  0.00     0.005 A 
ENDBRANCH  18  19
ENDBRANCH   3  18
BRANCH   6  25
ATOM     25  C   UNL d   1      52.678  30.800  52.830  0.00  0.00     0.299 C 
ATOM     26  O   UNL d   1      52.829  30.723  52.015  0.00  0.00    -0.259 OA
BRANCH  25  27
ATOM     27  O   UNL d   1      52.438  30.144  53.261  0.00  0.00    -0.296 OA
ATOM     28  C   UNL d   1      52.676  29.386  53.037  0.00  0.00     0.185 C 
ENDBRANCH  25  27
ENDBRANCH   6  25
TORSDOF 4
ENDMDL
MODEL 5
REMARK VINA RESULT:      -8.5      1.536      2.920
REMARK  4 active torsions:
REMARK  status: ('A' for Active; 'I' for Inactive)
REMARK    1  A    between atoms: C_13  and  N_3 
REMARK    2  A    between atoms: C_11  and  C_6 
REMARK    3  A    between atoms: O_22  and  C_11 
REMARK    4  A    between atoms: C_21  and  C_13 
ROOT
ATOM      1  C   UNL d   1      52.517  33.207  53.384  0.00  0.00     0.155 A 
ATOM      2  C   UNL d   1      52.609  33.801  53.947  0.00  0.00     0.091 A 
ATOM      3  N   UNL d   1      53.074  32.607  53.323  0.00  0.00    -0.274 N 
ATOM      4  N   UNL d   1      51.863  33.216  52.881  0.00  0.00    -0.210 NA
ATOM      5  N   UNL d   1      51.399  34.412  53.508  0.00  0.00    -0.258 N 
ATOM      6  C   UNL d   1      53.823  33.184  54.386  0.00  0.00     0.100 A 
ATOM      7  C   UNL d   1      51.299  33.820  52.940  0.00  0.00     0.152 A 
ATOM      8  C   UNL d   1      53.724  32.594  53.820  0.00  0.00     0.175 A 
ATOM      9  C   UNL d   1      52.053  34.410  54.017  0.00  0.00     0.269 A 
ATOM     10  C   UNL d   1      53.267  33.793  54.455  0.00  0.00     0.016 A 
ATOM     11  C   UNL d   1      50.649  33.829  52.440  0.00  0.00     0.035 A 
ATOM     12  C   UNL d   1      50.835  35.022  53.572  0.00  0.00     0.084 A 
ATOM     13  N   UNL d   1      54.288  31.988  53.759  0.00  0.00    -0.128 N 
ATOM     14  O   UNL d   1      52.146  35.003  54.580  0.00  0.00    -0.266 OA
ATOM     15  C   UNL d   1      50.184  35.023  53.064  0.00  0.00     0.019 A 
ATOM     16  C   UNL d   1      50.091  34.427  52.498  0.00  0.00     0.005 A 
ATOM     17  C   UNL d   1      50.563  33.230  51.877  0.00  0.00     0.003 C 
ENDROOT
BRANCH   3  18
ATOM     18  C   UNL d   1      52.978  32.015  52.759  0.00  0.00     0.084 C 
BRANCH  18  19
ATOM     19  C   UNL d   1      52.852  31.232  52.997  0.00  0.00     0.037 A 
ATOM     20  C   UNL d   1      52.137  31.020  53.328  0.00  0.00     0.100 A 
ATOM     21  N   UNL d   1      52.005  30.243  53.566  0.00  0.00    -0.242 NA
ATOM     22  C   UNL d   1      52.601  29.685  53.467  0.00  0.00     0.099 A 
ATOM     23  C   UNL d   1      53.325  29.899  53.133  0.00  0.00     0.021 A 
ATOM     24  C   UNL d   1      53.446  30.677  52.898  0.00  0.00     0.005 A 
ENDBRANCH  18  19
ENDBRANCH   3  18
BRANCH   6  25
ATOM     25  C   UNL d   1      54.477  33.175  54.889  0.00  0.00     0.299 C 
ATOM     26  O   UNL d   1      54.452  32.751  55.604  0.00  0.00    -0.259 OA
BRANCH  25  27
ATOM     27  O   UNL d   1      55.158  33.586  54.686  0.00  0.00    -0.296 OA
ATOM     28  C   UNL d   1      55.643  33.908  55.272  0.00  0.00     0.185 C 
ENDBRANCH  25  27
ENDBRANCH   6  25
TORSDOF 4
ENDMDL
MODEL 6
REMARK VINA RESULT:      -8.0      1.826      3.962
REMARK  4 active torsions:
REMARK  status: ('A' for Active; 'I' for Inactive)
REMARK    1  A    between atoms: C_13  and  N_3 
REMARK    2  A    between atoms: C_11  and  C_6 
REMARK    3  A    between atoms: O_22  and  C_11 
REMARK    4  A    between atoms: C_21  and  C_13 
ROOT
ATOM      1  C   UNL d   1      52.581  33.317  53.922  0.00  0.00     0.155 A 
ATOM      2  C   UNL d   1      52.588  34.107  53.691  0.00  0.00     0.091 A 
ATOM      3  N   UNL d   1      51.989  32.814  53.654  0.00  0.00    -0.274 N 
ATOM      4  N   UNL d   1      53.170  33.029  54.423  0.00  0.00    -0.210 NA
ATOM      5  N   UNL d   1      53.769  34.326  54.459  0.00  0.00    -0.258 N 
ATOM      6  C   UNL d   1      51.403  33.883  52.922  0.00  0.00     0.100 A 
ATOM      7  C   UNL d   1      53.769  33.533  54.696  0.00  0.00     0.152 A 
ATOM      8  C   UNL d   1      51.403  33.095  53.157  0.00  0.00     0.175 A 
ATOM      9  C   UNL d   1      53.180  34.621  53.956  0.00  0.00     0.269 A 
ATOM     10  C   UNL d   1      51.996  34.398  53.186  0.00  0.00     0.016 A 
ATOM     11  C   UNL d   1      54.355  33.249  55.194  0.00  0.00     0.035 A 
ATOM     12  C   UNL d   1      54.368  34.837  54.729  0.00  0.00     0.084 A 
ATOM     13  N   UNL d   1      50.804  32.587  52.886  0.00  0.00    -0.128 N 
ATOM     14  O   UNL d   1      53.187  35.411  53.725  0.00  0.00    -0.266 OA
ATOM     15  C   UNL d   1      54.954  34.541  55.231  0.00  0.00     0.019 A 
ATOM     16  C   UNL d   1      54.947  33.747  55.463  0.00  0.00     0.005 A 
ATOM     17  C   UNL d   1      54.341  32.454  55.422  0.00  0.00     0.003 C 
ENDROOT
BRANCH   3  18
ATOM     18  C   UNL d   1      51.985  32.025  53.887  0.00  0.00     0.084 C 
BRANCH  18  19
ATOM     19  C   UNL d   1      52.315  31.446  53.395  0.00  0.00     0.037 A 
ATOM     20  C   UNL d   1      52.683  31.667  52.701  0.00  0.00     0.100 A 
ATOM     21  N   UNL d   1      53.013  31.096  52.207  0.00  0.00    -0.242 NA
ATOM     22  C   UNL d   1      52.966  30.303  52.421  0.00  0.00     0.099 A 
ATOM     23  C   UNL d   1      52.593  30.079  53.123  0.00  0.00     0.021 A 
ATOM     24  C   UNL d   1      52.268  30.656  53.608  0.00  0.00     0.005 A 
ENDBRANCH  18  19
ENDBRANCH   3  18
BRANCH   6  25
ATOM     25  C   UNL d   1      50.814  34.170  52.421  0.00  0.00     0.299 C 
ATOM     26  O   UNL d   1      50.943  34.211  51.600  0.00  0.00    -0.259 OA
BRANCH  25  27
ATOM     27  O   UNL d   1      50.095  34.417  52.730  0.00  0.00    -0.296 OA
ATOM     28  C   UNL d   1      49.542  34.801  52.250  0.00  0.00     0.185 C 
ENDBRANCH  25  27
ENDBRANCH   6  25
TORSDOF 4
ENDMDL
