MODEL 1
REMARK VINA RESULT:      70.9      0.000      0.000
REMARK  3 active torsions:
REMARK  status: ('A' for Active; 'I' for Inactive)
REMARK       I    between atoms: C_3  and  N_1 
REMARK    1  A    between atoms: C_9  and  C_3 
REMARK    2  A    between atoms: C_15  and  C_4 
REMARK    3  A    between atoms: N_5  and  C_8 
ROOT
ATOM      1  N   UNL d   1      46.186 -17.233  42.937  0.00  0.00    -0.269 N 
ATOM      2  C   UNL d   1      46.356 -18.224  42.038  0.00  0.00     0.036 A 
ATOM      3  C   UNL d   1      46.023 -17.108  43.738  0.00  0.00     0.265 C 
ATOM      4  C   UNL d   1      46.226 -18.009  42.686  0.00  0.00     0.069 A 
ATOM      5  C   UNL d   1      46.512 -17.842  41.308  0.00  0.00     0.086 A 
ATOM      6  N   UNL d   1      46.563 -17.148  41.112  0.00  0.00    -0.207 NA
ATOM      7  C   UNL d   1      46.471 -16.504  41.606  0.00  0.00     0.297 A 
ATOM      8  C   UNL d   1      46.297 -16.539  42.449  0.00  0.00     0.146 A 
ATOM      9  C   UNL d   1      46.339 -19.059  42.063  0.00  0.00     0.033 A 
ATOM     10  O   UNL d   1      45.908 -17.754  44.252  0.00  0.00    -0.267 OA
ATOM     11  O   UNL d   1      46.552 -15.750  41.265  0.00  0.00    -0.264 OA
ATOM     12  C   UNL d   1      46.647 -18.293  40.620  0.00  0.00     0.022 A 
ATOM     13  C   UNL d   1      46.473 -19.513  41.378  0.00  0.00     0.140 A 
ATOM     14  C   UNL d   1      46.628 -19.123  40.652  0.00  0.00     0.031 A 
ATOM     15  F   UNL d   1      46.453 -20.330  41.416  0.00  0.00    -0.204 F 
ENDROOT
BRANCH   3  16
ATOM     16  C   UNL d   1      45.973 -16.342  44.036  0.00  0.00     0.058 A 
ATOM     17  C   UNL d   1      45.252 -15.943  44.046  0.00  0.00     0.028 A 
ATOM     18  C   UNL d   1      45.216 -15.188  44.341  0.00  0.00     0.127 A 
ATOM     19  C   UNL d   1      45.892 -14.816  44.632  0.00  0.00     0.022 A 
ATOM     20  C   UNL d   1      46.605 -15.206  44.625  0.00  0.00     0.002 A 
ATOM     21  C   UNL d   1      45.839 -14.048  44.930  0.00  0.00     0.002 C 
ATOM     22  C   UNL d   1      46.647 -15.972  44.325  0.00  0.00     0.005 A 
BRANCH  18  23
ATOM     23  N   UNL d   1      44.494 -14.789  44.351  0.00  0.00    -0.114 N 
ATOM     24  O   UNL d   1      43.941 -14.971  44.919  0.00  0.00    -0.532 OA
ATOM     25  O   UNL d   1      44.341 -14.212  43.788  0.00  0.00    -0.532 OA
ENDBRANCH  18  23
ENDBRANCH   3  16
BRANCH   4  26
ATOM     26  C   UNL d   1      46.102 -18.588  43.251  0.00  0.00     0.016 A 
ATOM     27  C   UNL d   1      46.552 -18.589  43.947  0.00  0.00     0.004 A 
ATOM     28  C   UNL d   1      46.418 -19.178  44.511  0.00  0.00     0.030 A 
ATOM     29  C   UNL d   1      45.859 -19.747  44.392  0.00  0.00     0.140 A 
ATOM     30  C   UNL d   1      45.413 -19.740  43.695  0.00  0.00     0.030 A 
ATOM     31  F   UNL d   1      45.730 -20.330  44.955  0.00  0.00    -0.204 F 
ATOM     32  C   UNL d   1      45.531 -19.166  43.127  0.00  0.00     0.004 A 
ENDBRANCH   4  26
TORSDOF 3
ENDMDL
