MODEL 1
REMARK VINA RESULT:      -8.0      0.000      0.000
REMARK  5 active torsions:
REMARK  status: ('A' for Active; 'I' for Inactive)
REMARK    1  A    between atoms: N_7  and  C_4 
REMARK    2  A    between atoms: N_9  and  N_7 
REMARK       I    between atoms: C_8  and  N_9 
REMARK    3  A    between atoms: C_11  and  C_8 
REMARK    4  A    between atoms: C_14  and  C_11 
REMARK    5  A    between atoms: C_15  and  C_11 
ROOT
ATOM      1  C   UNL d   1      52.963  33.124  53.006  0.00  0.00     0.297 C 
ATOM      2  N   UNL d   1      52.829  32.379  53.334  0.00  0.00    -0.104 NA
ATOM      3  O   UNL d   1      53.556  33.228  52.441  0.00  0.00    -0.264 OA
ENDROOT
BRANCH   1   4
ATOM      4  C   UNL d   1      52.501  33.766  53.244  0.00  0.00     0.059 C 
BRANCH   4   5
ATOM      5  C   UNL d   1      52.794  34.305  53.798  0.00  0.00     0.005 A 
ATOM      6  C   UNL d   1      53.063  35.035  53.542  0.00  0.00     0.000 A 
ATOM      7  C   UNL d   1      53.355  35.574  54.085  0.00  0.00     0.000 A 
ATOM      8  C   UNL d   1      53.369  35.362  54.889  0.00  0.00     0.000 A 
ATOM      9  C   UNL d   1      53.098  34.632  55.138  0.00  0.00     0.000 A 
ATOM     10  C   UNL d   1      52.814  34.111  54.592  0.00  0.00     0.000 A 
ENDBRANCH   4   5
BRANCH   4  11
ATOM     11  C   UNL d   1      51.746  33.867  52.926  0.00  0.00     0.005 A 
ATOM     12  C   UNL d   1      51.668  34.181  52.179  0.00  0.00     0.000 A 
ATOM     13  C   UNL d   1      50.915  34.285  51.855  0.00  0.00     0.000 A 
ATOM     14  C   UNL d   1      50.248  34.070  52.293  0.00  0.00     0.000 A 
ATOM     15  C   UNL d   1      50.342  33.748  53.062  0.00  0.00     0.000 A 
ATOM     16  C   UNL d   1      51.096  33.652  53.367  0.00  0.00     0.000 A 
ENDBRANCH   4  11
ENDBRANCH   1   4
BRANCH   2  17
ATOM     17  N   UNL d   1      53.291  31.738  53.097  0.00  0.00    -0.127 NA
BRANCH  17  18
ATOM     18  C   UNL d   1      53.248  31.021  53.511  0.00  0.00     0.178 A 
ATOM     19  N   UNL d   1      53.023  30.331  53.123  0.00  0.00    -0.240 N 
ATOM     20  C   UNL d   1      52.980  29.622  53.532  0.00  0.00     0.343 A 
ATOM     21  C   UNL d   1      52.840  30.354  52.316  0.00  0.00     0.105 C 
ATOM     22  N   UNL d   1      53.163  29.600  54.338  0.00  0.00    -0.224 N 
ATOM     23  O   UNL d   1      52.754  28.929  53.139  0.00  0.00    -0.245 OA
ATOM     24  C   UNL d   1      53.391  30.285  54.743  0.00  0.00     0.271 A 
ATOM     25  C   UNL d   1      53.120  28.883  54.751  0.00  0.00     0.107 C 
ATOM     26  C   UNL d   1      53.431  30.998  54.317  0.00  0.00     0.101 A 
ATOM     27  O   UNL d   1      53.572  30.262  55.540  0.00  0.00    -0.266 OA
ENDBRANCH  17  18
ENDBRANCH   2  17
TORSDOF 5
ENDMDL
MODEL 2
REMARK VINA RESULT:      -8.0      0.022      2.013
REMARK  5 active torsions:
REMARK  status: ('A' for Active; 'I' for Inactive)
REMARK    1  A    between atoms: N_7  and  C_4 
REMARK    2  A    between atoms: N_9  and  N_7 
REMARK       I    between atoms: C_8  and  N_9 
REMARK    3  A    between atoms: C_11  and  C_8 
REMARK    4  A    between atoms: C_14  and  C_11 
REMARK    5  A    between atoms: C_15  and  C_11 
ROOT
ATOM      1  C   UNL d   1      52.983  33.126  53.022  0.00  0.00     0.297 C 
ATOM      2  N   UNL d   1      52.842  32.378  53.342  0.00  0.00    -0.104 NA
ATOM      3  O   UNL d   1      53.588  33.231  52.469  0.00  0.00    -0.264 OA
ENDROOT
BRANCH   1   4
ATOM      4  C   UNL d   1      52.519  33.767  53.255  0.00  0.00     0.059 C 
BRANCH   4   5
ATOM      5  C   UNL d   1      51.764  33.871  52.934  0.00  0.00     0.005 A 
ATOM      6  C   UNL d   1      51.690  34.182  52.180  0.00  0.00     0.000 A 
ATOM      7  C   UNL d   1      50.946  34.289  51.855  0.00  0.00     0.000 A 
ATOM      8  C   UNL d   1      50.281  34.075  52.305  0.00  0.00     0.000 A 
ATOM      9  C   UNL d   1      50.361  33.765  53.057  0.00  0.00     0.000 A 
ATOM     10  C   UNL d   1      51.100  33.666  53.364  0.00  0.00     0.000 A 
ENDBRANCH   4   5
BRANCH   4  11
ATOM     11  C   UNL d   1      52.810  34.303  53.811  0.00  0.00     0.005 A 
ATOM     12  C   UNL d   1      53.082  35.028  53.558  0.00  0.00     0.000 A 
ATOM     13  C   UNL d   1      53.375  35.570  54.108  0.00  0.00     0.000 A 
ATOM     14  C   UNL d   1      53.389  35.371  54.910  0.00  0.00     0.000 A 
ATOM     15  C   UNL d   1      53.107  34.621  55.157  0.00  0.00     0.000 A 
ATOM     16  C   UNL d   1      52.820  34.096  54.598  0.00  0.00     0.000 A 
ENDBRANCH   4  11
ENDBRANCH   1   4
BRANCH   2  17
ATOM     17  N   UNL d   1      53.306  31.737  53.109  0.00  0.00    -0.127 NA
BRANCH  17  18
ATOM     18  C   UNL d   1      53.258  31.020  53.521  0.00  0.00     0.178 A 
ATOM     19  N   UNL d   1      53.029  30.333  53.130  0.00  0.00    -0.240 N 
ATOM     20  C   UNL d   1      52.981  29.623  53.537  0.00  0.00     0.343 A 
ATOM     21  C   UNL d   1      52.847  30.359  52.324  0.00  0.00     0.105 C 
ATOM     22  N   UNL d   1      53.162  29.596  54.344  0.00  0.00    -0.224 N 
ATOM     23  O   UNL d   1      52.750  28.932  53.142  0.00  0.00    -0.245 OA
ATOM     24  C   UNL d   1      53.394  30.279  54.751  0.00  0.00     0.271 A 
ATOM     25  C   UNL d   1      53.114  28.879  54.754  0.00  0.00     0.107 C 
ATOM     26  C   UNL d   1      53.439  30.993  54.327  0.00  0.00     0.101 A 
ATOM     27  O   UNL d   1      53.574  30.253  55.548  0.00  0.00    -0.266 OA
ENDBRANCH  17  18
ENDBRANCH   2  17
TORSDOF 5
ENDMDL
MODEL 3
REMARK VINA RESULT:      -7.3      2.792      5.083
REMARK  5 active torsions:
REMARK  status: ('A' for Active; 'I' for Inactive)
REMARK    1  A    between atoms: N_7  and  C_4 
REMARK    2  A    between atoms: N_9  and  N_7 
REMARK       I    between atoms: C_8  and  N_9 
REMARK    3  A    between atoms: C_11  and  C_8 
REMARK    4  A    between atoms: C_14  and  C_11 
REMARK    5  A    between atoms: C_15  and  C_11 
ROOT
ATOM      1  C   UNL d   1      51.401  34.040  52.258  0.00  0.00     0.297 C 
ATOM      2  N   UNL d   1      50.620  34.233  52.445  0.00  0.00    -0.104 NA
ATOM      3  O   UNL d   1      51.670  34.111  51.480  0.00  0.00    -0.264 OA
ENDROOT
BRANCH   1   4
ATOM      4  C   UNL d   1      51.911  33.776  52.850  0.00  0.00     0.059 C 
BRANCH   4   5
ATOM      5  C   UNL d   1      52.042  32.966  52.955  0.00  0.00     0.005 A 
ATOM      6  C   UNL d   1      51.458  32.509  53.302  0.00  0.00     0.000 A 
ATOM      7  C   UNL d   1      51.580  31.706  53.408  0.00  0.00     0.000 A 
ATOM      8  C   UNL d   1      52.301  31.376  53.158  0.00  0.00     0.000 A 
ATOM      9  C   UNL d   1      52.880  31.838  52.812  0.00  0.00     0.000 A 
ATOM     10  C   UNL d   1      52.746  32.627  52.714  0.00  0.00     0.000 A 
ENDBRANCH   4   5
BRANCH   4  11
ATOM     11  C   UNL d   1      52.291  34.323  53.338  0.00  0.00     0.005 A 
ATOM     12  C   UNL d   1      52.063  34.386  54.117  0.00  0.00     0.000 A 
ATOM     13  C   UNL d   1      52.438  34.931  54.611  0.00  0.00     0.000 A 
ATOM     14  C   UNL d   1      53.042  35.407  54.310  0.00  0.00     0.000 A 
ATOM     15  C   UNL d   1      53.268  35.332  53.505  0.00  0.00     0.000 A 
ATOM     16  C   UNL d   1      52.885  34.787  53.030  0.00  0.00     0.000 A 
ENDBRANCH   4  11
ENDBRANCH   1   4
BRANCH   2  17
ATOM     17  N   UNL d   1      50.110  34.497  51.852  0.00  0.00    -0.127 NA
BRANCH  17  18
ATOM     18  C   UNL d   1      49.392  34.856  52.055  0.00  0.00     0.178 A 
ATOM     19  N   UNL d   1      48.751  34.824  51.539  0.00  0.00    -0.240 N 
ATOM     20  C   UNL d   1      48.041  35.179  51.740  0.00  0.00     0.343 A 
ATOM     21  C   UNL d   1      48.827  34.431  50.816  0.00  0.00     0.105 C 
ATOM     22  N   UNL d   1      47.966  35.572  52.464  0.00  0.00    -0.224 N 
ATOM     23  O   UNL d   1      47.398  35.145  51.219  0.00  0.00    -0.245 OA
ATOM     24  C   UNL d   1      48.601  35.614  52.994  0.00  0.00     0.271 A 
ATOM     25  C   UNL d   1      47.247  35.931  52.666  0.00  0.00     0.107 C 
ATOM     26  C   UNL d   1      49.317  35.250  52.779  0.00  0.00     0.101 A 
ATOM     27  O   UNL d   1      48.526  36.003  53.709  0.00  0.00    -0.266 OA
ENDBRANCH  17  18
ENDBRANCH   2  17
TORSDOF 5
ENDMDL
MODEL 4
REMARK VINA RESULT:      -7.3      2.028      4.517
REMARK  5 active torsions:
REMARK  status: ('A' for Active; 'I' for Inactive)
REMARK    1  A    between atoms: N_7  and  C_4 
REMARK    2  A    between atoms: N_9  and  N_7 
REMARK       I    between atoms: C_8  and  N_9 
REMARK    3  A    between atoms: C_11  and  C_8 
REMARK    4  A    between atoms: C_14  and  C_11 
REMARK    5  A    between atoms: C_15  and  C_11 
ROOT
ATOM      1  C   UNL d   1      53.010  33.018  52.853  0.00  0.00     0.297 C 
ATOM      2  N   UNL d   1      52.261  33.342  52.979  0.00  0.00    -0.104 NA
ATOM      3  O   UNL d   1      53.439  33.216  52.176  0.00  0.00    -0.264 OA
ENDROOT
BRANCH   1   4
ATOM      4  C   UNL d   1      53.328  32.494  53.407  0.00  0.00     0.059 C 
BRANCH   4   5
ATOM      5  C   UNL d   1      53.180  31.683  53.343  0.00  0.00     0.005 A 
ATOM      6  C   UNL d   1      53.769  31.190  53.061  0.00  0.00     0.000 A 
ATOM      7  C   UNL d   1      53.630  30.386  52.995  0.00  0.00     0.000 A 
ATOM      8  C   UNL d   1      52.886  30.091  53.220  0.00  0.00     0.000 A 
ATOM      9  C   UNL d   1      52.302  30.588  53.502  0.00  0.00     0.000 A 
ATOM     10  C   UNL d   1      52.453  31.378  53.561  0.00  0.00     0.000 A 
ENDBRANCH   4   5
BRANCH   4  11
ATOM     11  C   UNL d   1      53.794  32.783  54.023  0.00  0.00     0.005 A 
ATOM     12  C   UNL d   1      54.546  33.051  53.861  0.00  0.00     0.000 A 
ATOM     13  C   UNL d   1      55.018  33.342  54.473  0.00  0.00     0.000 A 
ATOM     14  C   UNL d   1      54.723  33.358  55.245  0.00  0.00     0.000 A 
ATOM     15  C   UNL d   1      53.946  33.079  55.399  0.00  0.00     0.000 A 
ATOM     16  C   UNL d   1      53.492  32.795  54.779  0.00  0.00     0.000 A 
ENDBRANCH   4  11
ENDBRANCH   1   4
BRANCH   2  17
ATOM     17  N   UNL d   1      51.943  33.865  52.425  0.00  0.00    -0.127 NA
BRANCH  17  18
ATOM     18  C   UNL d   1      51.202  34.210  52.561  0.00  0.00     0.178 A 
ATOM     19  N   UNL d   1      50.624  34.193  51.975  0.00  0.00    -0.240 N 
ATOM     20  C   UNL d   1      49.891  34.534  52.109  0.00  0.00     0.343 A 
ATOM     21  C   UNL d   1      50.784  33.830  51.250  0.00  0.00     0.105 C 
ATOM     22  N   UNL d   1      49.731  34.897  52.835  0.00  0.00    -0.224 N 
ATOM     23  O   UNL d   1      49.310  34.516  51.518  0.00  0.00    -0.245 OA
ATOM     24  C   UNL d   1      50.302  34.923  53.434  0.00  0.00     0.271 A 
ATOM     25  C   UNL d   1      48.990  35.242  52.970  0.00  0.00     0.107 C 
ATOM     26  C   UNL d   1      51.042  34.573  53.286  0.00  0.00     0.101 A 
ATOM     27  O   UNL d   1      50.144  35.282  54.151  0.00  0.00    -0.266 OA
ENDBRANCH  17  18
ENDBRANCH   2  17
TORSDOF 5
ENDMDL
MODEL 5
REMARK VINA RESULT:      -7.3      2.028      4.145
REMARK  5 active torsions:
REMARK  status: ('A' for Active; 'I' for Inactive)
REMARK    1  A    between atoms: N_7  and  C_4 
REMARK    2  A    between atoms: N_9  and  N_7 
REMARK       I    between atoms: C_8  and  N_9 
REMARK    3  A    between atoms: C_11  and  C_8 
REMARK    4  A    between atoms: C_14  and  C_11 
REMARK    5  A    between atoms: C_15  and  C_11 
ROOT
ATOM      1  C   UNL d   1      53.021  33.027  52.863  0.00  0.00     0.297 C 
ATOM      2  N   UNL d   1      52.270  33.348  52.986  0.00  0.00    -0.104 NA
ATOM      3  O   UNL d   1      53.452  33.229  52.188  0.00  0.00    -0.264 OA
ENDROOT
BRANCH   1   4
ATOM      4  C   UNL d   1      53.339  32.505  53.417  0.00  0.00     0.059 C 
BRANCH   4   5
ATOM      5  C   UNL d   1      53.803  32.791  54.039  0.00  0.00     0.005 A 
ATOM      6  C   UNL d   1      54.560  33.060  53.883  0.00  0.00     0.000 A 
ATOM      7  C   UNL d   1      55.025  33.345  54.493  0.00  0.00     0.000 A 
ATOM      8  C   UNL d   1      54.711  33.352  55.263  0.00  0.00     0.000 A 
ATOM      9  C   UNL d   1      53.954  33.083  55.413  0.00  0.00     0.000 A 
ATOM     10  C   UNL d   1      53.508  32.805  54.802  0.00  0.00     0.000 A 
ENDBRANCH   4   5
BRANCH   4  11
ATOM     11  C   UNL d   1      53.193  31.695  53.348  0.00  0.00     0.005 A 
ATOM     12  C   UNL d   1      52.468  31.402  53.577  0.00  0.00     0.000 A 
ATOM     13  C   UNL d   1      52.315  30.593  53.511  0.00  0.00     0.000 A 
ATOM     14  C   UNL d   1      52.898  30.089  53.214  0.00  0.00     0.000 A 
ATOM     15  C   UNL d   1      53.640  30.404  52.981  0.00  0.00     0.000 A 
ATOM     16  C   UNL d   1      53.775  31.208  53.054  0.00  0.00     0.000 A 
ENDBRANCH   4  11
ENDBRANCH   1   4
BRANCH   2  17
ATOM     17  N   UNL d   1      51.952  33.870  52.432  0.00  0.00    -0.127 NA
BRANCH  17  18
ATOM     18  C   UNL d   1      51.209  34.213  52.566  0.00  0.00     0.178 A 
ATOM     19  N   UNL d   1      50.633  34.195  51.979  0.00  0.00    -0.240 N 
ATOM     20  C   UNL d   1      49.899  34.534  52.112  0.00  0.00     0.343 A 
ATOM     21  C   UNL d   1      50.795  33.833  51.254  0.00  0.00     0.105 C 
ATOM     22  N   UNL d   1      49.736  34.896  52.837  0.00  0.00    -0.224 N 
ATOM     23  O   UNL d   1      49.319  34.515  51.519  0.00  0.00    -0.245 OA
ATOM     24  C   UNL d   1      50.305  34.923  53.437  0.00  0.00     0.271 A 
ATOM     25  C   UNL d   1      48.993  35.239  52.970  0.00  0.00     0.107 C 
ATOM     26  C   UNL d   1      51.047  34.575  53.292  0.00  0.00     0.101 A 
ATOM     27  O   UNL d   1      50.144  35.281  54.155  0.00  0.00    -0.266 OA
ENDBRANCH  17  18
ENDBRANCH   2  17
TORSDOF 5
ENDMDL
MODEL 6
REMARK VINA RESULT:      -7.3      2.793      4.798
REMARK  5 active torsions:
REMARK  status: ('A' for Active; 'I' for Inactive)
REMARK    1  A    between atoms: N_7  and  C_4 
REMARK    2  A    between atoms: N_9  and  N_7 
REMARK       I    between atoms: C_8  and  N_9 
REMARK    3  A    between atoms: C_11  and  C_8 
REMARK    4  A    between atoms: C_14  and  C_11 
REMARK    5  A    between atoms: C_15  and  C_11 
ROOT
ATOM      1  C   UNL d   1      51.401  34.046  52.265  0.00  0.00     0.297 C 
ATOM      2  N   UNL d   1      50.620  34.239  52.452  0.00  0.00    -0.104 NA
ATOM      3  O   UNL d   1      51.670  34.115  51.487  0.00  0.00    -0.264 OA
ENDROOT
BRANCH   1   4
ATOM      4  C   UNL d   1      51.912  33.785  52.858  0.00  0.00     0.059 C 
BRANCH   4   5
ATOM      5  C   UNL d   1      52.293  34.331  53.347  0.00  0.00     0.005 A 
ATOM      6  C   UNL d   1      52.891  34.797  53.038  0.00  0.00     0.000 A 
ATOM      7  C   UNL d   1      53.274  35.340  53.516  0.00  0.00     0.000 A 
ATOM      8  C   UNL d   1      53.040  35.404  54.312  0.00  0.00     0.000 A 
ATOM      9  C   UNL d   1      52.442  34.936  54.615  0.00  0.00     0.000 A 
ATOM     10  C   UNL d   1      52.075  34.406  54.132  0.00  0.00     0.000 A 
ENDBRANCH   4   5
BRANCH   4  11
ATOM     11  C   UNL d   1      52.041  32.976  52.961  0.00  0.00     0.005 A 
ATOM     12  C   UNL d   1      52.742  32.650  52.706  0.00  0.00     0.000 A 
ATOM     13  C   UNL d   1      52.878  31.842  52.805  0.00  0.00     0.000 A 
ATOM     14  C   UNL d   1      52.301  31.371  53.163  0.00  0.00     0.000 A 
ATOM     15  C   UNL d   1      51.583  31.719  53.422  0.00  0.00     0.000 A 
ATOM     16  C   UNL d   1      51.465  32.522  53.315  0.00  0.00     0.000 A 
ENDBRANCH   4  11
ENDBRANCH   1   4
BRANCH   2  17
ATOM     17  N   UNL d   1      50.109  34.501  51.859  0.00  0.00    -0.127 NA
BRANCH  17  18
ATOM     18  C   UNL d   1      49.390  34.859  52.061  0.00  0.00     0.178 A 
ATOM     19  N   UNL d   1      48.750  34.825  51.545  0.00  0.00    -0.240 N 
ATOM     20  C   UNL d   1      48.039  35.179  51.745  0.00  0.00     0.343 A 
ATOM     21  C   UNL d   1      48.826  34.430  50.822  0.00  0.00     0.105 C 
ATOM     22  N   UNL d   1      47.963  35.573  52.467  0.00  0.00    -0.224 N 
ATOM     23  O   UNL d   1      47.396  35.143  51.223  0.00  0.00    -0.245 OA
ATOM     24  C   UNL d   1      48.598  35.617  52.998  0.00  0.00     0.271 A 
ATOM     25  C   UNL d   1      47.244  35.932  52.669  0.00  0.00     0.107 C 
ATOM     26  C   UNL d   1      49.314  35.254  52.784  0.00  0.00     0.101 A 
ATOM     27  O   UNL d   1      48.522  36.007  53.713  0.00  0.00    -0.266 OA
ENDBRANCH  17  18
ENDBRANCH   2  17
TORSDOF 5
ENDMDL
