MODEL 1
REMARK VINA RESULT:      70.4      0.000      0.000
REMARK  7 active torsions:
REMARK  status: ('A' for Active; 'I' for Inactive)
REMARK    1  A    between atoms: C_4  and  C_1 
REMARK    2  A    between atoms: N_5  and  C_2 
REMARK    3  A    between atoms: C_15  and  C_4 
REMARK    4  A    between atoms: C_9  and  C_13 
REMARK    5  A    between atoms: O_21  and  C_9 
REMARK    6  A    between atoms: C_25  and  C_20 
REMARK    7  A    between atoms: C_26  and  O_21 
ROOT
ATOM      1  C   UNL d   1      46.195 -17.616  43.859  0.00  0.00     0.074 A 
ATOM      2  C   UNL d   1      46.026 -16.994  43.334  0.00  0.00     0.070 A 
ATOM      3  C   UNL d   1      45.905 -16.232  43.621  0.00  0.00     0.034 A 
ATOM      4  C   UNL d   1      46.241 -17.467  44.669  0.00  0.00     0.103 A 
ATOM      5  N   UNL d   1      46.119 -16.696  44.954  0.00  0.00    -0.244 NA
ATOM      6  C   UNL d   1      45.952 -16.083  44.431  0.00  0.00     0.083 A 
ATOM      7  C   UNL d   1      45.738 -15.619  43.097  0.00  0.00     0.003 A 
ATOM      8  C   UNL d   1      45.831 -15.321  44.718  0.00  0.00     0.019 A 
ATOM      9  C   UNL d   1      45.617 -14.852  43.384  0.00  0.00     0.000 A 
ATOM     10  C   UNL d   1      45.663 -14.703  44.194  0.00  0.00     0.002 A 
ENDROOT
BRANCH   2  11
ATOM     11  N   UNL d   1      45.978 -17.145  42.512  0.00  0.00    -0.304 N 
ATOM     12  C   UNL d   1      46.587 -17.550  42.131  0.00  0.00     0.080 A 
ATOM     13  C   UNL d   1      46.540 -17.699  41.320  0.00  0.00     0.024 A 
ATOM     14  C   UNL d   1      45.885 -17.443  40.892  0.00  0.00     0.067 A 
ATOM     15  C   UNL d   1      45.273 -17.037  41.272  0.00  0.00     0.024 A 
ATOM     16  C   UNL d   1      45.320 -16.888  42.082  0.00  0.00     0.080 A 
BRANCH  14  17
ATOM     17  C   UNL d   1      45.846 -17.596  40.082  0.00  0.00     0.300 C 
ATOM     18  O   UNL d   1      46.536 -17.723  39.644  0.00  0.00    -0.259 OA
BRANCH  17  19
ATOM     19  O   UNL d   1      45.112 -17.623  39.709  0.00  0.00    -0.271 OA
BRANCH  19  20
ATOM     20  C   UNL d   1      45.037 -17.445  38.907  0.00  0.00     0.126 C 
ATOM     21  C   UNL d   1      44.632 -16.770  38.655  0.00  0.00     0.029 C 
ENDBRANCH  19  20
ENDBRANCH  17  19
ENDBRANCH  14  17
ENDBRANCH   2  11
BRANCH   1  22
ATOM     22  C   UNL d   1      46.316 -18.382  43.572  0.00  0.00     0.198 C 
ATOM     23  O   UNL d   1      46.647 -18.503  42.826  0.00  0.00    -0.286 OA
BRANCH  22  24
ATOM     24  C   UNL d   1      46.106 -19.031  44.033  0.00  0.00     0.039 A 
ATOM     25  C   UNL d   1      46.646 -19.643  44.151  0.00  0.00     0.003 A 
ATOM     26  C   UNL d   1      46.435 -20.292  44.613  0.00  0.00     0.000 A 
ATOM     27  C   UNL d   1      45.684 -20.329  44.955  0.00  0.00     0.000 A 
ATOM     28  C   UNL d   1      45.140 -19.719  44.839  0.00  0.00     0.000 A 
ATOM     29  C   UNL d   1      45.356 -19.066  44.373  0.00  0.00     0.003 A 
ENDBRANCH  22  24
ENDBRANCH   1  22
BRANCH   9  30
ATOM     30  C   UNL d   1      45.448 -14.232  42.855  0.00  0.00     0.000 C 
ATOM     31  C   UNL d   1      45.291 -13.478  43.150  0.00  0.00     0.000 C 
ENDBRANCH   9  30
TORSDOF 7
ENDMDL
