MODEL 1
REMARK VINA RESULT:      59.4      0.000      0.000
REMARK  8 active torsions:
REMARK  status: ('A' for Active; 'I' for Inactive)
REMARK    1  A    between atoms: C_3  and  C_1 
REMARK    2  A    between atoms: N_4  and  C_2 
REMARK    3  A    between atoms: O_21  and  C_3 
REMARK       I    between atoms: C_11  and  N_4 
REMARK    4  A    between atoms: C_6  and  C_7 
REMARK    5  A    between atoms: O_22  and  C_6 
REMARK    6  A    between atoms: C_10  and  C_20 
REMARK    7  A    between atoms: C_19  and  C_11 
REMARK    8  A    between atoms: C_20  and  C_19 
ROOT
ATOM      1  C   UNL d   1     -57.116 -99.340 -43.987  0.00  0.00     0.081 A 
ATOM      2  C   UNL d   1     -57.759 -98.993 -44.369  0.00  0.00     0.090 A 
ATOM      3  C   UNL d   1     -58.521 -99.052 -43.169  0.00  0.00     0.065 A 
ATOM      4  C   UNL d   1     -58.460 -98.849 -43.965  0.00  0.00     0.025 A 
ATOM      5  C   UNL d   1     -57.177 -99.543 -43.190  0.00  0.00     0.007 A 
ATOM      6  C   UNL d   1     -57.880 -99.399 -42.781  0.00  0.00     0.006 A 
ENDROOT
BRANCH   2   7
ATOM      7  N   UNL d   1     -57.693 -98.792 -45.163  0.00  0.00    -0.208 NA
ATOM      8  C   UNL d   1     -58.314 -98.963 -45.685  0.00  0.00     0.279 C 
ATOM      9  O   UNL d   1     -58.995 -99.334 -45.400  0.00  0.00    -0.265 OA
BRANCH   8  10
ATOM     10  C   UNL d   1     -58.250 -98.763 -46.478  0.00  0.00     0.065 C 
BRANCH  10  11
ATOM     11  C   UNL d   1     -58.923 -98.774 -46.963  0.00  0.00     0.030 C 
BRANCH  11  12
ATOM     12  C   UNL d   1     -58.973 -99.310 -47.583  0.00  0.00     0.100 A 
ATOM     13  O   UNL d   1     -59.544 -99.900 -47.674  0.00  0.00    -0.307 OA
ATOM     14  C   UNL d   1     -59.381-100.300 -48.365  0.00  0.00     0.100 A 
ATOM     15  C   UNL d   1     -59.814-100.934 -48.670  0.00  0.00     0.027 C 
ATOM     16  C   UNL d   1     -58.715 -99.971 -48.710  0.00  0.00     0.027 A 
ATOM     17  C   UNL d   1     -58.459 -99.362 -48.236  0.00  0.00     0.027 A 
ENDBRANCH  11  12
ENDBRANCH  10  11
ENDBRANCH   8  10
ENDBRANCH   2   7
BRANCH   1  18
ATOM     18  C   UNL d   1     -56.419 -99.480 -44.402  0.00  0.00     0.297 C 
ATOM     19  O   UNL d   1     -56.255 -99.065 -45.090  0.00  0.00    -0.259 OA
BRANCH  18  20
ATOM     20  O   UNL d   1     -55.881-100.040 -44.124  0.00  0.00    -0.296 OA
ATOM     21  C   UNL d   1     -55.931-100.823 -44.390  0.00  0.00     0.185 C 
ENDBRANCH  18  20
ENDBRANCH   1  18
BRANCH   3  22
ATOM     22  C   UNL d   1     -59.224 -98.909 -42.759  0.00  0.00     0.296 C 
ATOM     23  O   UNL d   1     -59.946 -98.896 -43.159  0.00  0.00    -0.259 OA
BRANCH  22  24
ATOM     24  O   UNL d   1     -59.208 -98.777 -41.943  0.00  0.00    -0.296 OA
ATOM     25  C   UNL d   1     -59.887 -98.895 -41.491  0.00  0.00     0.185 C 
ENDBRANCH  22  24
ENDBRANCH   3  22
TORSDOF 8
ENDMDL
MODEL 2
REMARK VINA RESULT:      60.3      1.800      3.542
REMARK  8 active torsions:
REMARK  status: ('A' for Active; 'I' for Inactive)
REMARK    1  A    between atoms: C_3  and  C_1 
REMARK    2  A    between atoms: N_4  and  C_2 
REMARK    3  A    between atoms: O_21  and  C_3 
REMARK       I    between atoms: C_11  and  N_4 
REMARK    4  A    between atoms: C_6  and  C_7 
REMARK    5  A    between atoms: O_22  and  C_6 
REMARK    6  A    between atoms: C_10  and  C_20 
REMARK    7  A    between atoms: C_19  and  C_11 
REMARK    8  A    between atoms: C_20  and  C_19 
ROOT
ATOM      1  C   UNL d   1     -55.308-100.117 -44.011  0.00  0.00     0.081 A 
ATOM      2  C   UNL d   1     -55.835-100.098 -43.377  0.00  0.00     0.090 A 
ATOM      3  C   UNL d   1     -55.453-101.416 -43.002  0.00  0.00     0.065 A 
ATOM      4  C   UNL d   1     -55.910-100.742 -42.873  0.00  0.00     0.025 A 
ATOM      5  C   UNL d   1     -54.851-100.791 -44.140  0.00  0.00     0.007 A 
ATOM      6  C   UNL d   1     -54.924-101.441 -43.635  0.00  0.00     0.006 A 
ENDROOT
BRANCH   2   7
ATOM      7  N   UNL d   1     -56.289 -99.423 -43.253  0.00  0.00    -0.208 NA
ATOM      8  C   UNL d   1     -57.103 -99.440 -43.406  0.00  0.00     0.279 C 
ATOM      9  O   UNL d   1     -57.452-100.137 -43.683  0.00  0.00    -0.265 OA
BRANCH   8  10
ATOM     10  C   UNL d   1     -57.558 -98.768 -43.283  0.00  0.00     0.065 C 
BRANCH  10  11
ATOM     11  C   UNL d   1     -58.385 -98.819 -43.300  0.00  0.00     0.030 C 
BRANCH  11  12
ATOM     12  C   UNL d   1     -58.776 -98.895 -44.019  0.00  0.00     0.100 A 
ATOM     13  O   UNL d   1     -58.455 -98.756 -44.767  0.00  0.00    -0.307 OA
ATOM     14  C   UNL d   1     -59.038 -98.898 -45.319  0.00  0.00     0.100 A 
ATOM     15  C   UNL d   1     -58.956 -98.826 -46.137  0.00  0.00     0.027 C 
ATOM     16  C   UNL d   1     -59.722 -99.124 -44.928  0.00  0.00     0.027 A 
ATOM     17  C   UNL d   1     -59.569 -99.125 -44.130  0.00  0.00     0.027 A 
ENDBRANCH  11  12
ENDBRANCH  10  11
ENDBRANCH   8  10
ENDBRANCH   2   7
BRANCH   1  18
ATOM     18  C   UNL d   1     -55.242 -99.464 -44.509  0.00  0.00     0.297 C 
ATOM     19  O   UNL d   1     -55.685 -98.790 -44.370  0.00  0.00    -0.259 OA
BRANCH  18  20
ATOM     20  O   UNL d   1     -54.726 -99.490 -45.152  0.00  0.00    -0.296 OA
ATOM     21  C   UNL d   1     -54.980 -99.816 -45.870  0.00  0.00     0.185 C 
ENDBRANCH  18  20
ENDBRANCH   1  18
BRANCH   3  22
ATOM     22  C   UNL d   1     -55.525-102.067 -42.498  0.00  0.00     0.296 C 
ATOM     23  O   UNL d   1     -55.938-102.739 -42.741  0.00  0.00    -0.259 OA
BRANCH  22  24
ATOM     24  O   UNL d   1     -55.183-102.048 -41.746  0.00  0.00    -0.296 OA
ATOM     25  C   UNL d   1     -54.714-102.675 -41.488  0.00  0.00     0.185 C 
ENDBRANCH  22  24
ENDBRANCH   3  22
TORSDOF 8
ENDMDL
