MODEL 1
REMARK VINA RESULT:      54.9      0.000      0.000
REMARK  6 active torsions:
REMARK  status: ('A' for Active; 'I' for Inactive)
REMARK    1  A    between atoms: C_2  and  S_1 
REMARK    2  A    between atoms: N_4  and  S_1 
REMARK    3  A    between atoms: C_9  and  C_17 
REMARK       I    between atoms: N_20  and  C_9 
REMARK    4  A    between atoms: C_18  and  C_25 
REMARK    5  A    between atoms: C_24  and  N_20 
REMARK    6  A    between atoms: C_25  and  C_24 
ROOT
ATOM      1  N   UNL d   1      13.685  12.570  -2.372  0.00  0.00    -0.229 N 
ATOM      2  C   UNL d   1      14.139  12.122  -1.842  0.00  0.00     0.092 A 
ATOM      3  C   UNL d   1      13.693  13.392  -2.320  0.00  0.00     0.092 A 
ATOM      4  C   UNL d   1      14.603  13.326  -1.218  0.00  0.00     0.061 A 
ATOM      5  C   UNL d   1      14.150  13.769  -1.746  0.00  0.00     0.025 A 
ATOM      6  C   UNL d   1      14.596  12.499  -1.268  0.00  0.00     0.025 A 
ENDROOT
BRANCH   1   7
ATOM      7  S   UNL d   1      13.226  12.191  -2.949  0.00  0.00     0.273 S 
ATOM      8  O   UNL d   1      12.770  11.816  -3.521  0.00  0.00    -0.200 OA
ATOM      9  O   UNL d   1      12.820  11.783  -2.358  0.00  0.00    -0.200 OA
BRANCH   7  10
ATOM     10  C   UNL d   1      13.633  12.602  -3.543  0.00  0.00     0.125 A 
ATOM     11  C   UNL d   1      13.551  12.381  -4.333  0.00  0.00     0.142 A 
ATOM     12  C   UNL d   1      13.957  12.789  -4.923  0.00  0.00     0.131 A 
ATOM     13  N   UNL d   1      13.107  11.781  -4.690  0.00  0.00    -0.101 NA
ATOM     14  N   UNL d   1      13.766  12.444  -5.650  0.00  0.00    -0.102 NA
ATOM     15  C   UNL d   1      14.448  13.422  -4.729  0.00  0.00     0.023 A 
ATOM     16  O   UNL d   1      13.245  11.826  -5.510  0.00  0.00    -0.106 OA
ATOM     17  C   UNL d   1      14.534  13.649  -3.932  0.00  0.00     0.002 A 
ATOM     18  C   UNL d   1      14.128  13.241  -3.342  0.00  0.00     0.015 A 
ENDBRANCH   7  10
ENDBRANCH   1   7
BRANCH   4  19
ATOM     19  C   UNL d   1      15.055  13.706  -0.649  0.00  0.00     0.279 C 
ATOM     20  O   UNL d   1      15.490  13.272  -0.111  0.00  0.00    -0.265 OA
ATOM     21  N   UNL d   1      15.073  14.538  -0.617  0.00  0.00    -0.206 NA
BRANCH  21  22
ATOM     22  C   UNL d   1      15.533  14.927  -0.039  0.00  0.00     0.102 C 
BRANCH  22  23
ATOM     23  C   UNL d   1      16.033  15.553  -0.254  0.00  0.00     0.021 C 
BRANCH  23  24
ATOM     24  C   UNL d   1      15.710  16.245  -0.576  0.00  0.00     0.002 A 
ATOM     25  C   UNL d   1      15.602  16.312  -1.385  0.00  0.00     0.000 A 
ATOM     26  C   UNL d   1      15.278  17.004  -1.707  0.00  0.00     0.000 A 
ATOM     27  C   UNL d   1      15.063  17.627  -1.219  0.00  0.00     0.000 A 
ATOM     28  C   UNL d   1      15.171  17.564  -0.397  0.00  0.00     0.000 A 
ATOM     29  C   UNL d   1      15.495  16.872  -0.075  0.00  0.00     0.000 A 
ENDBRANCH  23  24
ENDBRANCH  22  23
ENDBRANCH  21  22
ENDBRANCH   4  19
TORSDOF 6
ENDMDL
MODEL 2
REMARK VINA RESULT:      55.9      2.026      3.792
REMARK  6 active torsions:
REMARK  status: ('A' for Active; 'I' for Inactive)
REMARK    1  A    between atoms: C_2  and  S_1 
REMARK    2  A    between atoms: N_4  and  S_1 
REMARK    3  A    between atoms: C_9  and  C_17 
REMARK       I    between atoms: N_20  and  C_9 
REMARK    4  A    between atoms: C_18  and  C_25 
REMARK    5  A    between atoms: C_24  and  N_20 
REMARK    6  A    between atoms: C_25  and  C_24 
ROOT
ATOM      1  N   UNL d   1      13.588  12.697  -1.966  0.00  0.00    -0.229 N 
ATOM      2  C   UNL d   1      13.628  13.524  -1.937  0.00  0.00     0.092 A 
ATOM      3  C   UNL d   1      13.484  12.320  -2.691  0.00  0.00     0.092 A 
ATOM      4  C   UNL d   1      13.460  13.585  -3.359  0.00  0.00     0.061 A 
ATOM      5  C   UNL d   1      13.421  12.762  -3.385  0.00  0.00     0.025 A 
ATOM      6  C   UNL d   1      13.565  13.966  -2.631  0.00  0.00     0.025 A 
ENDROOT
BRANCH   1   7
ATOM      7  S   UNL d   1      13.651  12.253  -1.269  0.00  0.00     0.273 S 
ATOM      8  O   UNL d   1      13.714  11.812  -0.578  0.00  0.00    -0.200 OA
ATOM      9  O   UNL d   1      13.020  11.780  -1.512  0.00  0.00    -0.200 OA
BRANCH   7  10
ATOM     10  C   UNL d   1      14.285  12.727  -1.024  0.00  0.00     0.125 A 
ATOM     11  C   UNL d   1      15.062  12.472  -1.134  0.00  0.00     0.142 A 
ATOM     12  C   UNL d   1      15.692  12.944  -0.891  0.00  0.00     0.131 A 
ATOM     13  N   UNL d   1      15.369  11.779  -1.467  0.00  0.00    -0.101 NA
ATOM     14  N   UNL d   1      16.394  12.547  -1.072  0.00  0.00    -0.102 NA
ATOM     15  C   UNL d   1      15.552  13.675  -0.536  0.00  0.00     0.023 A 
ATOM     16  O   UNL d   1      16.199  11.832  -1.425  0.00  0.00    -0.106 OA
ATOM     17  C   UNL d   1      14.770  13.936  -0.423  0.00  0.00     0.002 A 
ATOM     18  C   UNL d   1      14.140  13.464  -0.666  0.00  0.00     0.015 A 
ENDBRANCH   7  10
ENDBRANCH   1   7
BRANCH   4  19
ATOM     19  C   UNL d   1      13.397  14.019  -4.052  0.00  0.00     0.279 C 
ATOM     20  O   UNL d   1      12.783  13.879  -4.572  0.00  0.00    -0.265 OA
ATOM     21  N   UNL d   1      13.959  14.606  -4.229  0.00  0.00    -0.206 NA
BRANCH  21  22
ATOM     22  C   UNL d   1      13.897  15.050  -4.934  0.00  0.00     0.102 C 
BRANCH  22  23
ATOM     23  C   UNL d   1      14.564  15.427  -5.252  0.00  0.00     0.021 C 
BRANCH  23  24
ATOM     24  C   UNL d   1      14.594  16.255  -5.280  0.00  0.00     0.002 A 
ATOM     25  C   UNL d   1      15.000  16.672  -4.704  0.00  0.00     0.000 A 
ATOM     26  C   UNL d   1      15.030  17.500  -4.733  0.00  0.00     0.000 A 
ATOM     27  C   UNL d   1      14.654  17.909  -5.337  0.00  0.00     0.000 A 
ATOM     28  C   UNL d   1      14.240  17.488  -5.924  0.00  0.00     0.000 A 
ATOM     29  C   UNL d   1      14.211  16.660  -5.896  0.00  0.00     0.000 A 
ENDBRANCH  23  24
ENDBRANCH  22  23
ENDBRANCH  21  22
ENDBRANCH   4  19
TORSDOF 6
ENDMDL
MODEL 3
REMARK VINA RESULT:      56.8      2.799      4.526
REMARK  6 active torsions:
REMARK  status: ('A' for Active; 'I' for Inactive)
REMARK    1  A    between atoms: C_2  and  S_1 
REMARK    2  A    between atoms: N_4  and  S_1 
REMARK    3  A    between atoms: C_9  and  C_17 
REMARK       I    between atoms: N_20  and  C_9 
REMARK    4  A    between atoms: C_18  and  C_25 
REMARK    5  A    between atoms: C_24  and  N_20 
REMARK    6  A    between atoms: C_25  and  C_24 
ROOT
ATOM      1  N   UNL d   1      13.542  15.112  -5.096  0.00  0.00    -0.229 N 
ATOM      2  C   UNL d   1      13.179  15.006  -4.359  0.00  0.00     0.092 A 
ATOM      3  C   UNL d   1      13.852  14.460  -5.494  0.00  0.00     0.092 A 
ATOM      4  C   UNL d   1      13.443  13.599  -4.428  0.00  0.00     0.061 A 
ATOM      5  C   UNL d   1      13.803  13.707  -5.161  0.00  0.00     0.025 A 
ATOM      6  C   UNL d   1      13.130  14.252  -4.026  0.00  0.00     0.025 A 
ENDROOT
BRANCH   1   7
ATOM      7  S   UNL d   1      13.591  15.869  -5.431  0.00  0.00     0.273 S 
ATOM      8  O   UNL d   1      13.640  16.619  -5.762  0.00  0.00    -0.200 OA
ATOM      9  O   UNL d   1      12.769  15.931  -5.410  0.00  0.00    -0.200 OA
BRANCH   7  10
ATOM     10  C   UNL d   1      14.418  15.806  -5.451  0.00  0.00     0.125 A 
ATOM     11  C   UNL d   1      14.883  16.279  -4.962  0.00  0.00     0.142 A 
ATOM     12  C   UNL d   1      15.705  16.216  -4.982  0.00  0.00     0.131 A 
ATOM     13  N   UNL d   1      14.680  16.856  -4.404  0.00  0.00    -0.101 NA
ATOM     14  N   UNL d   1      16.016  16.754  -4.437  0.00  0.00    -0.102 NA
ATOM     15  C   UNL d   1      16.068  15.680  -5.492  0.00  0.00     0.023 A 
ATOM     16  O   UNL d   1      15.390  17.147  -4.081  0.00  0.00    -0.106 OA
ATOM     17  C   UNL d   1      15.602  15.201  -5.988  0.00  0.00     0.002 A 
ATOM     18  C   UNL d   1      14.781  15.263  -5.967  0.00  0.00     0.015 A 
ENDBRANCH   7  10
ENDBRANCH   1   7
BRANCH   4  19
ATOM     19  C   UNL d   1      13.397  12.848  -4.102  0.00  0.00     0.279 C 
ATOM     20  O   UNL d   1      13.154  12.214  -4.557  0.00  0.00    -0.265 OA
ATOM     21  N   UNL d   1      13.599  12.726  -3.304  0.00  0.00    -0.206 NA
BRANCH  21  22
ATOM     22  C   UNL d   1      13.553  11.962  -2.969  0.00  0.00     0.102 C 
BRANCH  22  23
ATOM     23  C   UNL d   1      13.248  11.858  -2.205  0.00  0.00     0.021 C 
BRANCH  23  24
ATOM     24  C   UNL d   1      13.765  11.832  -1.557  0.00  0.00     0.002 A 
ATOM     25  C   UNL d   1      13.467  11.805  -0.794  0.00  0.00     0.000 A 
ATOM     26  C   UNL d   1      13.984  11.779  -0.146  0.00  0.00     0.000 A 
ATOM     27  C   UNL d   1      14.796  11.780  -0.262  0.00  0.00     0.000 A 
ATOM     28  C   UNL d   1      15.102  11.808  -1.036  0.00  0.00     0.000 A 
ATOM     29  C   UNL d   1      14.585  11.833  -1.684  0.00  0.00     0.000 A 
ENDBRANCH  23  24
ENDBRANCH  22  23
ENDBRANCH  21  22
ENDBRANCH   4  19
TORSDOF 6
ENDMDL
MODEL 4
REMARK VINA RESULT:      57.1      3.012      4.563
REMARK  6 active torsions:
REMARK  status: ('A' for Active; 'I' for Inactive)
REMARK    1  A    between atoms: C_2  and  S_1 
REMARK    2  A    between atoms: N_4  and  S_1 
REMARK    3  A    between atoms: C_9  and  C_17 
REMARK       I    between atoms: N_20  and  C_9 
REMARK    4  A    between atoms: C_18  and  C_25 
REMARK    5  A    between atoms: C_24  and  N_20 
REMARK    6  A    between atoms: C_25  and  C_24 
ROOT
ATOM      1  N   UNL d   1      14.818  15.601  -1.426  0.00  0.00    -0.229 N 
ATOM      2  C   UNL d   1      15.253  16.306  -1.418  0.00  0.00     0.092 A 
ATOM      3  C   UNL d   1      14.545  15.300  -2.143  0.00  0.00     0.092 A 
ATOM      4  C   UNL d   1      15.135  16.399  -2.843  0.00  0.00     0.061 A 
ATOM      5  C   UNL d   1      14.703  15.698  -2.848  0.00  0.00     0.025 A 
ATOM      6  C   UNL d   1      15.411  16.704  -2.123  0.00  0.00     0.025 A 
ENDROOT
BRANCH   1   7
ATOM      7  S   UNL d   1      14.659  15.201  -0.717  0.00  0.00     0.273 S 
ATOM      8  O   UNL d   1      14.502  14.805  -0.014  0.00  0.00    -0.200 OA
ATOM      9  O   UNL d   1      14.666  15.919  -0.311  0.00  0.00    -0.200 OA
BRANCH   7  10
ATOM     10  C   UNL d   1      14.652  14.480  -1.125  0.00  0.00     0.125 A 
ATOM     11  C   UNL d   1      14.995  13.809  -0.790  0.00  0.00     0.142 A 
ATOM     12  C   UNL d   1      14.988  13.092  -1.196  0.00  0.00     0.131 A 
ATOM     13  N   UNL d   1      15.380  13.694  -0.066  0.00  0.00    -0.101 NA
ATOM     14  N   UNL d   1      15.368  12.528  -0.726  0.00  0.00    -0.102 NA
ATOM     15  C   UNL d   1      14.638  13.039  -1.941  0.00  0.00     0.023 A 
ATOM     16  O   UNL d   1      15.609  12.895  -0.032  0.00  0.00    -0.106 OA
ATOM     17  C   UNL d   1      14.291  13.713  -2.283  0.00  0.00     0.002 A 
ATOM     18  C   UNL d   1      14.298  14.431  -1.877  0.00  0.00     0.015 A 
ENDBRANCH   7  10
ENDBRANCH   1   7
BRANCH   4  19
ATOM     19  C   UNL d   1      15.289  16.790  -3.547  0.00  0.00     0.279 C 
ATOM     20  O   UNL d   1      15.985  16.653  -3.951  0.00  0.00    -0.265 OA
ATOM     21  N   UNL d   1      14.735  17.330  -3.855  0.00  0.00    -0.206 NA
BRANCH  21  22
ATOM     22  C   UNL d   1      14.889  17.729  -4.571  0.00  0.00     0.102 C 
BRANCH  22  23
ATOM     23  C   UNL d   1      14.271  17.892  -5.102  0.00  0.00     0.021 C 
BRANCH  23  24
ATOM     24  C   UNL d   1      14.237  18.630  -5.478  0.00  0.00     0.002 A 
ATOM     25  C   UNL d   1      13.637  18.792  -6.012  0.00  0.00     0.000 A 
ATOM     26  C   UNL d   1      13.602  19.530  -6.388  0.00  0.00     0.000 A 
ATOM     27  C   UNL d   1      14.167  20.104  -6.229  0.00  0.00     0.000 A 
ATOM     28  C   UNL d   1      14.778  19.942  -5.687  0.00  0.00     0.000 A 
ATOM     29  C   UNL d   1      14.813  19.204  -5.311  0.00  0.00     0.000 A 
ENDBRANCH  23  24
ENDBRANCH  22  23
ENDBRANCH  21  22
ENDBRANCH   4  19
TORSDOF 6
ENDMDL
MODEL 5
REMARK VINA RESULT:      57.4      1.864      2.986
REMARK  6 active torsions:
REMARK  status: ('A' for Active; 'I' for Inactive)
REMARK    1  A    between atoms: C_2  and  S_1 
REMARK    2  A    between atoms: N_4  and  S_1 
REMARK    3  A    between atoms: C_9  and  C_17 
REMARK       I    between atoms: N_20  and  C_9 
REMARK    4  A    between atoms: C_18  and  C_25 
REMARK    5  A    between atoms: C_24  and  N_20 
REMARK    6  A    between atoms: C_25  and  C_24 
ROOT
ATOM      1  N   UNL d   1      14.185  13.646  -0.603  0.00  0.00    -0.229 N 
ATOM      2  C   UNL d   1      14.046  13.967  -1.355  0.00  0.00     0.092 A 
ATOM      3  C   UNL d   1      14.623  14.074  -0.053  0.00  0.00     0.092 A 
ATOM      4  C   UNL d   1      14.785  15.141  -0.991  0.00  0.00     0.061 A 
ATOM      5  C   UNL d   1      14.921  14.818  -0.246  0.00  0.00     0.025 A 
ATOM      6  C   UNL d   1      14.345  14.712  -1.548  0.00  0.00     0.025 A 
ENDROOT
BRANCH   1   7
ATOM      7  S   UNL d   1      13.885  12.897  -0.409  0.00  0.00     0.273 S 
ATOM      8  O   UNL d   1      13.588  12.156  -0.217  0.00  0.00    -0.200 OA
ATOM      9  O   UNL d   1      13.254  13.253  -0.015  0.00  0.00    -0.200 OA
BRANCH   7  10
ATOM     10  C   UNL d   1      14.520  12.540  -0.806  0.00  0.00     0.125 A 
ATOM     11  C   UNL d   1      14.441  12.310  -1.594  0.00  0.00     0.142 A 
ATOM     12  C   UNL d   1      15.071  11.955  -1.988  0.00  0.00     0.131 A 
ATOM     13  N   UNL d   1      13.804  12.366  -2.120  0.00  0.00    -0.101 NA
ATOM     14  N   UNL d   1      14.829  11.788  -2.761  0.00  0.00    -0.102 NA
ATOM     15  C   UNL d   1      15.787  11.827  -1.599  0.00  0.00     0.023 A 
ATOM     16  O   UNL d   1      14.052  12.039  -2.844  0.00  0.00    -0.106 OA
ATOM     17  C   UNL d   1      15.871  12.058  -0.803  0.00  0.00     0.002 A 
ATOM     18  C   UNL d   1      15.240  12.413  -0.409  0.00  0.00     0.015 A 
ENDBRANCH   7  10
ENDBRANCH   1   7
BRANCH   4  19
ATOM     19  C   UNL d   1      15.084  15.881  -1.178  0.00  0.00     0.279 C 
ATOM     20  O   UNL d   1      15.420  16.349  -0.598  0.00  0.00    -0.265 OA
ATOM     21  N   UNL d   1      15.046  16.161  -1.961  0.00  0.00    -0.206 NA
BRANCH  21  22
ATOM     22  C   UNL d   1      15.350  16.915  -2.153  0.00  0.00     0.102 C 
BRANCH  22  23
ATOM     23  C   UNL d   1      14.916  17.430  -2.638  0.00  0.00     0.021 C 
BRANCH  23  24
ATOM     24  C   UNL d   1      15.065  17.451  -3.453  0.00  0.00     0.002 A 
ATOM     25  C   UNL d   1      15.324  16.778  -3.841  0.00  0.00     0.000 A 
ATOM     26  C   UNL d   1      15.474  16.799  -4.656  0.00  0.00     0.000 A 
ATOM     27  C   UNL d   1      15.363  17.492  -5.081  0.00  0.00     0.000 A 
ATOM     28  C   UNL d   1      15.099  18.177  -4.690  0.00  0.00     0.000 A 
ATOM     29  C   UNL d   1      14.950  18.157  -3.875  0.00  0.00     0.000 A 
ENDBRANCH  23  24
ENDBRANCH  22  23
ENDBRANCH  21  22
ENDBRANCH   4  19
TORSDOF 6
ENDMDL
