MODEL 1
REMARK VINA RESULT:      84.5      0.000      0.000
REMARK  3 active torsions:
REMARK  status: ('A' for Active; 'I' for Inactive)
REMARK    1  A    between atoms: C_16  and  N_3 
REMARK    2  A    between atoms: C_10  and  C_5 
REMARK    3  A    between atoms: C_26  and  C_16 
ROOT
ATOM      1  C   UNL d   1     -56.751 -99.106 -44.399  0.00  0.00     0.083 A 
ATOM      2  C   UNL d   1     -57.153 -98.937 -45.097  0.00  0.00     0.161 A 
ATOM      3  N   UNL d   1     -55.856 -99.072 -45.400  0.00  0.00    -0.268 N 
ATOM      4  C   UNL d   1     -56.604 -98.915 -45.720  0.00  0.00     0.288 A 
ATOM      5  C   UNL d   1     -55.947 -99.190 -44.582  0.00  0.00     0.072 A 
ATOM      6  C   UNL d   1     -57.159 -99.163 -43.685  0.00  0.00     0.201 A 
ATOM      7  O   UNL d   1     -57.976 -98.823 -45.081  0.00  0.00    -0.302 OA
ATOM      8  C   UNL d   1     -57.976 -99.049 -43.673  0.00  0.00     0.062 A 
ATOM      9  C   UNL d   1     -58.381 -98.880 -44.369  0.00  0.00     0.103 A 
ATOM     10  O   UNL d   1     -56.768 -98.766 -46.508  0.00  0.00    -0.264 OA
ATOM     11  O   UNL d   1     -56.758 -99.331 -42.987  0.00  0.00    -0.286 OA
ATOM     12  C   UNL d   1     -58.388 -99.105 -42.957  0.00  0.00     0.012 A 
ATOM     13  C   UNL d   1     -59.207 -98.767 -44.348  0.00  0.00     0.025 A 
ATOM     14  C   UNL d   1     -59.201 -98.993 -42.938  0.00  0.00     0.035 A 
ATOM     15  C   UNL d   1     -59.612 -98.823 -43.636  0.00  0.00     0.009 A 
ATOM     16 BR   UNL d   1     -59.608 -99.049 -42.230  0.00  0.00    -0.049 Br
ENDROOT
BRANCH   5  17
ATOM     17  C   UNL d   1     -55.542 -99.359 -43.886  0.00  0.00     0.019 A 
ATOM     18  C   UNL d   1     -55.550-100.123 -43.570  0.00  0.00     0.031 A 
ATOM     19  C   UNL d   1     -55.144-100.288 -42.874  0.00  0.00     0.140 A 
ATOM     20  F   UNL d   1     -55.155-101.050 -42.565  0.00  0.00    -0.204 F 
ATOM     21  C   UNL d   1     -54.722 -99.687 -42.483  0.00  0.00     0.030 A 
ATOM     22  C   UNL d   1     -54.714 -98.922 -42.799  0.00  0.00     0.002 A 
ATOM     23  C   UNL d   1     -55.126 -98.760 -43.503  0.00  0.00     0.002 A 
ENDBRANCH   5  17
BRANCH   3  24
ATOM     24  C   UNL d   1     -55.147 -99.106 -45.817  0.00  0.00     0.129 C 
BRANCH  24  25
ATOM     25  C   UNL d   1     -54.767 -99.828 -45.920  0.00  0.00     0.253 C 
ATOM     26  O   UNL d   1     -54.711-100.161 -46.670  0.00  0.00    -0.281 OA
ENDBRANCH  24  25
ENDBRANCH   3  24
TORSDOF 3
ENDMDL
