MODEL 1
REMARK VINA RESULT:      -8.9      0.000      0.000
REMARK  3 active torsions:
REMARK  status: ('A' for Active; 'I' for Inactive)
REMARK    1  A    between atoms: N_9  and  C_5 
REMARK    2  A    between atoms: C_12  and  N_9 
REMARK    3  A    between atoms: C_13  and  C_12 
ROOT
ATOM      1  C   UNL d   1      52.882  31.980  53.112  0.00  0.00     0.153 A 
ATOM      2  O   UNL d   1      52.367  31.367  52.926  0.00  0.00    -0.302 OA
ATOM      3  C   UNL d   1      53.531  31.660  53.509  0.00  0.00     0.111 A 
ATOM      4  C   UNL d   1      53.411  30.841  53.566  0.00  0.00     0.043 A 
ATOM      5  C   UNL d   1      52.843  32.797  52.970  0.00  0.00     0.189 A 
ATOM      6  C   UNL d   1      52.697  30.664  53.208  0.00  0.00     0.102 A 
ATOM      7  N   UNL d   1      53.455  33.288  53.226  0.00  0.00    -0.203 NA
ATOM      8  N   UNL d   1      54.136  32.158  53.761  0.00  0.00    -0.222 NA
ATOM      9  C   UNL d   1      54.104  32.967  53.623  0.00  0.00     0.201 A 
ATOM     10  C   UNL d   1      53.870  30.252  53.901  0.00  0.00     0.004 A 
ATOM     11  C   UNL d   1      52.437  29.883  53.184  0.00  0.00     0.025 A 
ATOM     12  C   UNL d   1      53.610  29.471  53.878  0.00  0.00     0.000 A 
ATOM     13  C   UNL d   1      52.893  29.285  53.519  0.00  0.00     0.002 A 
ENDROOT
BRANCH   5  14
ATOM     14  N   UNL d   1      52.190  33.118  52.571  0.00  0.00    -0.222 NA
BRANCH  14  15
ATOM     15  C   UNL d   1      51.943  33.884  52.748  0.00  0.00     0.120 C 
BRANCH  15  16
ATOM     16  C   UNL d   1      51.189  34.128  52.520  0.00  0.00     0.101 A 
ATOM     17  N   UNL d   1      50.987  34.154  51.721  0.00  0.00    -0.242 NA
ATOM     18  C   UNL d   1      50.232  34.398  51.482  0.00  0.00     0.099 A 
ATOM     19  C   UNL d   1      49.675  34.619  52.056  0.00  0.00     0.021 A 
ATOM     20  C   UNL d   1      49.877  34.594  52.855  0.00  0.00     0.003 A 
ATOM     21  C   UNL d   1      50.635  34.348  53.086  0.00  0.00     0.021 A 
ENDBRANCH  15  16
ENDBRANCH  14  15
ENDBRANCH   5  14
TORSDOF 3
ENDMDL
MODEL 2
REMARK VINA RESULT:      -8.2      1.560      2.579
REMARK  3 active torsions:
REMARK  status: ('A' for Active; 'I' for Inactive)
REMARK    1  A    between atoms: N_9  and  C_5 
REMARK    2  A    between atoms: C_12  and  N_9 
REMARK    3  A    between atoms: C_13  and  C_12 
ROOT
ATOM      1  C   UNL d   1      52.660  33.446  53.592  0.00  0.00     0.153 A 
ATOM      2  O   UNL d   1      52.823  34.096  54.068  0.00  0.00    -0.302 OA
ATOM      3  C   UNL d   1      53.264  32.893  53.698  0.00  0.00     0.111 A 
ATOM      4  C   UNL d   1      53.801  33.209  54.245  0.00  0.00     0.043 A 
ATOM      5  C   UNL d   1      52.036  33.285  53.070  0.00  0.00     0.189 A 
ATOM      6  C   UNL d   1      53.528  33.947  54.470  0.00  0.00     0.102 A 
ATOM      7  N   UNL d   1      52.019  32.570  52.658  0.00  0.00    -0.203 NA
ATOM      8  N   UNL d   1      53.239  32.183  53.282  0.00  0.00    -0.222 NA
ATOM      9  C   UNL d   1      52.623  32.017  52.764  0.00  0.00     0.201 A 
ATOM     10  C   UNL d   1      54.496  32.906  54.553  0.00  0.00     0.004 A 
ATOM     11  C   UNL d   1      53.959  34.390  55.015  0.00  0.00     0.025 A 
ATOM     12  C   UNL d   1      54.927  33.349  55.098  0.00  0.00     0.000 A 
ATOM     13  C   UNL d   1      54.658  34.092  55.330  0.00  0.00     0.002 A 
ENDROOT
BRANCH   5  14
ATOM     14  N   UNL d   1      51.429  33.841  52.965  0.00  0.00    -0.222 NA
BRANCH  14  15
ATOM     15  C   UNL d   1      50.703  33.597  52.661  0.00  0.00     0.120 C 
BRANCH  15  16
ATOM     16  C   UNL d   1      50.108  34.155  52.538  0.00  0.00     0.101 A 
ATOM     17  N   UNL d   1      49.844  34.623  53.165  0.00  0.00    -0.242 NA
ATOM     18  C   UNL d   1      49.247  35.186  53.050  0.00  0.00     0.099 A 
ATOM     19  C   UNL d   1      48.912  35.278  52.297  0.00  0.00     0.021 A 
ATOM     20  C   UNL d   1      49.176  34.810  51.670  0.00  0.00     0.003 A 
ATOM     21  C   UNL d   1      49.774  34.248  51.793  0.00  0.00     0.021 A 
ENDBRANCH  15  16
ENDBRANCH  14  15
ENDBRANCH   5  14
TORSDOF 3
ENDMDL
MODEL 3
REMARK VINA RESULT:      -7.9      1.570      4.368
REMARK  3 active torsions:
REMARK  status: ('A' for Active; 'I' for Inactive)
REMARK    1  A    between atoms: N_9  and  C_5 
REMARK    2  A    between atoms: C_12  and  N_9 
REMARK    3  A    between atoms: C_13  and  C_12 
ROOT
ATOM      1  C   UNL d   1      52.811  33.264  53.532  0.00  0.00     0.153 A 
ATOM      2  O   UNL d   1      53.312  33.364  54.177  0.00  0.00    -0.302 OA
ATOM      3  C   UNL d   1      52.460  33.992  53.366  0.00  0.00     0.111 A 
ATOM      4  C   UNL d   1      52.749  34.542  53.914  0.00  0.00     0.043 A 
ATOM      5  C   UNL d   1      52.628  32.599  53.071  0.00  0.00     0.189 A 
ATOM      6  C   UNL d   1      53.271  34.154  54.411  0.00  0.00     0.102 A 
ATOM      7  N   UNL d   1      52.094  32.667  52.446  0.00  0.00    -0.203 NA
ATOM      8  N   UNL d   1      51.928  34.050  52.739  0.00  0.00    -0.222 NA
ATOM      9  C   UNL d   1      51.743  33.395  52.280  0.00  0.00     0.201 A 
ATOM     10  C   UNL d   1      52.593  35.340  54.010  0.00  0.00     0.004 A 
ATOM     11  C   UNL d   1      53.645  34.572  55.015  0.00  0.00     0.025 A 
ATOM     12  C   UNL d   1      52.966  35.758  54.614  0.00  0.00     0.000 A 
ATOM     13  C   UNL d   1      53.493  35.374  55.117  0.00  0.00     0.002 A 
ENDROOT
BRANCH   5  14
ATOM     14  N   UNL d   1      52.982  31.868  53.240  0.00  0.00    -0.222 NA
BRANCH  14  15
ATOM     15  C   UNL d   1      52.649  31.177  52.938  0.00  0.00     0.120 C 
BRANCH  15  16
ATOM     16  C   UNL d   1      52.845  30.451  53.277  0.00  0.00     0.101 A 
ATOM     17  N   UNL d   1      52.268  29.869  53.371  0.00  0.00    -0.242 NA
ATOM     18  C   UNL d   1      52.457  29.137  53.711  0.00  0.00     0.099 A 
ATOM     19  C   UNL d   1      53.235  28.991  53.958  0.00  0.00     0.021 A 
ATOM     20  C   UNL d   1      53.812  29.573  53.864  0.00  0.00     0.003 A 
ATOM     21  C   UNL d   1      53.616  30.303  53.523  0.00  0.00     0.021 A 
ENDBRANCH  15  16
ENDBRANCH  14  15
ENDBRANCH   5  14
TORSDOF 3
ENDMDL
MODEL 4
REMARK VINA RESULT:      -7.4      1.098      4.295
REMARK  3 active torsions:
REMARK  status: ('A' for Active; 'I' for Inactive)
REMARK    1  A    between atoms: N_9  and  C_5 
REMARK    2  A    between atoms: C_12  and  N_9 
REMARK    3  A    between atoms: C_13  and  C_12 
ROOT
ATOM      1  C   UNL d   1      52.704  32.644  53.306  0.00  0.00     0.153 A 
ATOM      2  O   UNL d   1      51.899  32.560  53.163  0.00  0.00    -0.302 OA
ATOM      3  C   UNL d   1      52.879  33.451  53.322  0.00  0.00     0.111 A 
ATOM      4  C   UNL d   1      52.173  33.864  53.187  0.00  0.00     0.043 A 
ATOM      5  C   UNL d   1      53.306  32.086  53.425  0.00  0.00     0.189 A 
ATOM      6  C   UNL d   1      51.573  33.315  53.090  0.00  0.00     0.102 A 
ATOM      7  N   UNL d   1      54.080  32.339  53.559  0.00  0.00    -0.203 NA
ATOM      8  N   UNL d   1      53.654  33.693  53.456  0.00  0.00    -0.222 NA
ATOM      9  C   UNL d   1      54.254  33.145  53.574  0.00  0.00     0.201 A 
ATOM     10  C   UNL d   1      52.018  34.666  53.144  0.00  0.00     0.004 A 
ATOM     11  C   UNL d   1      50.804  33.574  52.947  0.00  0.00     0.025 A 
ATOM     12  C   UNL d   1      51.249  34.926  53.001  0.00  0.00     0.000 A 
ATOM     13  C   UNL d   1      50.641  34.380  52.902  0.00  0.00     0.002 A 
ENDROOT
BRANCH   5  14
ATOM     14  N   UNL d   1      53.129  31.275  53.409  0.00  0.00    -0.222 NA
BRANCH  14  15
ATOM     15  C   UNL d   1      53.686  30.733  53.684  0.00  0.00     0.120 C 
BRANCH  15  16
ATOM     16  C   UNL d   1      53.440  29.976  53.902  0.00  0.00     0.101 A 
ATOM     17  N   UNL d   1      52.943  29.544  53.405  0.00  0.00    -0.242 NA
ATOM     18  C   UNL d   1      52.691  28.783  53.615  0.00  0.00     0.099 A 
ATOM     19  C   UNL d   1      52.944  28.455  54.334  0.00  0.00     0.021 A 
ATOM     20  C   UNL d   1      53.441  28.886  54.831  0.00  0.00     0.003 A 
ATOM     21  C   UNL d   1      53.689  29.648  54.613  0.00  0.00     0.021 A 
ENDBRANCH  15  16
ENDBRANCH  14  15
ENDBRANCH   5  14
TORSDOF 3
ENDMDL
MODEL 5
REMARK VINA RESULT:      -6.8      1.710      2.409
REMARK  3 active torsions:
REMARK  status: ('A' for Active; 'I' for Inactive)
REMARK    1  A    between atoms: N_9  and  C_5 
REMARK    2  A    between atoms: C_12  and  N_9 
REMARK    3  A    between atoms: C_13  and  C_12 
ROOT
ATOM      1  C   UNL d   1      53.174  31.028  53.783  0.00  0.00     0.153 A 
ATOM      2  O   UNL d   1      53.327  30.867  54.575  0.00  0.00    -0.302 OA
ATOM      3  C   UNL d   1      53.100  30.308  53.385  0.00  0.00     0.111 A 
ATOM      4  C   UNL d   1      53.209  29.702  53.939  0.00  0.00     0.043 A 
ATOM      5  C   UNL d   1      53.092  31.742  53.369  0.00  0.00     0.189 A 
ATOM      6  C   UNL d   1      53.348  30.047  54.668  0.00  0.00     0.102 A 
ATOM      7  N   UNL d   1      52.936  31.732  52.559  0.00  0.00    -0.203 NA
ATOM      8  N   UNL d   1      52.945  30.308  52.576  0.00  0.00    -0.222 NA
ATOM      9  C   UNL d   1      52.862  31.012  52.161  0.00  0.00     0.201 A 
ATOM     10  C   UNL d   1      53.196  28.887  53.856  0.00  0.00     0.004 A 
ATOM     11  C   UNL d   1      53.476  29.569  55.327  0.00  0.00     0.025 A 
ATOM     12  C   UNL d   1      53.324  28.409  54.514  0.00  0.00     0.000 A 
ATOM     13  C   UNL d   1      53.464  28.749  55.251  0.00  0.00     0.002 A 
ENDROOT
BRANCH   5  14
ATOM     14  N   UNL d   1      53.166  32.464  53.770  0.00  0.00    -0.222 NA
BRANCH  14  15
ATOM     15  C   UNL d   1      53.206  33.166  53.339  0.00  0.00     0.120 C 
BRANCH  15  16
ATOM     16  C   UNL d   1      53.156  33.888  53.735  0.00  0.00     0.101 A 
ATOM     17  N   UNL d   1      53.558  33.997  54.448  0.00  0.00    -0.242 NA
ATOM     18  C   UNL d   1      53.514  34.719  54.852  0.00  0.00     0.099 A 
ATOM     19  C   UNL d   1      53.060  35.337  54.535  0.00  0.00     0.021 A 
ATOM     20  C   UNL d   1      52.658  35.227  53.823  0.00  0.00     0.003 A 
ATOM     21  C   UNL d   1      52.707  34.502  53.424  0.00  0.00     0.021 A 
ENDBRANCH  15  16
ENDBRANCH  14  15
ENDBRANCH   5  14
TORSDOF 3
ENDMDL
MODEL 6
REMARK VINA RESULT:      -6.4      9.867     10.533
REMARK  3 active torsions:
REMARK  status: ('A' for Active; 'I' for Inactive)
REMARK    1  A    between atoms: N_9  and  C_5 
REMARK    2  A    between atoms: C_12  and  N_9 
REMARK    3  A    between atoms: C_13  and  C_12 
ROOT
ATOM      1  C   UNL d   1      44.955  29.260  58.617  0.00  0.00     0.153 A 
ATOM      2  O   UNL d   1      45.107  28.505  58.903  0.00  0.00    -0.302 OA
ATOM      3  C   UNL d   1      44.928  29.222  57.793  0.00  0.00     0.111 A 
ATOM      4  C   UNL d   1      45.065  28.435  57.573  0.00  0.00     0.043 A 
ATOM      5  C   UNL d   1      44.836  29.984  59.004  0.00  0.00     0.189 A 
ATOM      6  C   UNL d   1      45.175  27.997  58.256  0.00  0.00     0.102 A 
ATOM      7  N   UNL d   1      44.690  30.667  58.563  0.00  0.00    -0.203 NA
ATOM      8  N   UNL d   1      44.782  29.908  57.361  0.00  0.00    -0.222 NA
ATOM      9  C   UNL d   1      44.663  30.628  57.739  0.00  0.00     0.201 A 
ATOM     10  C   UNL d   1      45.100  28.080  56.836  0.00  0.00     0.004 A 
ATOM     11  C   UNL d   1      45.323  27.188  58.200  0.00  0.00     0.025 A 
ATOM     12  C   UNL d   1      45.249  27.271  56.781  0.00  0.00     0.000 A 
ATOM     13  C   UNL d   1      45.361  26.824  57.463  0.00  0.00     0.002 A 
ENDROOT
BRANCH   5  14
ATOM     14  N   UNL d   1      44.863  30.022  59.832  0.00  0.00    -0.222 NA
BRANCH  14  15
ATOM     15  C   UNL d   1      44.662  30.724  60.214  0.00  0.00     0.120 C 
BRANCH  15  16
ATOM     16  C   UNL d   1      44.597  30.733  61.036  0.00  0.00     0.101 A 
ATOM     17  N   UNL d   1      44.749  30.049  61.471  0.00  0.00    -0.242 NA
ATOM     18  C   UNL d   1      44.686  30.049  62.297  0.00  0.00     0.099 A 
ATOM     19  C   UNL d   1      44.468  30.747  62.689  0.00  0.00     0.021 A 
ATOM     20  C   UNL d   1      44.316  31.432  62.255  0.00  0.00     0.003 A 
ATOM     21  C   UNL d   1      44.381  31.424  61.428  0.00  0.00     0.021 A 
ENDBRANCH  15  16
ENDBRANCH  14  15
ENDBRANCH   5  14
TORSDOF 3
ENDMDL
MODEL 7
REMARK VINA RESULT:      -6.3      9.862     10.756
REMARK  3 active torsions:
REMARK  status: ('A' for Active; 'I' for Inactive)
REMARK    1  A    between atoms: N_9  and  C_5 
REMARK    2  A    between atoms: C_12  and  N_9 
REMARK    3  A    between atoms: C_13  and  C_12 
ROOT
ATOM      1  C   UNL d   1      44.801  29.797  59.506  0.00  0.00     0.153 A 
ATOM      2  O   UNL d   1      44.696  29.269  60.128  0.00  0.00    -0.302 OA
ATOM      3  C   UNL d   1      44.780  30.563  59.815  0.00  0.00     0.111 A 
ATOM      4  C   UNL d   1      44.662  30.502  60.633  0.00  0.00     0.043 A 
ATOM      5  C   UNL d   1      44.912  29.680  58.693  0.00  0.00     0.189 A 
ATOM      6  C   UNL d   1      44.611  29.707  60.823  0.00  0.00     0.102 A 
ATOM      7  N   UNL d   1      45.003  30.329  58.193  0.00  0.00    -0.203 NA
ATOM      8  N   UNL d   1      44.871  31.205  59.307  0.00  0.00    -0.222 NA
ATOM      9  C   UNL d   1      44.982  31.095  58.501  0.00  0.00     0.201 A 
ATOM     10  C   UNL d   1      44.597  31.076  61.212  0.00  0.00     0.004 A 
ATOM     11  C   UNL d   1      44.493  29.482  61.607  0.00  0.00     0.025 A 
ATOM     12  C   UNL d   1      44.479  30.852  61.996  0.00  0.00     0.000 A 
ATOM     13  C   UNL d   1      44.427  30.055  62.194  0.00  0.00     0.002 A 
ENDROOT
BRANCH   5  14
ATOM     14  N   UNL d   1      44.933  28.910  58.384  0.00  0.00    -0.222 NA
BRANCH  14  15
ATOM     15  C   UNL d   1      45.018  28.800  57.572  0.00  0.00     0.120 C 
BRANCH  15  16
ATOM     16  C   UNL d   1      44.987  28.037  57.261  0.00  0.00     0.101 A 
ATOM     17  N   UNL d   1      45.602  27.507  57.404  0.00  0.00    -0.242 NA
ATOM     18  C   UNL d   1      45.580  26.738  57.096  0.00  0.00     0.099 A 
ATOM     19  C   UNL d   1      44.930  26.502  56.638  0.00  0.00     0.021 A 
ATOM     20  C   UNL d   1      44.314  27.032  56.494  0.00  0.00     0.003 A 
ATOM     21  C   UNL d   1      44.344  27.800  56.806  0.00  0.00     0.021 A 
ENDBRANCH  15  16
ENDBRANCH  14  15
ENDBRANCH   5  14
TORSDOF 3
ENDMDL
MODEL 8
REMARK VINA RESULT:      -6.1      9.805     10.787
REMARK  3 active torsions:
REMARK  status: ('A' for Active; 'I' for Inactive)
REMARK    1  A    between atoms: N_9  and  C_5 
REMARK    2  A    between atoms: C_12  and  N_9 
REMARK    3  A    between atoms: C_13  and  C_12 
ROOT
ATOM      1  C   UNL d   1      44.704  30.513  58.708  0.00  0.00     0.153 A 
ATOM      2  O   UNL d   1      44.540  31.298  58.524  0.00  0.00    -0.302 OA
ATOM      3  C   UNL d   1      44.754  30.089  58.002  0.00  0.00     0.111 A 
ATOM      4  C   UNL d   1      44.620  30.620  57.379  0.00  0.00     0.043 A 
ATOM      5  C   UNL d   1      44.814  30.127  59.434  0.00  0.00     0.189 A 
ATOM      6  C   UNL d   1      44.489  31.361  57.702  0.00  0.00     0.102 A 
ATOM      7  N   UNL d   1      44.975  29.318  59.448  0.00  0.00    -0.203 NA
ATOM      8  N   UNL d   1      44.915  29.281  58.026  0.00  0.00    -0.222 NA
ATOM      9  C   UNL d   1      45.025  28.893  58.742  0.00  0.00     0.201 A 
ATOM     10  C   UNL d   1      44.605  30.506  56.569  0.00  0.00     0.004 A 
ATOM     11  C   UNL d   1      44.340  32.000  57.205  0.00  0.00     0.025 A 
ATOM     12  C   UNL d   1      44.455  31.146  56.071  0.00  0.00     0.000 A 
ATOM     13  C   UNL d   1      44.322  31.894  56.389  0.00  0.00     0.002 A 
ENDROOT
BRANCH   5  14
ATOM     14  N   UNL d   1      44.763  30.554  60.143  0.00  0.00    -0.222 NA
BRANCH  14  15
ATOM     15  C   UNL d   1      44.784  30.152  60.862  0.00  0.00     0.120 C 
BRANCH  15  16
ATOM     16  C   UNL d   1      44.628  30.562  61.561  0.00  0.00     0.101 A 
ATOM     17  N   UNL d   1      44.602  31.386  61.558  0.00  0.00    -0.242 NA
ATOM     18  C   UNL d   1      44.446  31.807  62.255  0.00  0.00     0.099 A 
ATOM     19  C   UNL d   1      44.316  31.392  62.961  0.00  0.00     0.021 A 
ATOM     20  C   UNL d   1      44.343  30.567  62.964  0.00  0.00     0.003 A 
ATOM     21  C   UNL d   1      44.499  30.153  62.262  0.00  0.00     0.021 A 
ENDBRANCH  15  16
ENDBRANCH  14  15
ENDBRANCH   5  14
TORSDOF 3
ENDMDL
MODEL 9
REMARK VINA RESULT:      -5.9     10.853     11.389
REMARK  3 active torsions:
REMARK  status: ('A' for Active; 'I' for Inactive)
REMARK    1  A    between atoms: N_9  and  C_5 
REMARK    2  A    between atoms: C_12  and  N_9 
REMARK    3  A    between atoms: C_13  and  C_12 
ROOT
ATOM      1  C   UNL d   1      44.590  29.494  60.999  0.00  0.00     0.153 A 
ATOM      2  O   UNL d   1      44.589  28.702  61.219  0.00  0.00    -0.302 OA
ATOM      3  C   UNL d   1      44.527  29.950  61.684  0.00  0.00     0.111 A 
ATOM      4  C   UNL d   1      44.488  29.431  62.329  0.00  0.00     0.043 A 
ATOM      5  C   UNL d   1      44.640  29.863  60.257  0.00  0.00     0.189 A 
ATOM      6  C   UNL d   1      44.526  28.666  62.041  0.00  0.00     0.102 A 
ATOM      7  N   UNL d   1      44.627  30.686  60.206  0.00  0.00    -0.203 NA
ATOM      8  N   UNL d   1      44.515  30.772  61.623  0.00  0.00    -0.222 NA
ATOM      9  C   UNL d   1      44.564  31.142  60.892  0.00  0.00     0.201 A 
ATOM     10  C   UNL d   1      44.422  29.574  63.133  0.00  0.00     0.004 A 
ATOM     11  C   UNL d   1      44.498  28.032  62.566  0.00  0.00     0.025 A 
ATOM     12  C   UNL d   1      44.394  28.940  63.658  0.00  0.00     0.000 A 
ATOM     13  C   UNL d   1      44.433  28.168  63.375  0.00  0.00     0.002 A 
ENDROOT
BRANCH   5  14
ATOM     14  N   UNL d   1      44.703  29.403  59.569  0.00  0.00    -0.222 NA
BRANCH  14  15
ATOM     15  C   UNL d   1      45.055  29.725  58.897  0.00  0.00     0.120 C 
BRANCH  15  16
ATOM     16  C   UNL d   1      45.042  29.300  58.190  0.00  0.00     0.101 A 
ATOM     17  N   UNL d   1      44.774  29.659  57.497  0.00  0.00    -0.242 NA
ATOM     18  C   UNL d   1      44.758  29.239  56.783  0.00  0.00     0.099 A 
ATOM     19  C   UNL d   1      45.015  28.450  56.767  0.00  0.00     0.021 A 
ATOM     20  C   UNL d   1      45.282  28.092  57.460  0.00  0.00     0.003 A 
ATOM     21  C   UNL d   1      45.296  28.518  58.172  0.00  0.00     0.021 A 
ENDBRANCH  15  16
ENDBRANCH  14  15
ENDBRANCH   5  14
TORSDOF 3
ENDMDL
