MODEL 1
REMARK VINA RESULT:      42.9      0.000      0.000
REMARK  1 active torsions:
REMARK  status: ('A' for Active; 'I' for Inactive)
REMARK    1  A    between atoms: C_10  and  N_2 
ROOT
ATOM      1  C   UNL d   1     -58.116 -98.788 -44.419  0.00  0.00     0.759 A 
ATOM      2  N   UNL d   1     -57.938 -98.799 -43.593  0.00  0.00    -0.103 N 
ATOM      3  N   UNL d   1     -57.503 -98.779 -44.966  0.00  0.00    -0.038 N 
ATOM      4  C   UNL d   1     -57.154 -98.800 -43.353  0.00  0.00     0.280 A 
ATOM      5  N   UNL d   1     -58.838 -98.784 -44.826  0.00  0.00     0.066 NA
ATOM      6  C   UNL d   1     -56.537 -98.791 -43.896  0.00  0.00     0.075 A 
ATOM      7  N   UNL d   1     -57.857 -98.769 -45.735  0.00  0.00    -0.025 NA
ATOM      8  N   UNL d   1     -58.661 -98.772 -45.639  0.00  0.00    -0.007 NA
ATOM      9  C   UNL d   1     -56.716 -98.780 -44.722  0.00  0.00     0.107 A 
ATOM     10  O   UNL d   1     -56.976 -98.811 -42.531  0.00  0.00    -0.266 OA
ATOM     11  C   UNL d   1     -55.753 -98.792 -43.655  0.00  0.00     0.006 A 
ATOM     12  C   UNL d   1     -56.102 -98.771 -45.269  0.00  0.00     0.020 A 
ATOM     13  C   UNL d   1     -55.135 -98.783 -44.199  0.00  0.00     0.000 A 
ATOM     14  C   UNL d   1     -55.314 -98.772 -45.025  0.00  0.00     0.002 A 
ENDROOT
BRANCH   2  15
ATOM     15  C   UNL d   1     -58.548 -98.808 -43.051  0.00  0.00     0.084 A 
ATOM     16  C   UNL d   1     -59.335 -98.842 -43.291  0.00  0.00     0.017 A 
ATOM     17  C   UNL d   1     -59.502 -98.865 -44.017  0.00  0.00     0.002 C 
ATOM     18  C   UNL d   1     -59.949 -98.851 -42.748  0.00  0.00     0.002 A 
ATOM     19  C   UNL d   1     -59.772 -98.825 -41.926  0.00  0.00     0.000 A 
ATOM     20  C   UNL d   1     -58.984 -98.790 -41.662  0.00  0.00     0.002 A 
ATOM     21  C   UNL d   1     -58.371 -98.781 -42.230  0.00  0.00     0.018 A 
ENDBRANCH   2  15
TORSDOF 1
ENDMDL
