MODEL 1
REMARK VINA RESULT:      13.6      0.000      0.000
REMARK  4 active torsions:
REMARK  status: ('A' for Active; 'I' for Inactive)
REMARK    1  A    between atoms: C_7  and  C_1 
REMARK    2  A    between atoms: C_8  and  C_7 
REMARK       I    between atoms: N_9  and  C_8 
REMARK    3  A    between atoms: C_14  and  N_9 
REMARK    4  A    between atoms: C_15  and  C_14 
ROOT
ATOM      1  C   UNL d   1      46.108 -17.410  43.622  0.00  0.00     0.032 A 
ATOM      2  C   UNL d   1      46.233 -18.174  43.332  0.00  0.00     0.025 A 
ATOM      3  C   UNL d   1      45.990 -16.843  43.035  0.00  0.00     0.123 A 
ATOM      4  O   UNL d   1      46.058 -17.362  42.280  0.00  0.00    -0.305 OA
ATOM      5  C   UNL d   1      46.372 -18.898  43.709  0.00  0.00     0.002 A 
ATOM      6  C   UNL d   1      46.203 -18.145  42.505  0.00  0.00     0.100 A 
ATOM      7  C   UNL d   1      46.479 -19.584  43.272  0.00  0.00     0.000 A 
ATOM      8  C   UNL d   1      46.311 -18.838  42.063  0.00  0.00     0.025 A 
ATOM      9  C   UNL d   1      46.448 -19.554  42.445  0.00  0.00     0.002 A 
ATOM     10  C   UNL d   1      46.403 -18.927  44.532  0.00  0.00     0.000 A 
ATOM     11  C   UNL d   1      46.615 -20.290  43.650  0.00  0.00     0.000 A 
ATOM     12  C   UNL d   1      46.540 -19.643  44.914  0.00  0.00     0.000 A 
ATOM     13  C   UNL d   1      46.646 -20.327  44.461  0.00  0.00     0.000 A 
ENDROOT
BRANCH   1  14
ATOM     14  C   UNL d   1      46.094 -17.188  44.419  0.00  0.00     0.065 C 
BRANCH  14  15
ATOM     15  C   UNL d   1      45.602 -16.573  44.669  0.00  0.00     0.279 C 
ATOM     16  N   UNL d   1      45.871 -15.794  44.642  0.00  0.00    -0.206 NA
ATOM     17  O   UNL d   1      44.848 -16.733  44.944  0.00  0.00    -0.265 OA
BRANCH  16  18
ATOM     18  C   UNL d   1      45.390 -15.183  44.888  0.00  0.00     0.102 C 
BRANCH  18  19
ATOM     19  C   UNL d   1      45.488 -14.419  44.582  0.00  0.00     0.019 A 
ATOM     20  C   UNL d   1      44.935 -14.125  44.054  0.00  0.00     0.002 A 
ATOM     21  C   UNL d   1      45.027 -13.368  43.746  0.00  0.00     0.000 A 
ATOM     22  C   UNL d   1      45.673 -12.906  43.966  0.00  0.00     0.000 A 
ATOM     23  C   UNL d   1      46.231 -13.214  44.504  0.00  0.00     0.000 A 
ATOM     24  C   UNL d   1      46.132 -13.968  44.807  0.00  0.00     0.002 A 
ENDBRANCH  18  19
ENDBRANCH  16  18
ENDBRANCH  14  15
ENDBRANCH   1  14
TORSDOF 4
ENDMDL
