MODEL 1
REMARK VINA RESULT:      -5.2      0.000      0.000
REMARK  6 active torsions:
REMARK  status: ('A' for Active; 'I' for Inactive)
REMARK    1  A    between atoms: C_5  and  C_1 
REMARK    2  A    between atoms: O_8  and  C_5 
REMARK    3  A    between atoms: C_9  and  O_8 
REMARK    4  A    between atoms: C_14  and  C_10 
REMARK    5  A    between atoms: O_20  and  C_11 
REMARK    6  A    between atoms: O_21  and  C_16 
ROOT
ATOM      1  C   UNL d   1     -41.598-122.266 -51.237  0.00  0.00     0.305 C 
ATOM      2  O   UNL d   1     -41.123-121.719 -50.839  0.00  0.00    -0.259 OA
ENDROOT
BRANCH   1   3
ATOM      3  C   UNL d   1     -41.570-122.311 -52.067  0.00  0.00     0.127 A 
ATOM      4  C   UNL d   1     -41.701-121.620 -52.517  0.00  0.00     0.305 A 
ATOM      5  O   UNL d   1     -41.674-121.660 -53.341  0.00  0.00    -0.271 OA
ATOM      6  O   UNL d   1     -41.857-120.907 -52.141  0.00  0.00    -0.259 OA
ATOM      7  C   UNL d   1     -41.517-122.380 -53.712  0.00  0.00     0.125 A 
ATOM      8  C   UNL d   1     -41.387-123.064 -53.266  0.00  0.00     0.025 A 
ATOM      9  C   UNL d   1     -41.490-122.420 -54.536  0.00  0.00     0.117 A 
ATOM     10  C   UNL d   1     -41.414-123.026 -52.432  0.00  0.00     0.013 A 
ATOM     11  C   UNL d   1     -41.231-123.780 -53.640  0.00  0.00     0.002 A 
ATOM     12  C   UNL d   1     -41.205-123.816 -54.457  0.00  0.00     0.002 A 
ATOM     13  C   UNL d   1     -41.334-123.136 -54.909  0.00  0.00     0.026 A 
BRANCH   9  14
ATOM     14  O   UNL d   1     -41.618-121.745 -54.980  0.00  0.00    -0.326 OA
ATOM     15  C   UNL d   1     -41.790-121.803 -55.789  0.00  0.00     0.181 C 
ENDBRANCH   9  14
ENDBRANCH   1   3
BRANCH   1  16
ATOM     16  O   UNL d   1     -42.099-122.765 -50.812  0.00  0.00    -0.271 OA
BRANCH  16  17
ATOM     17  C   UNL d   1     -41.990-122.862 -50.000  0.00  0.00     0.126 A 
ATOM     18  C   UNL d   1     -42.640-123.004 -49.512  0.00  0.00     0.117 A 
ATOM     19  C   UNL d   1     -42.539-123.101 -48.703  0.00  0.00     0.029 A 
ATOM     20  C   UNL d   1     -41.772-123.055 -48.376  0.00  0.00     0.041 A 
ATOM     21  C   UNL d   1     -41.123-122.912 -48.863  0.00  0.00     0.005 A 
ATOM     22  C   UNL d   1     -41.231-122.815 -49.675  0.00  0.00     0.027 A 
BRANCH  18  23
ATOM     23  O   UNL d   1     -43.396-123.049 -49.844  0.00  0.00    -0.326 OA
ATOM     24  C   UNL d   1     -43.916-123.650 -49.614  0.00  0.00     0.181 C 
ENDBRANCH  18  23
BRANCH  20  25
ATOM     25  C   UNL d   1     -41.668-123.153 -47.553  0.00  0.00     0.196 C 
ATOM     26  O   UNL d   1     -41.997-122.603 -47.030  0.00  0.00    -0.287 OA
ATOM     27  C   UNL d   1     -41.238-123.802 -47.265  0.00  0.00     0.045 C 
ENDBRANCH  20  25
ENDBRANCH  16  17
ENDBRANCH   1  16
TORSDOF 6
ENDMDL
