MODEL 1
REMARK VINA RESULT:      50.4      0.000      0.000
REMARK  5 active torsions:
REMARK  status: ('A' for Active; 'I' for Inactive)
REMARK    1  A    between atoms: N_2  and  S_1 
REMARK    2  A    between atoms: C_4  and  S_1 
REMARK    3  A    between atoms: C_3  and  N_2 
REMARK    4  A    between atoms: N_7  and  C_3 
REMARK    5  A    between atoms: C_12  and  N_7 
ROOT
ATOM      1  S   UNL d   1      61.209  47.737  50.509  0.00  0.00     0.287 S 
ATOM      2  O   UNL d   1      60.862  47.213  51.049  0.00  0.00    -0.198 OA
ATOM      3  O   UNL d   1      61.564  48.250  49.959  0.00  0.00    -0.198 OA
ENDROOT
BRANCH   1   4
ATOM      4  N   UNL d   1      60.897  48.382  50.922  0.00  0.00    -0.128 NA
BRANCH   4   5
ATOM      5  C   UNL d   1      60.701  49.185  50.932  0.00  0.00     0.232 C 
ATOM      6  S   UNL d   1      60.983  49.673  51.533  0.00  0.00    -0.036 SA
BRANCH   5   7
ATOM      7  N   UNL d   1      60.223  49.492  50.338  0.00  0.00    -0.217 NA
BRANCH   7   8
ATOM      8  C   UNL d   1      59.412  49.563  50.465  0.00  0.00     0.084 A 
ATOM      9  C   UNL d   1      59.129  49.632  51.231  0.00  0.00     0.019 A 
ATOM     10  C   UNL d   1      58.323  49.704  51.364  0.00  0.00     0.002 A 
ATOM     11  C   UNL d   1      57.801  49.706  50.727  0.00  0.00     0.000 A 
ATOM     12  C   UNL d   1      58.099  49.636  49.960  0.00  0.00     0.002 A 
ATOM     13  C   UNL d   1      58.893  49.566  49.832  0.00  0.00     0.019 A 
ENDBRANCH   7   8
ENDBRANCH   5   7
ENDBRANCH   4   5
ENDBRANCH   1   4
BRANCH   1  14
ATOM     14  C   UNL d   1      61.525  47.085  50.091  0.00  0.00     0.105 A 
ATOM     15  C   UNL d   1      62.235  47.170  49.676  0.00  0.00     0.015 A 
ATOM     16  C   UNL d   1      62.548  46.530  49.263  0.00  0.00     0.030 A 
ATOM     17  C   UNL d   1      62.159  45.788  49.256  0.00  0.00     0.140 A 
ATOM     18  C   UNL d   1      61.445  45.712  49.678  0.00  0.00     0.030 A 
ATOM     19  F   UNL d   1      62.477  45.159  48.845  0.00  0.00    -0.204 F 
ATOM     20  C   UNL d   1      61.129  46.355  50.093  0.00  0.00     0.015 A 
ENDBRANCH   1  14
TORSDOF 5
ENDMDL
