MODEL 1
REMARK VINA RESULT:      23.4      0.000      0.000
REMARK  3 active torsions:
REMARK  status: ('A' for Active; 'I' for Inactive)
REMARK       I    between atoms: N_2  and  C_1 
REMARK    1  A    between atoms: C_3  and  C_1 
REMARK    2  A    between atoms: C_6  and  N_2 
REMARK    3  A    between atoms: C_5  and  C_4 
ROOT
ATOM      1  C   UNL d   1      58.350  49.561  50.639  0.00  0.00     0.279 C 
ATOM      2  N   UNL d   1      59.108  49.704  50.335  0.00  0.00    -0.207 NA
ATOM      3  O   UNL d   1      58.252  49.418  51.444  0.00  0.00    -0.265 OA
ENDROOT
BRANCH   1   4
ATOM      4  C   UNL d   1      57.698  49.563  50.132  0.00  0.00     0.064 A 
ATOM      5  C   UNL d   1      56.947  49.422  50.434  0.00  0.00     0.069 A 
ATOM      6  C   UNL d   1      56.285  49.421  49.935  0.00  0.00     0.006 A 
ATOM      7  C   UNL d   1      56.397  49.565  49.130  0.00  0.00     0.000 A 
ATOM      8  C   UNL d   1      57.148  49.707  48.829  0.00  0.00     0.000 A 
ATOM      9  C   UNL d   1      57.797  49.706  49.328  0.00  0.00     0.005 A 
BRANCH   5  10
ATOM     10  C   UNL d   1      56.846  49.278  51.243  0.00  0.00     0.211 C 
ATOM     11  O   UNL d   1      56.269  49.694  51.669  0.00  0.00    -0.644 OA
ATOM     12  O   UNL d   1      57.320  48.719  51.623  0.00  0.00    -0.644 OA
ENDBRANCH   5  10
ENDBRANCH   1   4
BRANCH   2  13
ATOM     13  C   UNL d   1      59.764  49.704  50.837  0.00  0.00     0.095 A 
ATOM     14  C   UNL d   1      60.523  49.701  50.524  0.00  0.00     0.075 A 
ATOM     15 CL   UNL d   1      60.631  49.698  49.708  0.00  0.00    -0.081 Cl
ATOM     16  C   UNL d   1      61.173  49.700  51.023  0.00  0.00     0.013 A 
ATOM     17  C   UNL d   1      61.067  49.702  51.846  0.00  0.00     0.001 A 
ATOM     18  C   UNL d   1      60.303  49.705  52.157  0.00  0.00     0.002 A 
ATOM     19  C   UNL d   1      59.650  49.706  51.651  0.00  0.00     0.020 A 
ENDBRANCH   2  13
TORSDOF 3
ENDMDL
