MODEL 1
REMARK VINA RESULT:       5.2      0.000      0.000
REMARK  3 active torsions:
REMARK  status: ('A' for Active; 'I' for Inactive)
REMARK    1  A    between atoms: C_13  and  N_6 
REMARK    2  A    between atoms: C_16  and  C_10 
REMARK    3  A    between atoms: O_19  and  C_17 
ROOT
ATOM      1  C   UNL d   1      30.119  17.415 -23.758  0.00  0.00     0.722 A 
ATOM      2  C   UNL d   1      28.848  17.612 -23.430  0.00  0.00     0.191 A 
ATOM      3  N   UNL d   1      29.535  17.991 -23.636  0.00  0.00    -0.042 NA
ATOM      4  N   UNL d   1      29.777  16.695 -23.624  0.00  0.00    -0.131 N 
ATOM      5  C   UNL d   1      28.999  16.805 -23.422  0.00  0.00     0.174 A 
ATOM      6  N   UNL d   1      30.909  17.308 -23.963  0.00  0.00    -0.138 N 
ATOM      7  N   UNL d   1      28.100  17.892 -23.247  0.00  0.00    -0.239 N 
ATOM      8  C   UNL d   1      27.491  17.362 -23.053  0.00  0.00     0.358 A 
ATOM      9  N   UNL d   1      27.642  16.555 -23.045  0.00  0.00    -0.152 NA
ATOM     10  C   UNL d   1      31.067  16.526 -23.958  0.00  0.00     0.100 A 
ATOM     11  C   UNL d   1      28.404  16.265 -23.231  0.00  0.00     0.303 A 
ATOM     12  C   UNL d   1      30.373  16.121 -23.749  0.00  0.00     0.116 A 
ATOM     13  O   UNL d   1      26.742  17.642 -22.869  0.00  0.00    -0.244 OA
ATOM     14  O   UNL d   1      28.553  15.469 -23.223  0.00  0.00    -0.263 OA
ATOM     15  C   UNL d   1      27.952  18.687 -23.255  0.00  0.00     0.105 C 
ENDROOT
BRANCH   6  16
ATOM     16  C   UNL d   1      31.444  17.912 -24.141  0.00  0.00     0.103 A 
ATOM     17  C   UNL d   1      31.858  18.293 -23.534  0.00  0.00     0.111 A 
ATOM     18  C   UNL d   1      32.381  18.884 -23.712  0.00  0.00     0.026 A 
ATOM     19  C   UNL d   1      32.508  19.115 -24.489  0.00  0.00     0.002 A 
ATOM     20  C   UNL d   1      32.093  18.734 -25.096  0.00  0.00     0.002 A 
ATOM     21  C   UNL d   1      31.559  18.129 -24.918  0.00  0.00     0.020 A 
BRANCH  17  22
ATOM     22  O   UNL d   1      31.944  18.290 -22.721  0.00  0.00    -0.327 OA
ATOM     23  C   UNL d   1      32.269  18.939 -22.328  0.00  0.00     0.181 C 
ENDBRANCH  17  22
ENDBRANCH   6  16
BRANCH  10  24
ATOM     24  C   UNL d   1      31.794  16.167 -24.131  0.00  0.00     0.018 A 
ATOM     25  C   UNL d   1      32.294  15.917 -23.523  0.00  0.00     0.002 A 
ATOM     26  C   UNL d   1      33.005  15.566 -23.695  0.00  0.00     0.000 A 
ATOM     27  C   UNL d   1      33.240  15.453 -24.483  0.00  0.00     0.000 A 
ATOM     28  C   UNL d   1      32.741  15.702 -25.090  0.00  0.00     0.000 A 
ATOM     29  C   UNL d   1      32.013  16.062 -24.917  0.00  0.00     0.002 A 
ENDBRANCH  10  24
TORSDOF 3
ENDMDL
