MODEL 1
REMARK VINA RESULT:       2.4      0.000      0.000
REMARK  6 active torsions:
REMARK  status: ('A' for Active; 'I' for Inactive)
REMARK    1  A    between atoms: C_21  and  C_3 
REMARK    2  A    between atoms: S_17  and  C_5 
REMARK    3  A    between atoms: C_11  and  C_16 
REMARK       I    between atoms: N_14  and  C_11 
REMARK    4  A    between atoms: C_19  and  N_14 
REMARK    5  A    between atoms: C_16  and  C_20 
REMARK    6  A    between atoms: C_20  and  S_17 
ROOT
ATOM      1  C   UNL d   1     -41.437-121.791 -52.802  0.00  0.00     0.092 A 
ATOM      2  C   UNL d   1     -41.830-121.892 -54.173  0.00  0.00     0.057 A 
ATOM      3  C   UNL d   1     -41.674-121.432 -53.511  0.00  0.00     0.016 A 
ATOM      4  N   UNL d   1     -41.517-123.069 -53.434  0.00  0.00    -0.239 NA
ATOM      5  C   UNL d   1     -41.359-122.609 -52.764  0.00  0.00     0.120 A 
ATOM      6  C   UNL d   1     -41.752-122.711 -54.135  0.00  0.00     0.081 A 
ATOM      7  C   UNL d   1     -42.065-121.533 -54.874  0.00  0.00     0.193 A 
ATOM      8  C   UNL d   1     -41.281-121.317 -52.136  0.00  0.00     0.103 C 
ATOM      9  N   UNL d   1     -41.123-120.849 -51.466  0.00  0.00    -0.191 NA
ATOM     10  C   UNL d   1     -42.144-122.812 -55.503  0.00  0.00     0.042 A 
ATOM     11  C   UNL d   1     -42.222-121.993 -55.541  0.00  0.00     0.019 A 
ATOM     12  C   UNL d   1     -41.908-123.170 -54.798  0.00  0.00    -0.003 A 
ATOM     13  O   UNL d   1     -42.143-120.715 -54.912  0.00  0.00    -0.287 OA
ATOM     14  C   UNL d   1     -42.148-123.600 -55.737  0.00  0.00     0.009 C 
ATOM     15  C   UNL d   1     -42.381-122.453 -56.211  0.00  0.00     0.009 C 
ENDROOT
BRANCH   3  16
ATOM     16  C   UNL d   1     -41.752-120.614 -53.549  0.00  0.00     0.001 C 
ATOM     17  C   UNL d   1     -42.470-120.259 -53.364  0.00  0.00     0.000 C 
ENDBRANCH   3  16
BRANCH   5  18
ATOM     18  S   UNL d   1     -41.123-122.967 -52.059  0.00  0.00    -0.067 SA
BRANCH  18  19
ATOM     19  C   UNL d   1     -41.666-123.415 -51.629  0.00  0.00     0.042 C 
BRANCH  19  20
ATOM     20  C   UNL d   1     -41.422-123.817 -50.949  0.00  0.00     0.070 C 
BRANCH  20  21
ATOM     21  C   UNL d   1     -41.844-123.730 -50.241  0.00  0.00     0.280 C 
ATOM     22  N   UNL d   1     -41.454-123.792 -49.516  0.00  0.00    -0.208 NA
ATOM     23  O   UNL d   1     -42.657-123.580 -50.259  0.00  0.00    -0.265 OA
BRANCH  22  24
ATOM     24  C   UNL d   1     -41.876-123.705 -48.808  0.00  0.00     0.085 A 
ATOM     25  C   UNL d   1     -42.702-123.661 -48.820  0.00  0.00     0.019 A 
ATOM     26  C   UNL d   1     -43.116-123.574 -48.115  0.00  0.00     0.002 A 
ATOM     27  C   UNL d   1     -42.717-123.530 -47.392  0.00  0.00     0.000 A 
ATOM     28  C   UNL d   1     -41.895-123.574 -47.380  0.00  0.00     0.002 A 
ATOM     29  C   UNL d   1     -43.143-123.442 -46.676  0.00  0.00     0.000 C 
ATOM     30  C   UNL d   1     -41.472-123.661 -48.088  0.00  0.00     0.019 A 
ENDBRANCH  22  24
ENDBRANCH  20  21
ENDBRANCH  19  20
ENDBRANCH  18  19
ENDBRANCH   5  18
TORSDOF 6
ENDMDL
