MODEL 1
REMARK VINA RESULT:      65.7      0.000      0.000
REMARK  7 active torsions:
REMARK  status: ('A' for Active; 'I' for Inactive)
REMARK       I    between atoms: C_3  and  N_1 
REMARK    1  A    between atoms: C_4  and  N_1 
REMARK    2  A    between atoms: C_5  and  N_1 
REMARK    3  A    between atoms: N_2  and  C_7 
REMARK    4  A    between atoms: C_8  and  C_3 
REMARK    5  A    between atoms: C_6  and  C_5 
REMARK    6  A    between atoms: C_9  and  C_6 
REMARK    7  A    between atoms: O_19  and  C_9 
ROOT
ATOM      1  N   UNL d   1     -50.248  26.871  34.557  0.00  0.00    -0.258 N 
ATOM      2  C   UNL d   1     -50.196  26.396  33.878  0.00  0.00     0.266 C 
ATOM      3  O   UNL d   1     -49.632  26.510  33.308  0.00  0.00    -0.267 OA
ENDROOT
BRANCH   1   4
ATOM      4  C   UNL d   1     -49.694  27.487  34.648  0.00  0.00     0.150 A 
ATOM      5  N   UNL d   1     -49.804  28.188  34.248  0.00  0.00    -0.227 NA
ATOM      6  C   UNL d   1     -49.258  28.778  34.345  0.00  0.00     0.101 A 
ATOM      7  C   UNL d   1     -48.578  28.669  34.857  0.00  0.00     0.021 A 
ATOM      8  C   UNL d   1     -48.471  27.974  35.253  0.00  0.00     0.005 A 
ATOM      9  C   UNL d   1     -49.014  27.378  35.161  0.00  0.00     0.037 A 
ENDBRANCH   1   4
BRANCH   1  10
ATOM     10  C   UNL d   1     -50.837  26.725  35.118  0.00  0.00     0.090 C 
BRANCH  10  11
ATOM     11  C   UNL d   1     -50.607  26.669  35.935  0.00  0.00     0.087 C 
BRANCH  11  12
ATOM     12  C   UNL d   1     -51.184  26.608  36.531  0.00  0.00     0.297 C 
ATOM     13  O   UNL d   1     -51.945  26.459  36.343  0.00  0.00    -0.259 OA
BRANCH  12  14
ATOM     14  O   UNL d   1     -50.954  26.704  37.315  0.00  0.00    -0.296 OA
ATOM     15  C   UNL d   1     -51.516  26.733  37.919  0.00  0.00     0.185 C 
ENDBRANCH  12  14
ENDBRANCH  11  12
ENDBRANCH  10  11
ENDBRANCH   1  10
BRANCH   2  16
ATOM     16  C   UNL d   1     -50.754  25.778  33.789  0.00  0.00     0.057 A 
ATOM     17  C   UNL d   1     -51.536  25.926  33.787  0.00  0.00     0.006 A 
ATOM     18  C   UNL d   1     -52.096  25.313  33.698  0.00  0.00     0.024 A 
ATOM     19  C   UNL d   1     -51.841  24.556  33.613  0.00  0.00     0.127 A 
ATOM     20  C   UNL d   1     -51.021  24.397  33.615  0.00  0.00     0.024 A 
ATOM     21  C   UNL d   1     -50.492  25.000  33.701  0.00  0.00     0.006 A 
BRANCH  19  22
ATOM     22  N   UNL d   1     -52.403  23.964  33.527  0.00  0.00    -0.114 N 
ATOM     23  O   UNL d   1     -53.225  24.056  33.648  0.00  0.00    -0.532 OA
ATOM     24  O   UNL d   1     -52.221  23.189  33.306  0.00  0.00    -0.532 OA
ENDBRANCH  19  22
ENDBRANCH   2  16
TORSDOF 7
ENDMDL
MODEL 2
REMARK VINA RESULT:      67.4      1.934      3.886
REMARK  7 active torsions:
REMARK  status: ('A' for Active; 'I' for Inactive)
REMARK       I    between atoms: C_3  and  N_1 
REMARK    1  A    between atoms: C_4  and  N_1 
REMARK    2  A    between atoms: C_5  and  N_1 
REMARK    3  A    between atoms: N_2  and  C_7 
REMARK    4  A    between atoms: C_8  and  C_3 
REMARK    5  A    between atoms: C_6  and  C_5 
REMARK    6  A    between atoms: C_9  and  C_6 
REMARK    7  A    between atoms: O_19  and  C_9 
ROOT
ATOM      1  N   UNL d   1     -51.012  25.547  33.524  0.00  0.00    -0.258 N 
ATOM      2  C   UNL d   1     -50.435  26.132  33.404  0.00  0.00     0.266 C 
ATOM      3  O   UNL d   1     -49.649  25.958  33.307  0.00  0.00    -0.267 OA
ENDROOT
BRANCH   1   4
ATOM      4  C   UNL d   1     -50.764  24.751  33.544  0.00  0.00     0.150 A 
ATOM      5  N   UNL d   1     -51.321  24.157  33.511  0.00  0.00    -0.227 NA
ATOM      6  C   UNL d   1     -51.067  23.388  33.531  0.00  0.00     0.101 A 
ATOM      7  C   UNL d   1     -50.231  23.202  33.584  0.00  0.00     0.021 A 
ATOM      8  C   UNL d   1     -49.681  23.791  33.616  0.00  0.00     0.005 A 
ATOM      9  C   UNL d   1     -49.928  24.565  33.597  0.00  0.00     0.037 A 
ENDBRANCH   1   4
BRANCH   1  10
ATOM     10  C   UNL d   1     -51.803  25.762  33.620  0.00  0.00     0.090 C 
BRANCH  10  11
ATOM     11  C   UNL d   1     -52.401  25.210  33.372  0.00  0.00     0.087 C 
BRANCH  11  12
ATOM     12  C   UNL d   1     -52.997  24.969  33.900  0.00  0.00     0.297 C 
ATOM     13  O   UNL d   1     -53.396  24.289  33.777  0.00  0.00    -0.259 OA
BRANCH  12  14
ATOM     14  O   UNL d   1     -53.166  25.444  34.550  0.00  0.00    -0.296 OA
ATOM     15  C   UNL d   1     -53.731  25.215  35.105  0.00  0.00     0.185 C 
ENDBRANCH  12  14
ENDBRANCH  11  12
ENDBRANCH  10  11
ENDBRANCH   1  10
BRANCH   2  16
ATOM     16  C   UNL d   1     -50.686  26.931  33.386  0.00  0.00     0.057 A 
ATOM     17  C   UNL d   1     -51.459  27.120  33.392  0.00  0.00     0.006 A 
ATOM     18  C   UNL d   1     -51.713  27.915  33.373  0.00  0.00     0.024 A 
ATOM     19  C   UNL d   1     -51.167  28.503  33.348  0.00  0.00     0.127 A 
ATOM     20  C   UNL d   1     -50.355  28.308  33.342  0.00  0.00     0.024 A 
ATOM     21  C   UNL d   1     -50.124  27.535  33.360  0.00  0.00     0.006 A 
BRANCH  19  22
ATOM     22  N   UNL d   1     -51.432  29.280  33.330  0.00  0.00    -0.114 N 
ATOM     23  O   UNL d   1     -50.942  29.957  33.309  0.00  0.00    -0.532 OA
ATOM     24  O   UNL d   1     -52.230  29.491  33.331  0.00  0.00    -0.532 OA
ENDBRANCH  19  22
ENDBRANCH   2  16
TORSDOF 7
ENDMDL
MODEL 3
REMARK VINA RESULT:      68.0      1.946      4.232
REMARK  7 active torsions:
REMARK  status: ('A' for Active; 'I' for Inactive)
REMARK       I    between atoms: C_3  and  N_1 
REMARK    1  A    between atoms: C_4  and  N_1 
REMARK    2  A    between atoms: C_5  and  N_1 
REMARK    3  A    between atoms: N_2  and  C_7 
REMARK    4  A    between atoms: C_8  and  C_3 
REMARK    5  A    between atoms: C_6  and  C_5 
REMARK    6  A    between atoms: C_9  and  C_6 
REMARK    7  A    between atoms: O_19  and  C_9 
ROOT
ATOM      1  N   UNL d   1     -51.734  25.167  33.765  0.00  0.00    -0.258 N 
ATOM      2  C   UNL d   1     -50.929  25.020  33.625  0.00  0.00     0.266 C 
ATOM      3  O   UNL d   1     -50.647  24.289  33.417  0.00  0.00    -0.267 OA
ENDROOT
BRANCH   1   4
ATOM      4  C   UNL d   1     -52.267  24.532  33.686  0.00  0.00     0.150 A 
ATOM      5  N   UNL d   1     -51.992  23.805  33.441  0.00  0.00    -0.227 NA
ATOM      6  C   UNL d   1     -52.521  23.196  33.368  0.00  0.00     0.101 A 
ATOM      7  C   UNL d   1     -53.352  23.312  33.545  0.00  0.00     0.021 A 
ATOM      8  C   UNL d   1     -53.623  24.032  33.788  0.00  0.00     0.005 A 
ATOM      9  C   UNL d   1     -53.099  24.647  33.863  0.00  0.00     0.037 A 
ENDBRANCH   1   4
BRANCH   1  10
ATOM     10  C   UNL d   1     -51.984  25.925  33.976  0.00  0.00     0.090 C 
BRANCH  10  11
ATOM     11  C   UNL d   1     -52.503  26.338  33.443  0.00  0.00     0.087 C 
BRANCH  11  12
ATOM     12  C   UNL d   1     -52.636  27.154  33.533  0.00  0.00     0.297 C 
ATOM     13  O   UNL d   1     -52.076  27.681  33.319  0.00  0.00    -0.259 OA
BRANCH  12  14
ATOM     14  O   UNL d   1     -53.353  27.406  33.846  0.00  0.00    -0.296 OA
ATOM     15  C   UNL d   1     -53.887  27.836  33.386  0.00  0.00     0.185 C 
ENDBRANCH  12  14
ENDBRANCH  11  12
ENDBRANCH  10  11
ENDBRANCH   1  10
BRANCH   2  16
ATOM     16  C   UNL d   1     -50.394  25.660  33.705  0.00  0.00     0.057 A 
ATOM     17  C   UNL d   1     -50.652  26.413  33.710  0.00  0.00     0.006 A 
ATOM     18  C   UNL d   1     -50.122  27.055  33.790  0.00  0.00     0.024 A 
ATOM     19  C   UNL d   1     -49.336  26.910  33.862  0.00  0.00     0.127 A 
ATOM     20  C   UNL d   1     -49.062  26.120  33.857  0.00  0.00     0.024 A 
ATOM     21  C   UNL d   1     -49.586  25.511  33.780  0.00  0.00     0.006 A 
BRANCH  19  22
ATOM     22  N   UNL d   1     -48.828  27.550  33.940  0.00  0.00    -0.114 N 
ATOM     23  O   UNL d   1     -48.699  28.138  33.359  0.00  0.00    -0.532 OA
ATOM     24  O   UNL d   1     -48.373  27.694  34.614  0.00  0.00    -0.532 OA
ENDBRANCH  19  22
ENDBRANCH   2  16
TORSDOF 7
ENDMDL
MODEL 4
REMARK VINA RESULT:      68.0      1.607      4.124
REMARK  7 active torsions:
REMARK  status: ('A' for Active; 'I' for Inactive)
REMARK       I    between atoms: C_3  and  N_1 
REMARK    1  A    between atoms: C_4  and  N_1 
REMARK    2  A    between atoms: C_5  and  N_1 
REMARK    3  A    between atoms: N_2  and  C_7 
REMARK    4  A    between atoms: C_8  and  C_3 
REMARK    5  A    between atoms: C_6  and  C_5 
REMARK    6  A    between atoms: C_9  and  C_6 
REMARK    7  A    between atoms: O_19  and  C_9 
ROOT
ATOM      1  N   UNL d   1     -50.142  27.053  34.500  0.00  0.00    -0.258 N 
ATOM      2  C   UNL d   1     -49.512  27.396  34.082  0.00  0.00     0.266 C 
ATOM      3  O   UNL d   1     -49.356  27.224  33.306  0.00  0.00    -0.267 OA
ENDROOT
BRANCH   1   4
ATOM      4  C   UNL d   1     -50.629  26.509  34.097  0.00  0.00     0.150 A 
ATOM      5  N   UNL d   1     -51.387  26.726  33.891  0.00  0.00    -0.227 NA
ATOM      6  C   UNL d   1     -51.849  26.189  33.499  0.00  0.00     0.101 A 
ATOM      7  C   UNL d   1     -51.550  25.409  33.306  0.00  0.00     0.021 A 
ATOM      8  C   UNL d   1     -50.799  25.196  33.510  0.00  0.00     0.005 A 
ATOM      9  C   UNL d   1     -50.329  25.729  33.903  0.00  0.00     0.037 A 
ENDBRANCH   1   4
BRANCH   1  10
ATOM     10  C   UNL d   1     -50.270  27.253  35.291  0.00  0.00     0.090 C 
BRANCH  10  11
ATOM     11  C   UNL d   1     -50.765  26.742  35.758  0.00  0.00     0.087 C 
BRANCH  11  12
ATOM     12  C   UNL d   1     -50.836  26.860  36.578  0.00  0.00     0.297 C 
ATOM     13  O   UNL d   1     -50.292  27.290  36.973  0.00  0.00    -0.259 OA
BRANCH  12  14
ATOM     14  O   UNL d   1     -51.476  26.527  36.972  0.00  0.00    -0.296 OA
ATOM     15  C   UNL d   1     -51.434  26.357  37.778  0.00  0.00     0.185 C 
ENDBRANCH  12  14
ENDBRANCH  11  12
ENDBRANCH  10  11
ENDBRANCH   1  10
BRANCH   2  16
ATOM     16  C   UNL d   1     -49.024  27.942  34.490  0.00  0.00     0.057 A 
ATOM     17  C   UNL d   1     -49.191  28.720  34.496  0.00  0.00     0.006 A 
ATOM     18  C   UNL d   1     -48.707  29.267  34.901  0.00  0.00     0.024 A 
ATOM     19  C   UNL d   1     -48.058  29.004  35.293  0.00  0.00     0.127 A 
ATOM     20  C   UNL d   1     -47.879  28.188  35.289  0.00  0.00     0.024 A 
ATOM     21  C   UNL d   1     -48.357  27.671  34.893  0.00  0.00     0.006 A 
BRANCH  19  22
ATOM     22  N   UNL d   1     -47.592  29.554  35.686  0.00  0.00    -0.114 N 
ATOM     23  O   UNL d   1     -47.687  29.785  36.484  0.00  0.00    -0.532 OA
ATOM     24  O   UNL d   1     -46.960  29.952  35.335  0.00  0.00    -0.532 OA
ENDBRANCH  19  22
ENDBRANCH   2  16
TORSDOF 7
ENDMDL
