MODEL 1
REMARK VINA RESULT:      53.7      0.000      0.000
REMARK  5 active torsions:
REMARK  status: ('A' for Active; 'I' for Inactive)
REMARK    1  A    between atoms: C_8  and  C_1 
REMARK    2  A    between atoms: C_10  and  C_2 
REMARK    3  A    between atoms: N_6  and  C_9 
REMARK    4  A    between atoms: O_19  and  C_8 
REMARK    5  A    between atoms: C_21  and  O_19 
ROOT
ATOM      1  C   UNL d   1     -51.089  25.024  33.637  0.00  0.00     0.099 A 
ATOM      2  C   UNL d   1     -51.213  25.832  33.748  0.00  0.00     0.093 A 
ATOM      3  C   UNL d   1     -51.715  24.525  33.417  0.00  0.00     0.093 A 
ATOM      4  N   UNL d   1     -51.979  26.142  33.637  0.00  0.00    -0.191 NA
ATOM      5  C   UNL d   1     -52.606  25.644  33.418  0.00  0.00     0.369 A 
ATOM      6  N   UNL d   1     -52.468  24.833  33.309  0.00  0.00    -0.191 NA
ATOM      7  O   UNL d   1     -53.361  25.955  33.309  0.00  0.00    -0.242 OA
ATOM      8  C   UNL d   1     -51.577  23.721  33.309  0.00  0.00     0.021 C 
ENDROOT
BRANCH   2   9
ATOM      9  C   UNL d   1     -50.594  26.332  33.966  0.00  0.00     0.018 A 
ATOM     10  C   UNL d   1     -50.525  26.563  34.751  0.00  0.00     0.003 A 
ATOM     11  C   UNL d   1     -49.912  27.060  34.977  0.00  0.00     0.024 A 
ATOM     12  C   UNL d   1     -49.360  27.330  34.416  0.00  0.00     0.127 A 
ATOM     13  C   UNL d   1     -49.434  27.094  33.624  0.00  0.00     0.024 A 
ATOM     14  C   UNL d   1     -50.051  26.594  33.402  0.00  0.00     0.003 A 
BRANCH  12  15
ATOM     15  N   UNL d   1     -48.742  27.830  34.639  0.00  0.00    -0.114 N 
ATOM     16  O   UNL d   1     -48.894  28.487  35.116  0.00  0.00    -0.532 OA
ATOM     17  O   UNL d   1     -47.972  27.673  34.385  0.00  0.00    -0.532 OA
ENDBRANCH  12  15
ENDBRANCH   2   9
BRANCH   1  18
ATOM     18  C   UNL d   1     -50.335  24.709  33.744  0.00  0.00     0.303 C 
ATOM     19  O   UNL d   1     -49.698  25.007  33.313  0.00  0.00    -0.259 OA
BRANCH  18  20
ATOM     20  O   UNL d   1     -50.213  24.096  34.283  0.00  0.00    -0.271 OA
BRANCH  20  21
ATOM     21  C   UNL d   1     -49.936  23.364  34.019  0.00  0.00     0.126 C 
ATOM     22  C   UNL d   1     -49.138  23.263  33.871  0.00  0.00     0.029 C 
ENDBRANCH  20  21
ENDBRANCH  18  20
ENDBRANCH   1  18
TORSDOF 5
ENDMDL
