MODEL 1
REMARK VINA RESULT:      23.7      0.000      0.000
REMARK  1 active torsions:
REMARK  status: ('A' for Active; 'I' for Inactive)
REMARK       I    between atoms: C_8  and  N_9 
REMARK    1  A    between atoms: N_9  and  C_10 
ROOT
ATOM      1  N   UNL d   1      57.445  49.579  51.179  0.00  0.00    -0.304 N 
ATOM      2  C   UNL d   1      58.258  49.613  51.042  0.00  0.00     0.066 A 
ATOM      3  C   UNL d   1      58.380  49.666  50.224  0.00  0.00     0.018 A 
ATOM      4  C   UNL d   1      57.064  49.611  50.448  0.00  0.00     0.064 A 
ATOM      5  C   UNL d   1      57.640  49.664  49.860  0.00  0.00     0.018 A 
ATOM      6  C   UNL d   1      58.906  49.603  51.553  0.00  0.00     0.037 A 
ATOM      7  C   UNL d   1      59.145  49.708  49.924  0.00  0.00     0.003 A 
ATOM      8  C   UNL d   1      59.676  49.646  51.248  0.00  0.00     0.086 A 
ATOM      9  C   UNL d   1      59.786  49.698  50.429  0.00  0.00     0.019 A 
ATOM     10  C   UNL d   1      57.085  49.525  51.908  0.00  0.00     0.099 C 
ATOM     11  C   UNL d   1      56.265  49.598  50.239  0.00  0.00     0.018 A 
ATOM     12  C   UNL d   1      57.414  49.704  49.066  0.00  0.00     0.002 A 
ATOM     13  C   UNL d   1      56.620  49.691  48.863  0.00  0.00     0.000 A 
ATOM     14  C   UNL d   1      56.044  49.638  49.451  0.00  0.00     0.002 A 
ENDROOT
BRANCH   8  15
ATOM     15  N   UNL d   1      60.312  49.635  51.759  0.00  0.00    -0.208 NA
ATOM     16  C   UNL d   1      61.081  49.642  51.470  0.00  0.00     0.279 C 
ATOM     17  O   UNL d   1      61.716  49.632  51.991  0.00  0.00    -0.265 OA
ATOM     18  C   UNL d   1      61.209  49.660  50.663  0.00  0.00     0.068 C 
ENDBRANCH   8  15
TORSDOF 1
ENDMDL
