MODEL 1
REMARK VINA RESULT:      -8.2      0.000      0.000
REMARK  3 active torsions:
REMARK  status: ('A' for Active; 'I' for Inactive)
REMARK    1  A    between atoms: C_2  and  C_4 
REMARK    2  A    between atoms: N_3  and  C_2 
REMARK    3  A    between atoms: C_5  and  N_3 
ROOT
ATOM      1  C   UNL d   1     -48.256  13.094  22.623  0.00  0.00     0.153 C 
ATOM      2  S   UNL d   1     -48.244  12.561  21.996  0.00  0.00    -0.056 SA
ENDROOT
BRANCH   1   3
ATOM      3  C   UNL d   1     -48.948  13.509  22.796  0.00  0.00     0.109 A 
ATOM      4  N   UNL d   1     -48.906  14.311  23.030  0.00  0.00    -0.243 NA
ATOM      5  C   UNL d   1     -49.601  14.725  23.203  0.00  0.00     0.081 A 
ATOM      6  C   UNL d   1     -50.335  14.344  23.143  0.00  0.00     0.018 A 
ATOM      7  C   UNL d   1     -49.563  15.515  23.433  0.00  0.00     0.019 A 
ATOM      8  C   UNL d   1     -50.377  13.551  22.912  0.00  0.00     0.003 A 
ATOM      9  C   UNL d   1     -51.022  14.759  23.316  0.00  0.00     0.002 A 
ATOM     10  C   UNL d   1     -49.685  13.136  22.739  0.00  0.00     0.021 A 
ATOM     11  C   UNL d   1     -50.989  15.545  23.545  0.00  0.00     0.000 A 
ATOM     12  C   UNL d   1     -50.260  15.922  23.604  0.00  0.00     0.002 A 
ENDBRANCH   1   3
BRANCH   1  13
ATOM     13  N   UNL d   1     -47.580  13.215  23.078  0.00  0.00    -0.233 NA
BRANCH  13  14
ATOM     14  C   UNL d   1     -47.071  12.581  23.234  0.00  0.00     0.082 A 
ATOM     15  C   UNL d   1     -46.251  12.692  23.160  0.00  0.00     0.018 A 
ATOM     16  C   UNL d   1     -45.747  12.054  23.318  0.00  0.00     0.002 A 
ATOM     17  C   UNL d   1     -45.945  13.422  22.936  0.00  0.00     0.002 C 
ATOM     18  C   UNL d   1     -46.053  11.324  23.542  0.00  0.00     0.000 A 
ATOM     19  C   UNL d   1     -46.870  11.221  23.614  0.00  0.00     0.002 A 
ATOM     20  C   UNL d   1     -45.542  10.690  23.698  0.00  0.00     0.000 C 
ATOM     21  C   UNL d   1     -47.380  11.851  23.459  0.00  0.00     0.019 A 
ENDBRANCH  13  14
ENDBRANCH   1  13
TORSDOF 3
ENDMDL
MODEL 2
REMARK VINA RESULT:      -7.7      0.845      4.605
REMARK  3 active torsions:
REMARK  status: ('A' for Active; 'I' for Inactive)
REMARK    1  A    between atoms: C_2  and  C_4 
REMARK    2  A    between atoms: N_3  and  C_2 
REMARK    3  A    between atoms: C_5  and  N_3 
ROOT
ATOM      1  C   UNL d   1     -47.718  14.077  22.708  0.00  0.00     0.153 C 
ATOM      2  S   UNL d   1     -47.568  14.884  22.772  0.00  0.00    -0.056 SA
ENDROOT
BRANCH   1   3
ATOM      3  C   UNL d   1     -47.097  13.538  22.760  0.00  0.00     0.109 A 
ATOM      4  N   UNL d   1     -47.199  12.824  23.183  0.00  0.00    -0.243 NA
ATOM      5  C   UNL d   1     -46.573  12.284  23.235  0.00  0.00     0.081 A 
ATOM      6  C   UNL d   1     -45.850  12.455  22.868  0.00  0.00     0.018 A 
ATOM      7  C   UNL d   1     -46.670  11.580  23.650  0.00  0.00     0.019 A 
ATOM      8  C   UNL d   1     -45.748  13.161  22.450  0.00  0.00     0.003 A 
ATOM      9  C   UNL d   1     -45.232  11.916  22.922  0.00  0.00     0.002 A 
ATOM     10  C   UNL d   1     -46.370  13.700  22.397  0.00  0.00     0.021 A 
ATOM     11  C   UNL d   1     -45.324  11.214  23.334  0.00  0.00     0.000 A 
ATOM     12  C   UNL d   1     -46.043  11.046  23.698  0.00  0.00     0.002 A 
ENDBRANCH   1   3
BRANCH   1  13
ATOM     13  N   UNL d   1     -48.488  13.806  22.590  0.00  0.00    -0.233 NA
BRANCH  13  14
ATOM     14  C   UNL d   1     -49.129  14.285  22.805  0.00  0.00     0.082 A 
ATOM     15  C   UNL d   1     -49.902  14.013  22.667  0.00  0.00     0.018 A 
ATOM     16  C   UNL d   1     -50.538  14.497  22.884  0.00  0.00     0.002 A 
ATOM     17  C   UNL d   1     -50.032  13.278  22.321  0.00  0.00     0.002 C 
ATOM     18  C   UNL d   1     -50.408  15.231  23.229  0.00  0.00     0.000 A 
ATOM     19  C   UNL d   1     -49.636  15.495  23.364  0.00  0.00     0.002 A 
ATOM     20  C   UNL d   1     -51.050  15.709  23.443  0.00  0.00     0.000 C 
ATOM     21  C   UNL d   1     -48.995  15.020  23.151  0.00  0.00     0.019 A 
ENDBRANCH  13  14
ENDBRANCH   1  13
TORSDOF 3
ENDMDL
MODEL 3
REMARK VINA RESULT:      -7.6      1.169      1.949
REMARK  3 active torsions:
REMARK  status: ('A' for Active; 'I' for Inactive)
REMARK    1  A    between atoms: C_2  and  C_4 
REMARK    2  A    between atoms: N_3  and  C_2 
REMARK    3  A    between atoms: C_5  and  N_3 
ROOT
ATOM      1  C   UNL d   1     -47.453  14.086  22.794  0.00  0.00     0.153 C 
ATOM      2  S   UNL d   1     -46.944  14.700  22.590  0.00  0.00    -0.056 SA
ENDROOT
BRANCH   1   3
ATOM      3  C   UNL d   1     -48.260  14.154  22.642  0.00  0.00     0.109 A 
ATOM      4  N   UNL d   1     -48.635  13.614  22.125  0.00  0.00    -0.243 NA
ATOM      5  C   UNL d   1     -49.446  13.684  21.974  0.00  0.00     0.081 A 
ATOM      6  C   UNL d   1     -49.882  14.290  22.336  0.00  0.00     0.018 A 
ATOM      7  C   UNL d   1     -49.818  13.155  21.466  0.00  0.00     0.019 A 
ATOM      8  C   UNL d   1     -49.512  14.824  22.848  0.00  0.00     0.003 A 
ATOM      9  C   UNL d   1     -50.686  14.356  22.184  0.00  0.00     0.002 A 
ATOM     10  C   UNL d   1     -48.704  14.756  22.999  0.00  0.00     0.021 A 
ATOM     11  C   UNL d   1     -51.060  13.830  21.678  0.00  0.00     0.000 A 
ATOM     12  C   UNL d   1     -50.626  13.230  21.320  0.00  0.00     0.002 A 
ENDBRANCH   1   3
BRANCH   1  13
ATOM     13  N   UNL d   1     -47.158  13.403  23.149  0.00  0.00    -0.233 NA
BRANCH  13  14
ATOM     14  C   UNL d   1     -46.420  13.107  22.919  0.00  0.00     0.082 A 
ATOM     15  C   UNL d   1     -46.177  12.363  23.199  0.00  0.00     0.018 A 
ATOM     16  C   UNL d   1     -45.437  12.073  22.965  0.00  0.00     0.002 A 
ATOM     17  C   UNL d   1     -46.661  11.925  23.698  0.00  0.00     0.002 C 
ATOM     18  C   UNL d   1     -44.953  12.511  22.466  0.00  0.00     0.000 A 
ATOM     19  C   UNL d   1     -45.202  13.250  22.191  0.00  0.00     0.002 A 
ATOM     20  C   UNL d   1     -44.214  12.213  22.237  0.00  0.00     0.000 C 
ATOM     21  C   UNL d   1     -45.937  13.548  22.419  0.00  0.00     0.019 A 
ENDBRANCH  13  14
ENDBRANCH   1  13
TORSDOF 3
ENDMDL
MODEL 4
REMARK VINA RESULT:      -7.5      1.272      2.026
REMARK  3 active torsions:
REMARK  status: ('A' for Active; 'I' for Inactive)
REMARK    1  A    between atoms: C_2  and  C_4 
REMARK    2  A    between atoms: N_3  and  C_2 
REMARK    3  A    between atoms: C_5  and  N_3 
ROOT
ATOM      1  C   UNL d   1     -47.362  12.238  23.458  0.00  0.00     0.153 C 
ATOM      2  S   UNL d   1     -46.974  11.553  23.698  0.00  0.00    -0.056 SA
ENDROOT
BRANCH   1   3
ATOM      3  C   UNL d   1     -48.177  12.226  23.333  0.00  0.00     0.109 A 
ATOM      4  N   UNL d   1     -48.618  12.934  23.392  0.00  0.00    -0.243 NA
ATOM      5  C   UNL d   1     -49.437  12.919  23.266  0.00  0.00     0.081 A 
ATOM      6  C   UNL d   1     -49.813  12.203  23.083  0.00  0.00     0.018 A 
ATOM      7  C   UNL d   1     -49.875  13.614  23.323  0.00  0.00     0.019 A 
ATOM      8  C   UNL d   1     -49.377  11.503  23.024  0.00  0.00     0.003 A 
ATOM      9  C   UNL d   1     -50.625  12.194  22.958  0.00  0.00     0.002 A 
ATOM     10  C   UNL d   1     -48.561  11.516  23.150  0.00  0.00     0.021 A 
ATOM     11  C   UNL d   1     -51.064  12.883  23.014  0.00  0.00     0.000 A 
ATOM     12  C   UNL d   1     -50.690  13.592  23.196  0.00  0.00     0.002 A 
ENDBRANCH   1   3
BRANCH   1  13
ATOM     13  N   UNL d   1     -46.939  12.936  23.343  0.00  0.00    -0.233 NA
BRANCH  13  14
ATOM     14  C   UNL d   1     -46.208  12.915  22.955  0.00  0.00     0.082 A 
ATOM     15  C   UNL d   1     -45.926  13.602  22.584  0.00  0.00     0.018 A 
ATOM     16  C   UNL d   1     -45.193  13.573  22.198  0.00  0.00     0.002 A 
ATOM     17  C   UNL d   1     -46.365  14.297  22.599  0.00  0.00     0.002 C 
ATOM     18  C   UNL d   1     -44.755  12.879  22.183  0.00  0.00     0.000 A 
ATOM     19  C   UNL d   1     -45.042  12.198  22.555  0.00  0.00     0.002 A 
ATOM     20  C   UNL d   1     -44.023  12.858  21.794  0.00  0.00     0.000 C 
ATOM     21  C   UNL d   1     -45.771  12.217  22.942  0.00  0.00     0.019 A 
ENDBRANCH  13  14
ENDBRANCH   1  13
TORSDOF 3
ENDMDL
MODEL 5
REMARK VINA RESULT:      -7.0      8.661     10.367
REMARK  3 active torsions:
REMARK  status: ('A' for Active; 'I' for Inactive)
REMARK    1  A    between atoms: C_2  and  C_4 
REMARK    2  A    between atoms: N_3  and  C_2 
REMARK    3  A    between atoms: C_5  and  N_3 
ROOT
ATOM      1  C   UNL d   1     -40.010  14.330  18.382  0.00  0.00     0.153 C 
ATOM      2  S   UNL d   1     -40.452  14.736  17.819  0.00  0.00    -0.056 SA
ENDROOT
BRANCH   1   3
ATOM      3  C   UNL d   1     -40.062  14.545  19.177  0.00  0.00     0.109 A 
ATOM      4  N   UNL d   1     -39.468  15.023  19.519  0.00  0.00    -0.243 NA
ATOM      5  C   UNL d   1     -39.521  15.238  20.317  0.00  0.00     0.081 A 
ATOM      6  C   UNL d   1     -40.164  14.977  20.772  0.00  0.00     0.018 A 
ATOM      7  C   UNL d   1     -38.938  15.708  20.657  0.00  0.00     0.019 A 
ATOM      8  C   UNL d   1     -40.752  14.504  20.433  0.00  0.00     0.003 A 
ATOM      9  C   UNL d   1     -40.213  15.192  21.563  0.00  0.00     0.002 A 
ATOM     10  C   UNL d   1     -40.700  14.289  19.639  0.00  0.00     0.021 A 
ATOM     11  C   UNL d   1     -39.635  15.660  21.905  0.00  0.00     0.000 A 
ATOM     12  C   UNL d   1     -38.998  15.918  21.453  0.00  0.00     0.002 A 
ENDBRANCH   1   3
BRANCH   1  13
ATOM     13  N   UNL d   1     -39.516  13.711  18.156  0.00  0.00    -0.233 NA
BRANCH  13  14
ATOM     14  C   UNL d   1     -39.122  13.745  17.428  0.00  0.00     0.082 A 
ATOM     15  C   UNL d   1     -38.590  13.139  17.227  0.00  0.00     0.018 A 
ATOM     16  C   UNL d   1     -38.200  13.180  16.497  0.00  0.00     0.002 A 
ATOM     17  C   UNL d   1     -38.454  12.513  17.741  0.00  0.00     0.002 C 
ATOM     18  C   UNL d   1     -38.336  13.806  15.983  0.00  0.00     0.000 A 
ATOM     19  C   UNL d   1     -38.867  14.405  16.190  0.00  0.00     0.002 A 
ATOM     20  C   UNL d   1     -37.941  13.839  15.255  0.00  0.00     0.000 C 
ATOM     21  C   UNL d   1     -39.261  14.374  16.914  0.00  0.00     0.019 A 
ENDBRANCH  13  14
ENDBRANCH   1  13
TORSDOF 3
ENDMDL
MODEL 6
REMARK VINA RESULT:      -6.5      8.794      9.479
REMARK  3 active torsions:
REMARK  status: ('A' for Active; 'I' for Inactive)
REMARK    1  A    between atoms: C_2  and  C_4 
REMARK    2  A    between atoms: N_3  and  C_2 
REMARK    3  A    between atoms: C_5  and  N_3 
ROOT
ATOM      1  C   UNL d   1     -40.315  14.822  20.621  0.00  0.00     0.153 C 
ATOM      2  S   UNL d   1     -40.848  14.304  20.974  0.00  0.00    -0.056 SA
ENDROOT
BRANCH   1   3
ATOM      3  C   UNL d   1     -40.407  15.029  19.828  0.00  0.00     0.109 A 
ATOM      4  N   UNL d   1     -40.081  14.544  19.230  0.00  0.00    -0.243 NA
ATOM      5  C   UNL d   1     -40.175  14.754  18.434  0.00  0.00     0.081 A 
ATOM      6  C   UNL d   1     -40.592  15.442  18.236  0.00  0.00     0.018 A 
ATOM      7  C   UNL d   1     -39.856  14.279  17.843  0.00  0.00     0.019 A 
ATOM      8  C   UNL d   1     -40.915  15.922  18.827  0.00  0.00     0.003 A 
ATOM      9  C   UNL d   1     -40.683  15.646  17.445  0.00  0.00     0.002 A 
ATOM     10  C   UNL d   1     -40.822  15.715  19.620  0.00  0.00     0.021 A 
ATOM     11  C   UNL d   1     -40.366  15.176  16.854  0.00  0.00     0.000 A 
ATOM     12  C   UNL d   1     -39.953  14.494  17.052  0.00  0.00     0.002 A 
ENDBRANCH   1   3
BRANCH   1  13
ATOM     13  N   UNL d   1     -39.689  15.135  21.057  0.00  0.00    -0.233 NA
BRANCH  13  14
ATOM     14  C   UNL d   1     -39.366  14.699  21.682  0.00  0.00     0.082 A 
ATOM     15  C   UNL d   1     -38.995  15.102  22.308  0.00  0.00     0.018 A 
ATOM     16  C   UNL d   1     -38.674  14.659  22.930  0.00  0.00     0.002 A 
ATOM     17  C   UNL d   1     -38.948  15.922  22.308  0.00  0.00     0.002 C 
ATOM     18  C   UNL d   1     -38.721  13.839  22.929  0.00  0.00     0.000 A 
ATOM     19  C   UNL d   1     -39.091  13.445  22.303  0.00  0.00     0.002 A 
ATOM     20  C   UNL d   1     -38.397  13.403  23.555  0.00  0.00     0.000 C 
ATOM     21  C   UNL d   1     -39.414  13.877  21.678  0.00  0.00     0.019 A 
ENDBRANCH  13  14
ENDBRANCH   1  13
TORSDOF 3
ENDMDL
