MODEL 1
REMARK VINA RESULT:      -3.0      0.000      0.000
REMARK  1 active torsions:
REMARK  status: ('A' for Active; 'I' for Inactive)
REMARK    1  A    between atoms: C_5  and  C_1 
ROOT
ATOM      1  C   UNL d   1      45.319 -12.851  43.714  0.00  0.00     0.169 A 
ATOM      2  N   UNL d   1      45.813 -12.569  44.303  0.00  0.00    -0.142 NA
ATOM      3  C   UNL d   1      45.144 -13.633  43.884  0.00  0.00     0.048 A 
ATOM      4  N   UNL d   1      45.948 -13.178  44.844  0.00  0.00    -0.148 NA
ATOM      5  C   UNL d   1      45.532 -13.840  44.584  0.00  0.00     0.105 A 
ATOM      6  C   UNL d   1      45.506 -14.576  44.955  0.00  0.00     0.023 C 
ENDROOT
BRANCH   1   7
ATOM      7  C   UNL d   1      45.044 -12.421  43.060  0.00  0.00     0.231 C 
ATOM      8  O   UNL d   1      44.294 -12.080  43.082  0.00  0.00    -0.643 OA
ATOM      9  O   UNL d   1      45.519 -12.337  42.393  0.00  0.00    -0.643 OA
ENDBRANCH   1   7
TORSDOF 1
ENDMDL
MODEL 2
REMARK VINA RESULT:      -2.6      7.367      7.736
REMARK  1 active torsions:
REMARK  status: ('A' for Active; 'I' for Inactive)
REMARK    1  A    between atoms: C_5  and  C_1 
ROOT
ATOM      1  C   UNL d   1      45.214 -15.291  36.758  0.00  0.00     0.169 A 
ATOM      2  N   UNL d   1      45.159 -16.020  37.126  0.00  0.00    -0.142 NA
ATOM      3  C   UNL d   1      44.487 -15.125  36.418  0.00  0.00     0.048 A 
ATOM      4  N   UNL d   1      44.394 -16.312  37.015  0.00  0.00    -0.148 NA
ATOM      5  C   UNL d   1      43.976 -15.754  36.574  0.00  0.00     0.105 A 
ATOM      6  C   UNL d   1      43.189 -15.815  36.334  0.00  0.00     0.023 C 
ENDROOT
BRANCH   1   7
ATOM      7  C   UNL d   1      45.885 -14.806  36.734  0.00  0.00     0.231 C 
ATOM      8  O   UNL d   1      46.565 -15.068  36.347  0.00  0.00    -0.643 OA
ATOM      9  O   UNL d   1      45.873 -14.066  37.094  0.00  0.00    -0.643 OA
ENDBRANCH   1   7
TORSDOF 1
ENDMDL
MODEL 3
REMARK VINA RESULT:      -2.3      7.461      7.689
REMARK  1 active torsions:
REMARK  status: ('A' for Active; 'I' for Inactive)
REMARK    1  A    between atoms: C_5  and  C_1 
ROOT
ATOM      1  C   UNL d   1      44.580 -15.364  36.724  0.00  0.00     0.169 A 
ATOM      2  N   UNL d   1      44.578 -14.645  37.117  0.00  0.00    -0.142 NA
ATOM      3  C   UNL d   1      45.351 -15.524  36.497  0.00  0.00     0.048 A 
ATOM      4  N   UNL d   1      45.351 -14.356  37.136  0.00  0.00    -0.148 NA
ATOM      5  C   UNL d   1      45.832 -14.902  36.750  0.00  0.00     0.105 A 
ATOM      6  C   UNL d   1      46.647 -14.840  36.638  0.00  0.00     0.023 C 
ENDROOT
BRANCH   1   7
ATOM      7  C   UNL d   1      43.920 -15.844  36.580  0.00  0.00     0.231 C 
ATOM      8  O   UNL d   1      43.162 -15.538  36.687  0.00  0.00    -0.643 OA
ATOM      9  O   UNL d   1      44.022 -16.622  36.332  0.00  0.00    -0.643 OA
ENDBRANCH   1   7
TORSDOF 1
ENDMDL
MODEL 4
REMARK VINA RESULT:      -0.6      5.944      6.331
REMARK  1 active torsions:
REMARK  status: ('A' for Active; 'I' for Inactive)
REMARK    1  A    between atoms: C_5  and  C_1 
ROOT
ATOM      1  C   UNL d   1      46.475 -18.968  42.456  0.00  0.00     0.169 A 
ATOM      2  N   UNL d   1      46.570 -18.441  43.075  0.00  0.00    -0.142 NA
ATOM      3  C   UNL d   1      46.451 -19.724  42.770  0.00  0.00     0.048 A 
ATOM      4  N   UNL d   1      46.607 -18.871  43.780  0.00  0.00    -0.148 NA
ATOM      5  C   UNL d   1      46.533 -19.669  43.590  0.00  0.00     0.105 A 
ATOM      6  C   UNL d   1      46.539 -20.299  44.122  0.00  0.00     0.023 C 
ENDROOT
BRANCH   1   7
ATOM      7  C   UNL d   1      46.412 -18.771  41.653  0.00  0.00     0.231 C 
ATOM      8  O   UNL d   1      46.426 -19.368  41.084  0.00  0.00    -0.643 OA
ATOM      9  O   UNL d   1      46.337 -17.984  41.426  0.00  0.00    -0.643 OA
ENDBRANCH   1   7
TORSDOF 1
ENDMDL
