MODEL 1
REMARK VINA RESULT:      -9.2      0.000      0.000
REMARK  5 active torsions:
REMARK  status: ('A' for Active; 'I' for Inactive)
REMARK    1  A    between atoms: N_8  and  S_1 
REMARK    2  A    between atoms: C_11  and  S_1 
REMARK    3  A    between atoms: S_2  and  C_10 
REMARK    4  A    between atoms: N_9  and  S_2 
REMARK    5  A    between atoms: N_20  and  C_5 
ROOT
ATOM      1  C   UNL d   1      50.439  34.592  52.931  0.00  0.00     0.021 A 
ATOM      2  C   UNL d   1      49.239  34.956  52.488  0.00  0.00     0.021 A 
ATOM      3  C   UNL d   1      49.719  34.955  53.157  0.00  0.00     0.111 A 
ATOM      4  C   UNL d   1      49.661  34.602  51.873  0.00  0.00     0.002 A 
ATOM      5  C   UNL d   1      50.400  34.384  52.167  0.00  0.00     0.002 A 
ATOM      6  C   UNL d   1      48.118  35.164  51.621  0.00  0.00     0.104 A 
ATOM      7  C   UNL d   1      51.769  34.074  53.030  0.00  0.00     0.104 A 
ATOM      8  C   UNL d   1      48.478  35.232  52.359  0.00  0.00     0.015 A 
ATOM      9  C   UNL d   1      51.121  34.443  53.381  0.00  0.00     0.015 A 
ATOM     10  C   UNL d   1      51.048  34.014  51.815  0.00  0.00     0.001 A 
ATOM     11  C   UNL d   1      49.313  34.526  51.125  0.00  0.00     0.001 A 
ATOM     12  C   UNL d   1      51.719  33.872  52.270  0.00  0.00     0.013 A 
ATOM     13  C   UNL d   1      48.565  34.802  51.016  0.00  0.00     0.013 A 
ENDROOT
BRANCH   6  14
ATOM     14  S   UNL d   1      47.335  35.446  51.483  0.00  0.00     0.271 S 
ATOM     15  O   UNL d   1      47.054  34.646  51.443  0.00  0.00    -0.200 OA
ATOM     16  O   UNL d   1      47.651  36.228  51.530  0.00  0.00    -0.200 OA
BRANCH  14  17
ATOM     17  N   UNL d   1      46.583  35.742  51.350  0.00  0.00    -0.229 N 
ATOM     18  C   UNL d   1      46.101  35.385  50.796  0.00  0.00     0.092 A 
ATOM     19  C   UNL d   1      45.353  35.691  50.674  0.00  0.00     0.020 A 
ATOM     20  C   UNL d   1      45.079  36.340  51.090  0.00  0.00     0.003 A 
ATOM     21  C   UNL d   1      45.571  36.705  51.657  0.00  0.00     0.020 A 
ATOM     22  C   UNL d   1      44.314  36.642  50.956  0.00  0.00     0.000 C 
ATOM     23  C   UNL d   1      46.331  36.400  51.786  0.00  0.00     0.092 A 
ENDBRANCH  14  17
ENDBRANCH   6  14
BRANCH   3  24
ATOM     24  N   UNL d   1      49.540  35.249  53.907  0.00  0.00    -0.096 NA
ATOM     25  O   UNL d   1      49.618  36.073  54.029  0.00  0.00    -0.061 OA
ENDBRANCH   3  24
BRANCH   7  26
ATOM     26  S   UNL d   1      52.467  33.910  53.453  0.00  0.00     0.271 S 
ATOM     27  O   UNL d   1      52.771  34.667  53.240  0.00  0.00    -0.200 OA
ATOM     28  O   UNL d   1      52.149  33.169  53.652  0.00  0.00    -0.200 OA
BRANCH  26  29
ATOM     29  N   UNL d   1      53.176  33.757  53.877  0.00  0.00    -0.229 N 
ATOM     30  C   UNL d   1      53.339  34.223  54.535  0.00  0.00     0.092 A 
ATOM     31  C   UNL d   1      54.015  34.097  54.961  0.00  0.00     0.020 A 
ATOM     32  C   UNL d   1      54.552  33.506  54.752  0.00  0.00     0.003 A 
ATOM     33  C   UNL d   1      54.388  33.030  54.081  0.00  0.00     0.020 A 
ATOM     34  C   UNL d   1      55.247  33.389  55.204  0.00  0.00     0.000 C 
ATOM     35  C   UNL d   1      53.697  33.161  53.647  0.00  0.00     0.092 A 
ENDBRANCH  26  29
ENDBRANCH   7  26
TORSDOF 5
ENDMDL
MODEL 2
REMARK VINA RESULT:      -8.6      0.172      6.675
REMARK  5 active torsions:
REMARK  status: ('A' for Active; 'I' for Inactive)
REMARK    1  A    between atoms: N_8  and  S_1 
REMARK    2  A    between atoms: C_11  and  S_1 
REMARK    3  A    between atoms: S_2  and  C_10 
REMARK    4  A    between atoms: N_9  and  S_2 
REMARK    5  A    between atoms: N_20  and  C_5 
ROOT
ATOM      1  C   UNL d   1      49.311  34.894  52.469  0.00  0.00     0.021 A 
ATOM      2  C   UNL d   1      50.508  34.577  52.952  0.00  0.00     0.021 A 
ATOM      3  C   UNL d   1      49.787  34.918  53.157  0.00  0.00     0.111 A 
ATOM      4  C   UNL d   1      50.467  34.353  52.159  0.00  0.00     0.002 A 
ATOM      5  C   UNL d   1      49.718  34.558  51.878  0.00  0.00     0.002 A 
ATOM      6  C   UNL d   1      51.850  34.084  53.038  0.00  0.00     0.104 A 
ATOM      7  C   UNL d   1      48.176  35.075  51.617  0.00  0.00     0.104 A 
ATOM      8  C   UNL d   1      51.193  34.442  53.382  0.00  0.00     0.015 A 
ATOM      9  C   UNL d   1      48.532  35.161  52.355  0.00  0.00     0.015 A 
ATOM     10  C   UNL d   1      49.362  34.472  51.139  0.00  0.00     0.001 A 
ATOM     11  C   UNL d   1      51.118  33.992  51.797  0.00  0.00     0.001 A 
ATOM     12  C   UNL d   1      48.591  34.739  51.037  0.00  0.00     0.013 A 
ATOM     13  C   UNL d   1      51.783  33.867  52.233  0.00  0.00     0.013 A 
ENDROOT
BRANCH   6  14
ATOM     14  S   UNL d   1      52.557  33.943  53.475  0.00  0.00     0.271 S 
ATOM     15  O   UNL d   1      52.385  33.112  53.485  0.00  0.00    -0.200 OA
ATOM     16  O   UNL d   1      52.696  34.776  53.445  0.00  0.00    -0.200 OA
BRANCH  14  17
ATOM     17  N   UNL d   1      53.249  33.828  53.899  0.00  0.00    -0.229 N 
ATOM     18  C   UNL d   1      53.482  34.385  54.449  0.00  0.00     0.092 A 
ATOM     19  C   UNL d   1      54.173  34.258  54.865  0.00  0.00     0.020 A 
ATOM     20  C   UNL d   1      54.633  33.592  54.744  0.00  0.00     0.003 A 
ATOM     21  C   UNL d   1      54.397  33.023  54.182  0.00  0.00     0.020 A 
ATOM     22  C   UNL d   1      55.337  33.475  55.175  0.00  0.00     0.000 C 
ATOM     23  C   UNL d   1      53.695  33.145  53.756  0.00  0.00     0.092 A 
ENDBRANCH  14  17
ENDBRANCH   6  14
BRANCH   3  24
ATOM     24  N   UNL d   1      49.565  35.226  53.890  0.00  0.00    -0.096 NA
ATOM     25  O   UNL d   1      49.712  36.038  54.029  0.00  0.00    -0.061 OA
ENDBRANCH   3  24
BRANCH   7  26
ATOM     26  S   UNL d   1      47.398  35.331  51.469  0.00  0.00     0.271 S 
ATOM     27  O   UNL d   1      47.549  36.035  51.908  0.00  0.00    -0.200 OA
ATOM     28  O   UNL d   1      47.269  34.632  51.041  0.00  0.00    -0.200 OA
BRANCH  26  29
ATOM     29  N   UNL d   1      46.614  35.601  51.327  0.00  0.00    -0.229 N 
ATOM     30  C   UNL d   1      46.357  36.266  51.737  0.00  0.00     0.092 A 
ATOM     31  C   UNL d   1      45.607  36.547  51.619  0.00  0.00     0.020 A 
ATOM     32  C   UNL d   1      45.088  36.181  51.093  0.00  0.00     0.003 A 
ATOM     33  C   UNL d   1      45.348  35.502  50.674  0.00  0.00     0.020 A 
ATOM     34  C   UNL d   1      44.315  36.485  50.983  0.00  0.00     0.000 C 
ATOM     35  C   UNL d   1      46.115  35.217  50.796  0.00  0.00     0.092 A 
ENDBRANCH  26  29
ENDBRANCH   7  26
TORSDOF 5
ENDMDL
