MODEL 1
REMARK VINA RESULT:      -7.7      0.000      0.000
REMARK  4 active torsions:
REMARK  status: ('A' for Active; 'I' for Inactive)
REMARK    1  A    between atoms: C_5  and  C_4 
REMARK    2  A    between atoms: C_6  and  C_5 
REMARK       I    between atoms: N_11  and  C_6 
REMARK    3  A    between atoms: C_9  and  C_10 
REMARK    4  A    between atoms: C_14  and  N_11 
ROOT
ATOM      1  C   UNL d   1     -41.514-121.931 -51.290  0.00  0.00     0.074 C 
ENDROOT
BRANCH   1   2
ATOM      2  C   UNL d   1     -41.817-122.268 -50.616  0.00  0.00     0.092 A 
ATOM      3  C   UNL d   1     -42.623-122.173 -50.437  0.00  0.00     0.285 A 
ATOM      4  N   UNL d   1     -42.940-122.516 -49.747  0.00  0.00    -0.207 NA
ATOM      5  O   UNL d   1     -43.112-121.742 -50.936  0.00  0.00    -0.265 OA
ATOM      6  C   UNL d   1     -42.452-122.941 -49.257  0.00  0.00     0.091 A 
ATOM      7  C   UNL d   1     -41.646-123.036 -49.435  0.00  0.00     0.047 A 
ATOM      8  C   UNL d   1     -42.770-123.286 -48.564  0.00  0.00     0.020 A 
ATOM      9  S   UNL d   1     -41.342-122.704 -50.101  0.00  0.00    -0.080 SA
ATOM     10  C   UNL d   1     -41.179-123.468 -48.924  0.00  0.00     0.008 A 
ATOM     11  C   UNL d   1     -41.473-123.817 -48.234  0.00  0.00     0.001 A 
ATOM     12  C   UNL d   1     -42.279-123.722 -48.056  0.00  0.00     0.002 A 
ENDBRANCH   1   2
BRANCH   1  13
ATOM     13  C   UNL d   1     -41.555-122.315 -52.002  0.00  0.00     0.280 C 
ATOM     14  N   UNL d   1     -41.386-121.917 -52.700  0.00  0.00    -0.208 NA
ATOM     15  O   UNL d   1     -41.765-123.104 -52.023  0.00  0.00    -0.265 OA
BRANCH  14  16
ATOM     16  C   UNL d   1     -41.429-122.311 -53.416  0.00  0.00     0.085 A 
ATOM     17  C   UNL d   1     -41.770-121.942 -54.079  0.00  0.00     0.025 A 
ATOM     18  C   UNL d   1     -41.804-122.351 -54.787  0.00  0.00     0.066 A 
ATOM     19  C   UNL d   1     -41.522-123.086 -54.852  0.00  0.00     0.006 A 
ATOM     20  C   UNL d   1     -41.176-123.478 -54.199  0.00  0.00     0.002 A 
ATOM     21  C   UNL d   1     -41.138-123.071 -53.483  0.00  0.00     0.019 A 
BRANCH  18  22
ATOM     22  C   UNL d   1     -42.129-122.020 -55.451  0.00  0.00     0.211 C 
ATOM     23  O   UNL d   1     -42.905-122.165 -55.676  0.00  0.00    -0.644 OA
ATOM     24  O   UNL d   1     -41.647-121.528 -55.898  0.00  0.00    -0.644 OA
ENDBRANCH  18  22
ENDBRANCH  14  16
ENDBRANCH   1  13
TORSDOF 4
ENDMDL
