MODEL 1
REMARK VINA RESULT:      73.5      0.000      0.000
REMARK  6 active torsions:
REMARK  status: ('A' for Active; 'I' for Inactive)
REMARK    1  A    between atoms: N_6  and  C_1 
REMARK    2  A    between atoms: C_7  and  C_2 
REMARK       I    between atoms: C_8  and  N_6 
REMARK    3  A    between atoms: O_14  and  C_7 
REMARK    4  A    between atoms: C_10  and  C_8 
REMARK    5  A    between atoms: N_9  and  C_10 
REMARK    6  A    between atoms: C_21  and  O_14 
ROOT
ATOM      1  C   UNL d   1     -55.571-100.576 -43.442  0.00  0.00     0.119 A 
ATOM      2  C   UNL d   1     -55.414-101.356 -43.658  0.00  0.00     0.088 A 
ATOM      3  S   UNL d   1     -55.427-100.487 -42.649  0.00  0.00    -0.068 SA
ATOM      4  C   UNL d   1     -55.169-101.750 -42.985  0.00  0.00     0.013 A 
ATOM      5  C   UNL d   1     -55.177-101.209 -42.356  0.00  0.00     0.031 A 
ATOM      6  C   UNL d   1     -54.934-102.529 -42.835  0.00  0.00     0.001 A 
ATOM      7  C   UNL d   1     -54.951-101.453 -41.585  0.00  0.00     0.006 A 
ATOM      8  C   UNL d   1     -54.714-102.775 -42.096  0.00  0.00     0.000 A 
ATOM      9  C   UNL d   1     -54.723-102.234 -41.467  0.00  0.00     0.001 A 
ENDROOT
BRANCH   1  10
ATOM     10  N   UNL d   1     -55.833 -99.985 -43.955  0.00  0.00    -0.200 NA
ATOM     11  C   UNL d   1     -56.303 -99.363 -43.685  0.00  0.00     0.297 C 
ATOM     12  O   UNL d   1     -56.500 -99.354 -42.885  0.00  0.00    -0.264 OA
BRANCH  11  13
ATOM     13  C   UNL d   1     -56.555 -98.781 -44.214  0.00  0.00     0.144 C 
BRANCH  13  14
ATOM     14  N   UNL d   1     -57.289 -98.893 -44.578  0.00  0.00    -0.295 N 
ATOM     15  C   UNL d   1     -57.978 -98.756 -44.136  0.00  0.00     0.107 A 
ATOM     16  C   UNL d   1     -58.714 -98.866 -44.493  0.00  0.00     0.142 A 
ATOM     17  O   UNL d   1     -58.774 -99.105 -45.267  0.00  0.00    -0.300 OA
ATOM     18  C   UNL d   1     -58.085 -99.242 -45.709  0.00  0.00     0.142 A 
ATOM     19  C   UNL d   1     -57.362 -99.135 -45.361  0.00  0.00     0.107 A 
ENDBRANCH  13  14
ENDBRANCH  11  13
ENDBRANCH   1  10
BRANCH   2  20
ATOM     20  C   UNL d   1     -55.485-101.698 -44.418  0.00  0.00     0.302 C 
ATOM     21  O   UNL d   1     -55.909-102.412 -44.498  0.00  0.00    -0.259 OA
BRANCH  20  22
ATOM     22  O   UNL d   1     -55.142-101.331 -45.065  0.00  0.00    -0.271 OA
BRANCH  22  23
ATOM     23  C   UNL d   1     -55.239-101.640 -45.816  0.00  0.00     0.126 C 
ATOM     24  C   UNL d   1     -54.711-102.202 -46.099  0.00  0.00     0.029 C 
ENDBRANCH  22  23
ENDBRANCH  20  22
ENDBRANCH   2  20
TORSDOF 6
ENDMDL
MODEL 2
REMARK VINA RESULT:      75.6      2.703      4.177
REMARK  6 active torsions:
REMARK  status: ('A' for Active; 'I' for Inactive)
REMARK    1  A    between atoms: N_6  and  C_1 
REMARK    2  A    between atoms: C_7  and  C_2 
REMARK       I    between atoms: C_8  and  N_6 
REMARK    3  A    between atoms: O_14  and  C_7 
REMARK    4  A    between atoms: C_10  and  C_8 
REMARK    5  A    between atoms: N_9  and  C_10 
REMARK    6  A    between atoms: C_21  and  O_14 
ROOT
ATOM      1  C   UNL d   1     -57.883 -98.878 -43.688  0.00  0.00     0.119 A 
ATOM      2  C   UNL d   1     -57.811 -99.061 -44.489  0.00  0.00     0.088 A 
ATOM      3  S   UNL d   1     -57.142 -98.786 -43.370  0.00  0.00    -0.068 SA
ATOM      4  C   UNL d   1     -57.012 -99.081 -44.663  0.00  0.00     0.013 A 
ATOM      5  C   UNL d   1     -56.596 -98.909 -43.966  0.00  0.00     0.031 A 
ATOM      6  C   UNL d   1     -56.584 -99.229 -45.355  0.00  0.00     0.001 A 
ATOM      7  C   UNL d   1     -55.756 -98.889 -43.970  0.00  0.00     0.006 A 
ATOM      8  C   UNL d   1     -55.776 -99.212 -45.370  0.00  0.00     0.000 A 
ATOM      9  C   UNL d   1     -55.359 -99.041 -44.673  0.00  0.00     0.001 A 
ENDROOT
BRANCH   1  10
ATOM     10  N   UNL d   1     -58.596 -98.802 -43.280  0.00  0.00    -0.200 NA
ATOM     11  C   UNL d   1     -58.658 -99.010 -42.484  0.00  0.00     0.297 C 
ATOM     12  O   UNL d   1     -57.980 -99.297 -42.112  0.00  0.00    -0.264 OA
BRANCH  11  13
ATOM     13  C   UNL d   1     -59.380 -98.927 -42.094  0.00  0.00     0.144 C 
BRANCH  13  14
ATOM     14  N   UNL d   1     -59.438 -99.246 -41.333  0.00  0.00    -0.295 N 
ATOM     15  C   UNL d   1     -59.398-100.071 -41.242  0.00  0.00     0.107 A 
ATOM     16  C   UNL d   1     -59.455-100.395 -40.486  0.00  0.00     0.142 A 
ATOM     17  O   UNL d   1     -59.549 -99.924 -39.832  0.00  0.00    -0.300 OA
ATOM     18  C   UNL d   1     -59.588 -99.099 -39.922  0.00  0.00     0.142 A 
ATOM     19  C   UNL d   1     -59.533 -98.778 -40.663  0.00  0.00     0.107 A 
ENDBRANCH  13  14
ENDBRANCH  11  13
ENDBRANCH   1  10
BRANCH   2  20
ATOM     20  C   UNL d   1     -58.428 -99.203 -45.035  0.00  0.00     0.302 C 
ATOM     21  O   UNL d   1     -58.254 -99.176 -45.851  0.00  0.00    -0.259 OA
BRANCH  20  22
ATOM     22  O   UNL d   1     -59.184 -99.364 -44.765  0.00  0.00    -0.271 OA
BRANCH  22  23
ATOM     23  C   UNL d   1     -59.835 -99.045 -45.143  0.00  0.00     0.126 C 
ATOM     24  C   UNL d   1     -59.765 -98.756 -45.909  0.00  0.00     0.029 C 
ENDBRANCH  22  23
ENDBRANCH  20  22
ENDBRANCH   2  20
TORSDOF 6
ENDMDL
