MODEL 1
REMARK VINA RESULT:     100.5      0.000      0.000
REMARK  7 active torsions:
REMARK  status: ('A' for Active; 'I' for Inactive)
REMARK    1  A    between atoms: C_2  and  S_1 
REMARK    2  A    between atoms: N_5  and  S_1 
REMARK    3  A    between atoms: C_3  and  C_7 
REMARK       I    between atoms: N_8  and  C_3 
REMARK    4  A    between atoms: C_16  and  N_5 
REMARK    5  A    between atoms: C_21  and  N_8 
REMARK    6  A    between atoms: C_15  and  C_16 
REMARK    7  A    between atoms: C_30  and  C_23 
ROOT
ATOM      1  C   UNL d   1      60.940  47.012  50.717  0.00  0.00     0.133 A 
ATOM      2  C   UNL d   1      61.242  47.648  50.311  0.00  0.00     0.020 A 
ATOM      3  C   UNL d   1      61.177  48.406  50.631  0.00  0.00     0.059 A 
ATOM      4  C   UNL d   1      60.570  47.119  51.446  0.00  0.00     0.152 A 
ATOM      5  C   UNL d   1      60.806  48.514  51.360  0.00  0.00     0.007 A 
ATOM      6  C   UNL d   1      60.504  47.863  51.764  0.00  0.00     0.030 A 
ATOM      7  F   UNL d   1      60.259  46.454  51.863  0.00  0.00    -0.203 F 
ENDROOT
BRANCH   1   8
ATOM      8  S   UNL d   1      61.012  46.235  50.381  0.00  0.00     0.288 S 
ATOM      9  O   UNL d   1      61.660  46.491  49.941  0.00  0.00    -0.198 OA
ATOM     10  O   UNL d   1      60.351  45.997  50.838  0.00  0.00    -0.198 OA
BRANCH   8  11
ATOM     11  N   UNL d   1      61.064  45.488  50.071  0.00  0.00    -0.155 NA
BRANCH  11  12
ATOM     12  C   UNL d   1      60.914  44.822  50.537  0.00  0.00     0.139 C 
BRANCH  12  13
ATOM     13  C   UNL d   1      61.463  44.194  50.536  0.00  0.00     0.145 A 
ATOM     14  O   UNL d   1      61.472  43.640  51.142  0.00  0.00    -0.301 OA
ATOM     15  C   UNL d   1      62.022  43.022  51.129  0.00  0.00     0.123 A 
ATOM     16  C   UNL d   1      62.032  42.464  51.739  0.00  0.00     0.027 A 
ATOM     17  C   UNL d   1      62.561  42.965  50.506  0.00  0.00     0.123 A 
ATOM     18  C   UNL d   1      62.580  41.848  51.726  0.00  0.00     0.002 A 
ATOM     19  C   UNL d   1      63.120  41.788  51.103  0.00  0.00     0.002 A 
ATOM     20  C   UNL d   1      63.110  42.347  50.493  0.00  0.00     0.027 A 
ATOM     21  O   UNL d   1      62.551  43.519  49.900  0.00  0.00    -0.301 OA
ATOM     22  C   UNL d   1      62.003  44.132  49.916  0.00  0.00     0.149 A 
ENDBRANCH  12  13
ENDBRANCH  11  12
ENDBRANCH   8  11
ENDBRANCH   1   8
BRANCH   3  23
ATOM     23  C   UNL d   1      61.482  49.066  50.224  0.00  0.00     0.279 C 
ATOM     24  N   UNL d   1      60.996  49.707  50.039  0.00  0.00    -0.208 NA
ATOM     25  O   UNL d   1      62.271  49.076  50.006  0.00  0.00    -0.265 OA
BRANCH  24  26
ATOM     26  C   UNL d   1      60.201  49.697  50.258  0.00  0.00     0.085 A 
ATOM     27  C   UNL d   1      59.625  49.679  49.675  0.00  0.00     0.019 A 
ATOM     28  C   UNL d   1      58.823  49.669  49.896  0.00  0.00     0.002 A 
ATOM     29  C   UNL d   1      58.615  49.676  50.696  0.00  0.00     0.000 A 
ATOM     30  C   UNL d   1      59.201  49.695  51.267  0.00  0.00     0.002 A 
ATOM     31  C   UNL d   1      60.003  49.705  51.045  0.00  0.00     0.019 A 
BRANCH  29  32
ATOM     32  C   UNL d   1      57.826  49.666  50.919  0.00  0.00     0.000 C 
ATOM     33  C   UNL d   1      57.239  49.549  50.352  0.00  0.00     0.000 C 
ENDBRANCH  29  32
ENDBRANCH  24  26
ENDBRANCH   3  23
TORSDOF 7
ENDMDL
MODEL 2
REMARK VINA RESULT:     102.6      2.031      5.596
REMARK  7 active torsions:
REMARK  status: ('A' for Active; 'I' for Inactive)
REMARK    1  A    between atoms: C_2  and  S_1 
REMARK    2  A    between atoms: N_5  and  S_1 
REMARK    3  A    between atoms: C_3  and  C_7 
REMARK       I    between atoms: N_8  and  C_3 
REMARK    4  A    between atoms: C_16  and  N_5 
REMARK    5  A    between atoms: C_21  and  N_8 
REMARK    6  A    between atoms: C_15  and  C_16 
REMARK    7  A    between atoms: C_30  and  C_23 
ROOT
ATOM      1  C   UNL d   1      61.011  47.904  50.697  0.00  0.00     0.133 A 
ATOM      2  C   UNL d   1      61.578  47.720  50.145  0.00  0.00     0.020 A 
ATOM      3  C   UNL d   1      61.940  46.978  50.161  0.00  0.00     0.059 A 
ATOM      4  C   UNL d   1      60.796  47.355  51.274  0.00  0.00     0.152 A 
ATOM      5  C   UNL d   1      61.725  46.429  50.738  0.00  0.00     0.007 A 
ATOM      6  C   UNL d   1      61.149  46.625  51.294  0.00  0.00     0.030 A 
ATOM      7  F   UNL d   1      60.207  47.554  51.845  0.00  0.00    -0.203 F 
ENDROOT
BRANCH   1   8
ATOM      8  S   UNL d   1      60.644  48.670  50.673  0.00  0.00     0.288 S 
ATOM      9  O   UNL d   1      61.306  48.993  51.042  0.00  0.00    -0.198 OA
ATOM     10  O   UNL d   1      59.981  48.319  50.298  0.00  0.00    -0.198 OA
BRANCH   8  11
ATOM     11  N   UNL d   1      60.277  49.392  50.640  0.00  0.00    -0.155 NA
BRANCH  11  12
ATOM     12  C   UNL d   1      59.921  49.658  49.943  0.00  0.00     0.139 C 
BRANCH  12  13
ATOM     13  C   UNL d   1      59.089  49.670  49.892  0.00  0.00     0.145 A 
ATOM     14  O   UNL d   1      58.624  49.657  50.568  0.00  0.00    -0.301 OA
ATOM     15  C   UNL d   1      57.799  49.668  50.504  0.00  0.00     0.123 A 
ATOM     16  C   UNL d   1      57.331  49.655  51.185  0.00  0.00     0.027 A 
ATOM     17  C   UNL d   1      57.446  49.693  49.759  0.00  0.00     0.123 A 
ATOM     18  C   UNL d   1      56.509  49.667  51.121  0.00  0.00     0.002 A 
ATOM     19  C   UNL d   1      56.153  49.692  50.376  0.00  0.00     0.002 A 
ATOM     20  C   UNL d   1      56.621  49.705  49.694  0.00  0.00     0.027 A 
ATOM     21  O   UNL d   1      57.911  49.706  49.082  0.00  0.00    -0.301 OA
ATOM     22  C   UNL d   1      58.731  49.694  49.149  0.00  0.00     0.149 A 
ENDBRANCH  12  13
ENDBRANCH  11  12
ENDBRANCH   8  11
ENDBRANCH   1   8
BRANCH   3  23
ATOM     23  C   UNL d   1      62.522  46.778  49.599  0.00  0.00     0.279 C 
ATOM     24  N   UNL d   1      62.464  46.077  49.166  0.00  0.00    -0.208 NA
ATOM     25  O   UNL d   1      63.156  47.281  49.478  0.00  0.00    -0.265 OA
BRANCH  24  26
ATOM     26  C   UNL d   1      61.825  45.570  49.288  0.00  0.00     0.085 A 
ATOM     27  C   UNL d   1      61.762  44.890  48.834  0.00  0.00     0.019 A 
ATOM     28  C   UNL d   1      61.117  44.378  48.958  0.00  0.00     0.002 A 
ATOM     29  C   UNL d   1      60.550  44.558  49.532  0.00  0.00     0.000 A 
ATOM     30  C   UNL d   1      60.628  45.241  49.977  0.00  0.00     0.002 A 
ATOM     31  C   UNL d   1      61.272  45.752  49.854  0.00  0.00     0.019 A 
BRANCH  29  32
ATOM     32  C   UNL d   1      59.914  44.058  49.657  0.00  0.00     0.000 C 
ATOM     33  C   UNL d   1      59.490  43.761  49.015  0.00  0.00     0.000 C 
ENDBRANCH  29  32
ENDBRANCH  24  26
ENDBRANCH   3  23
TORSDOF 7
ENDMDL
