MODEL 1
REMARK VINA RESULT:      15.2      0.000      0.000
REMARK  3 active torsions:
REMARK  status: ('A' for Active; 'I' for Inactive)
REMARK    1  A    between atoms: S_6  and  C_1 
REMARK    2  A    between atoms: C_9  and  S_6 
REMARK    3  A    between atoms: C_7  and  C_9 
REMARK       I    between atoms: N_8  and  C_7 
ROOT
ATOM      1  C   UNL d   1      46.242 -17.912  43.918  0.00  0.00     0.049 A 
ATOM      2  N   UNL d   1      46.485 -18.571  42.780  0.00  0.00    -0.245 NA
ATOM      3  C   UNL d   1      46.320 -17.828  43.102  0.00  0.00     0.087 A 
ATOM      4  C   UNL d   1      46.356 -18.703  44.112  0.00  0.00     0.025 A 
ATOM      5  C   UNL d   1      46.507 -19.115  43.413  0.00  0.00     0.082 A 
ATOM      6  C   UNL d   1      46.246 -17.120  42.687  0.00  0.00     0.021 C 
ATOM      7  C   UNL d   1      46.344 -19.108  44.828  0.00  0.00     0.002 A 
ATOM      8  C   UNL d   1      46.646 -19.930  43.430  0.00  0.00     0.019 A 
ATOM      9  C   UNL d   1      46.481 -19.919  44.858  0.00  0.00     0.000 A 
ATOM     10  C   UNL d   1      46.633 -20.330  44.145  0.00  0.00     0.002 A 
ENDROOT
BRANCH   1  11
ATOM     11  S   UNL d   1      46.074 -17.303  44.460  0.00  0.00    -0.080 SA
BRANCH  11  12
ATOM     12  C   UNL d   1      45.971 -16.529  44.182  0.00  0.00     0.097 C 
BRANCH  12  13
ATOM     13  C   UNL d   1      45.429 -16.031  44.564  0.00  0.00     0.272 C 
ATOM     14  N   UNL d   1      45.558 -15.208  44.551  0.00  0.00    -0.267 N 
ATOM     15  C   UNL d   1      45.019 -14.709  44.932  0.00  0.00     0.110 A 
ATOM     16  C   UNL d   1      46.218 -14.891  44.162  0.00  0.00     0.110 A 
ATOM     17  C   UNL d   1      45.146 -13.890  44.920  0.00  0.00     0.142 A 
ATOM     18  O   UNL d   1      45.805 -13.569  44.532  0.00  0.00    -0.300 OA
ATOM     19  C   UNL d   1      46.341 -14.079  44.152  0.00  0.00     0.142 A 
ATOM     20  O   UNL d   1      44.767 -16.344  44.955  0.00  0.00    -0.266 OA
ENDBRANCH  12  13
ENDBRANCH  11  12
ENDBRANCH   1  11
TORSDOF 3
ENDMDL
MODEL 2
REMARK VINA RESULT:      15.6      1.357      4.441
REMARK  3 active torsions:
REMARK  status: ('A' for Active; 'I' for Inactive)
REMARK    1  A    between atoms: S_6  and  C_1 
REMARK    2  A    between atoms: C_9  and  S_6 
REMARK    3  A    between atoms: C_7  and  C_9 
REMARK       I    between atoms: N_8  and  C_7 
ROOT
ATOM      1  C   UNL d   1      45.527 -15.547  44.686  0.00  0.00     0.049 A 
ATOM      2  N   UNL d   1      44.467 -14.738  44.794  0.00  0.00    -0.245 NA
ATOM      3  C   UNL d   1      44.714 -15.527  44.819  0.00  0.00     0.087 A 
ATOM      4  C   UNL d   1      45.793 -14.777  44.577  0.00  0.00     0.025 A 
ATOM      5  C   UNL d   1      45.144 -14.273  44.643  0.00  0.00     0.082 A 
ATOM      6  C   UNL d   1      44.237 -16.185  44.953  0.00  0.00     0.021 C 
ATOM      7  C   UNL d   1      46.538 -14.462  44.427  0.00  0.00     0.002 A 
ATOM      8  C   UNL d   1      45.238 -13.456  44.559  0.00  0.00     0.019 A 
ATOM      9  C   UNL d   1      46.645 -13.650  44.341  0.00  0.00     0.000 A 
ATOM     10  C   UNL d   1      45.981 -13.146  44.409  0.00  0.00     0.002 A 
ENDROOT
BRANCH   1  11
ATOM     11  S   UNL d   1      46.004 -16.229  44.663  0.00  0.00    -0.080 SA
BRANCH  11  12
ATOM     12  C   UNL d   1      45.895 -16.781  44.055  0.00  0.00     0.097 C 
BRANCH  12  13
ATOM     13  C   UNL d   1      46.142 -17.564  44.170  0.00  0.00     0.272 C 
ATOM     14  N   UNL d   1      46.269 -18.050  43.506  0.00  0.00    -0.267 N 
ATOM     15  C   UNL d   1      46.515 -18.831  43.618  0.00  0.00     0.110 A 
ATOM     16  C   UNL d   1      46.151 -17.756  42.739  0.00  0.00     0.110 A 
ATOM     17  C   UNL d   1      46.642 -19.316  42.958  0.00  0.00     0.142 A 
ATOM     18  O   UNL d   1      46.524 -19.025  42.190  0.00  0.00    -0.300 OA
ATOM     19  C   UNL d   1      46.277 -18.238  42.086  0.00  0.00     0.142 A 
ATOM     20  O   UNL d   1      46.262 -17.863  44.935  0.00  0.00    -0.266 OA
ENDBRANCH  12  13
ENDBRANCH  11  12
ENDBRANCH   1  11
TORSDOF 3
ENDMDL
