MODEL 1
REMARK VINA RESULT:      32.4      0.000      0.000
REMARK  7 active torsions:
REMARK  status: ('A' for Active; 'I' for Inactive)
REMARK    1  A    between atoms: C_2  and  S_1 
REMARK    2  A    between atoms: N_3  and  S_1 
REMARK    3  A    between atoms: C_15  and  N_3 
REMARK    4  A    between atoms: C_6  and  C_16 
REMARK       I    between atoms: N_7  and  C_6 
REMARK    5  A    between atoms: C_8  and  N_7 
REMARK    6  A    between atoms: C_17  and  C_15 
REMARK    7  A    between atoms: C_16  and  C_17 
ROOT
ATOM      1  N   UNL d   1     -55.142-100.066 -44.658  0.00  0.00    -0.228 N 
ATOM      2  C   UNL d   1     -54.711 -99.648 -45.231  0.00  0.00     0.111 C 
ENDROOT
BRANCH   1   3
ATOM      3  S   UNL d   1     -54.995-100.870 -44.539  0.00  0.00     0.271 S 
ATOM      4  O   UNL d   1     -54.904-101.368 -45.187  0.00  0.00    -0.200 OA
ATOM      5  O   UNL d   1     -55.085-100.375 -43.881  0.00  0.00    -0.200 OA
BRANCH   3   6
ATOM      6  C   UNL d   1     -54.940-101.170 -43.763  0.00  0.00     0.104 A 
ATOM      7  C   UNL d   1     -54.782-101.973 -43.658  0.00  0.00     0.013 A 
ATOM      8  C   UNL d   1     -54.727-102.270 -42.890  0.00  0.00     0.001 A 
ATOM      9  C   UNL d   1     -54.830-101.770 -42.239  0.00  0.00     0.000 A 
ATOM     10  C   UNL d   1     -54.988-100.969 -42.359  0.00  0.00     0.001 A 
ATOM     11  C   UNL d   1     -54.774-102.074 -41.474  0.00  0.00     0.000 C 
ATOM     12  C   UNL d   1     -55.043-100.669 -43.125  0.00  0.00     0.013 A 
ENDBRANCH   3   6
ENDBRANCH   1   3
BRANCH   1  13
ATOM     13  C   UNL d   1     -55.715 -99.676 -44.210  0.00  0.00     0.092 C 
BRANCH  13  14
ATOM     14  C   UNL d   1     -56.424 -99.448 -44.558  0.00  0.00     0.025 C 
BRANCH  14  15
ATOM     15  C   UNL d   1     -56.914 -98.903 -44.178  0.00  0.00     0.064 C 
BRANCH  15  16
ATOM     16  C   UNL d   1     -57.732 -98.957 -44.258  0.00  0.00     0.275 C 
ATOM     17  N   UNL d   1     -58.222 -98.806 -43.611  0.00  0.00    -0.238 NA
ATOM     18  O   UNL d   1     -58.065 -99.161 -44.977  0.00  0.00    -0.266 OA
BRANCH  17  19
ATOM     19  C   UNL d   1     -59.043 -98.859 -43.685  0.00  0.00     0.088 C 
ATOM     20  C   UNL d   1     -59.399 -98.804 -44.428  0.00  0.00     0.025 C 
ATOM     21  C   UNL d   1     -59.504 -98.966 -43.011  0.00  0.00     0.025 C 
ATOM     22  C   UNL d   1     -58.414 -98.755 -44.210  0.00  0.00     0.025 C 
ENDBRANCH  17  19
ENDBRANCH  15  16
ENDBRANCH  14  15
ENDBRANCH  13  14
ENDBRANCH   1  13
TORSDOF 7
ENDMDL
