MODEL 1
REMARK VINA RESULT:      71.0      0.000      0.000
REMARK  4 active torsions:
REMARK  status: ('A' for Active; 'I' for Inactive)
REMARK    1  A    between atoms: S_5  and  C_2 
REMARK    2  A    between atoms: C_16  and  S_5 
REMARK    3  A    between atoms: N_11  and  C_8 
REMARK    4  A    between atoms: C_12  and  N_11 
ROOT
ATOM      1  C   UNL d   1     -54.748-101.575 -41.934  0.00  0.00     0.197 A 
ATOM      2  C   UNL d   1     -54.739-102.019 -41.234  0.00  0.00     0.227 A 
ATOM      3  N   UNL d   1     -54.733-102.105 -42.569  0.00  0.00    -0.192 N 
ATOM      4  N   UNL d   1     -54.768-100.763 -42.077  0.00  0.00    -0.206 NA
ATOM      5  N   UNL d   1     -54.718-102.820 -41.436  0.00  0.00    -0.115 NA
ATOM      6  N   UNL d   1     -54.714-102.877 -42.264  0.00  0.00    -0.058 NA
ATOM      7  C   UNL d   1     -54.773-100.477 -42.855  0.00  0.00     0.166 A 
ATOM      8  C   UNL d   1     -54.758-101.010 -43.484  0.00  0.00     0.054 A 
ATOM      9  C   UNL d   1     -54.738-101.824 -43.349  0.00  0.00     0.089 A 
ATOM     10  C   UNL d   1     -54.763-100.728 -44.266  0.00  0.00     0.005 A 
ATOM     11  C   UNL d   1     -54.723-102.353 -43.980  0.00  0.00     0.019 A 
ATOM     12  C   UNL d   1     -54.748-101.258 -44.896  0.00  0.00     0.000 A 
ATOM     13  C   UNL d   1     -54.728-102.070 -44.753  0.00  0.00     0.002 A 
ENDROOT
BRANCH   2  14
ATOM     14  S   UNL d   1     -54.749-101.711 -40.467  0.00  0.00     0.231 S 
ATOM     15  O   UNL d   1     -54.762-100.940 -40.754  0.00  0.00    -0.215 OA
ATOM     16  O   UNL d   1     -54.735-102.484 -40.184  0.00  0.00    -0.215 OA
BRANCH  14  17
ATOM     17  C   UNL d   1     -54.758-101.446 -39.692  0.00  0.00     0.090 A 
ATOM     18  C   UNL d   1     -54.713-100.635 -39.537  0.00  0.00     0.011 A 
ATOM     19  C   UNL d   1     -54.721-100.365 -38.766  0.00  0.00     0.001 A 
ATOM     20  C   UNL d   1     -54.775-100.901 -38.138  0.00  0.00     0.000 A 
ATOM     21  C   UNL d   1     -54.820-101.712 -38.296  0.00  0.00     0.001 A 
ATOM     22  C   UNL d   1     -54.811-101.978 -39.068  0.00  0.00     0.011 A 
ENDBRANCH  14  17
ENDBRANCH   2  14
BRANCH   7  23
ATOM     23  N   UNL d   1     -54.794 -99.664 -42.998  0.00  0.00    -0.227 NA
BRANCH  23  24
ATOM     24  C   UNL d   1     -55.157 -99.374 -43.676  0.00  0.00     0.083 A 
ATOM     25  C   UNL d   1     -55.967 -99.210 -43.674  0.00  0.00     0.018 A 
ATOM     26  C   UNL d   1     -56.330 -98.920 -44.353  0.00  0.00     0.002 A 
ATOM     27  C   UNL d   1     -56.411 -99.338 -42.988  0.00  0.00     0.002 C 
ATOM     28  C   UNL d   1     -57.139 -98.756 -44.351  0.00  0.00     0.000 C 
ATOM     29  C   UNL d   1     -55.886 -98.791 -45.042  0.00  0.00     0.000 A 
ATOM     30  C   UNL d   1     -55.073 -98.958 -45.037  0.00  0.00     0.002 A 
ATOM     31  C   UNL d   1     -54.713 -99.247 -44.358  0.00  0.00     0.019 A 
ENDBRANCH  23  24
ENDBRANCH   7  23
TORSDOF 4
ENDMDL
