MODEL 1
REMARK VINA RESULT:      -1.4      0.000      0.000
REMARK  9 active torsions:
REMARK  status: ('A' for Active; 'I' for Inactive)
REMARK    1  A    between atoms: C_2  and  C_1 
REMARK    2  A    between atoms: C_3  and  C_1 
REMARK    3  A    between atoms: C_12  and  C_1 
REMARK    4  A    between atoms: C_13  and  N_4 
REMARK    5  A    between atoms: C_14  and  N_5 
REMARK    6  A    between atoms: C_17  and  C_12 
REMARK    7  A    between atoms: N_16  and  C_15 
REMARK    8  A    between atoms: C_32  and  N_16 
REMARK    9  A    between atoms: C_33  and  N_16 
ROOT
ATOM      1  C   UNL d   1     -39.398  14.201  19.579  0.00  0.00     0.075 C 
ENDROOT
BRANCH   1   2
ATOM      2  C   UNL d   1     -39.191  13.608  19.045  0.00  0.00     0.191 A 
ATOM      3  N   UNL d   1     -39.366  13.598  18.249  0.00  0.00    -0.192 N 
ATOM      4  N   UNL d   1     -39.057  12.908  17.929  0.00  0.00    -0.039 NA
ATOM      5  N   UNL d   1     -38.693  12.495  18.531  0.00  0.00    -0.022 NA
ATOM      6  N   UNL d   1     -38.773  12.919  19.214  0.00  0.00    -0.108 NA
BRANCH   3   7
ATOM      7  C   UNL d   1     -39.775  14.155  17.800  0.00  0.00     0.086 A 
ATOM      8  C   UNL d   1     -40.576  14.278  17.903  0.00  0.00     0.019 A 
ATOM      9  C   UNL d   1     -40.978  14.836  17.450  0.00  0.00     0.002 A 
ATOM     10  C   UNL d   1     -40.580  15.273  16.895  0.00  0.00     0.000 A 
ATOM     11  C   UNL d   1     -39.771  15.162  16.778  0.00  0.00     0.002 A 
ATOM     12  C   UNL d   1     -40.988  15.840  16.435  0.00  0.00     0.000 C 
ATOM     13  C   UNL d   1     -39.368  14.603  17.231  0.00  0.00     0.019 A 
ENDBRANCH   3   7
ENDBRANCH   1   2
BRANCH   1  14
ATOM     14  C   UNL d   1     -38.879  14.821  19.705  0.00  0.00     0.191 A 
ATOM     15  N   UNL d   1     -38.393  14.811  20.358  0.00  0.00    -0.192 N 
ATOM     16  N   UNL d   1     -37.940  15.490  20.344  0.00  0.00    -0.039 NA
ATOM     17  N   UNL d   1     -38.137  15.922  19.692  0.00  0.00    -0.022 NA
ATOM     18  N   UNL d   1     -38.724  15.508  19.291  0.00  0.00    -0.108 NA
BRANCH  15  19
ATOM     19  C   UNL d   1     -38.366  14.226  20.922  0.00  0.00     0.086 A 
ATOM     20  C   UNL d   1     -37.974  13.521  20.770  0.00  0.00     0.019 A 
ATOM     21  C   UNL d   1     -37.941  12.926  21.330  0.00  0.00     0.002 A 
ATOM     22  C   UNL d   1     -38.313  13.046  22.061  0.00  0.00     0.000 A 
ATOM     23  C   UNL d   1     -38.707  13.747  22.219  0.00  0.00     0.002 A 
ATOM     24  C   UNL d   1     -38.285  12.441  22.642  0.00  0.00     0.000 C 
ATOM     25  C   UNL d   1     -38.734  14.340  21.648  0.00  0.00     0.019 A 
ENDBRANCH  15  19
ENDBRANCH   1  14
BRANCH   1  26
ATOM     26  C   UNL d   1     -40.212  14.304  20.131  0.00  0.00     0.006 C 
BRANCH  26  27
ATOM     27  C   UNL d   1     -40.911  13.921  20.386  0.00  0.00     0.000 A 
ATOM     28  C   UNL d   1     -41.291  13.174  20.118  0.00  0.00     0.002 A 
ATOM     29  C   UNL d   1     -42.041  12.897  20.493  0.00  0.00     0.018 A 
ATOM     30  C   UNL d   1     -42.417  13.369  21.143  0.00  0.00     0.064 A 
ATOM     31  C   UNL d   1     -42.030  14.125  21.413  0.00  0.00     0.018 A 
ATOM     32  C   UNL d   1     -41.287  14.399  21.041  0.00  0.00     0.002 A 
BRANCH  30  33
ATOM     33  N   UNL d   1     -43.171  13.087  21.518  0.00  0.00    -0.304 N 
BRANCH  33  34
ATOM     34  C   UNL d   1     -43.243  12.246  21.777  0.00  0.00     0.080 C 
ATOM     35  C   UNL d   1     -43.841  12.019  22.392  0.00  0.00     0.021 C 
ENDBRANCH  33  34
BRANCH  33  36
ATOM     36  C   UNL d   1     -43.846  13.649  21.630  0.00  0.00     0.080 C 
ATOM     37  C   UNL d   1     -44.679  13.372  21.512  0.00  0.00     0.021 C 
ENDBRANCH  33  36
ENDBRANCH  30  33
ENDBRANCH  26  27
ENDBRANCH   1  26
TORSDOF 9
ENDMDL
