MODEL 1
REMARK VINA RESULT:      33.1      0.000      0.000
REMARK  4 active torsions:
REMARK  status: ('A' for Active; 'I' for Inactive)
REMARK    1  A    between atoms: N_2  and  S_1 
REMARK    2  A    between atoms: C_3  and  S_1 
REMARK    3  A    between atoms: O_19  and  C_14 
REMARK    4  A    between atoms: O_20  and  C_17 
ROOT
ATOM      1  S   UNL d   1      45.988 -16.988  44.269  0.00  0.00     0.275 S 
ATOM      2  O   UNL d   1      46.553 -16.862  44.953  0.00  0.00    -0.199 OA
ATOM      3  O   UNL d   1      45.419 -17.113  43.581  0.00  0.00    -0.199 OA
ENDROOT
BRANCH   1   4
ATOM      4  N   UNL d   1      46.223 -17.849  44.252  0.00  0.00    -0.212 N 
ATOM      5  C   UNL d   1      46.320 -18.236  43.548  0.00  0.00     0.094 A 
ATOM      6  C   UNL d   1      46.535 -19.023  43.532  0.00  0.00     0.100 A 
ATOM      7  C   UNL d   1      46.199 -17.828  42.854  0.00  0.00     0.020 A 
ATOM      8  C   UNL d   1      46.630 -19.404  42.818  0.00  0.00     0.021 A 
ATOM      9  N   UNL d   1      46.559 -19.045  44.937  0.00  0.00    -0.223 NA
ATOM     10  C   UNL d   1      46.510 -19.001  42.116  0.00  0.00     0.002 A 
ATOM     11  C   UNL d   1      46.295 -18.214  42.131  0.00  0.00     0.002 A 
ATOM     12  C   UNL d   1      46.605 -19.382  41.396  0.00  0.00     0.000 C 
ATOM     13  C   UNL d   1      46.174 -17.803  41.436  0.00  0.00     0.000 C 
ATOM     14  C   UNL d   1      46.344 -18.258  44.953  0.00  0.00     0.193 A 
ENDBRANCH   1   4
BRANCH   1  15
ATOM     15  C   UNL d   1      45.754 -16.124  44.289  0.00  0.00     0.128 A 
ATOM     16  C   UNL d   1      46.322 -15.487  43.992  0.00  0.00     0.039 A 
ATOM     17  C   UNL d   1      46.081 -14.625  44.015  0.00  0.00     0.095 A 
ATOM     18  C   UNL d   1      45.279 -14.395  44.331  0.00  0.00     0.026 A 
ATOM     19  C   UNL d   1      44.712 -15.023  44.626  0.00  0.00     0.027 A 
ATOM     20  C   UNL d   1      44.957 -15.881  44.601  0.00  0.00     0.106 A 
BRANCH  17  21
ATOM     21  O   UNL d   1      46.636 -13.994  43.725  0.00  0.00    -0.328 OA
ATOM     22  C   UNL d   1      46.329 -13.149  43.611  0.00  0.00     0.181 C 
ENDBRANCH  17  21
BRANCH  20  23
ATOM     23  O   UNL d   1      44.391 -16.519  44.897  0.00  0.00    -0.327 OA
ATOM     24  C   UNL d   1      43.511 -16.333  44.955  0.00  0.00     0.181 C 
ENDBRANCH  20  23
ENDBRANCH   1  15
TORSDOF 4
ENDMDL
