MODEL 1
REMARK VINA RESULT:      54.1      0.000      0.000
REMARK  3 active torsions:
REMARK  status: ('A' for Active; 'I' for Inactive)
REMARK    1  A    between atoms: C_14  and  C_1 
REMARK    2  A    between atoms: C_3  and  C_8 
REMARK       I    between atoms: C_8  and  N_13 
REMARK    3  A    between atoms: N_13  and  C_15 
ROOT
ATOM      1  C   UNL d   1      14.895  15.049  -1.430  0.00  0.00     0.025 A 
ATOM      2  C   UNL d   1      15.460  14.022  -0.603  0.00  0.00     0.085 A 
ATOM      3  C   UNL d   1      15.481  14.482  -1.288  0.00  0.00     0.021 A 
ATOM      4  C   UNL d   1      14.306  15.171  -0.927  0.00  0.00     0.002 A 
ATOM      5  C   UNL d   1      14.266  14.734  -0.251  0.00  0.00     0.002 A 
ATOM      6  C   UNL d   1      14.832  14.144  -0.054  0.00  0.00     0.019 A 
ENDROOT
BRANCH   2   7
ATOM      7  N   UNL d   1      16.029  13.458  -0.446  0.00  0.00    -0.206 NA
ATOM      8  C   UNL d   1      15.847  12.653  -0.584  0.00  0.00     0.302 C 
ATOM      9  O   UNL d   1      16.448  12.073  -0.417  0.00  0.00    -0.263 OA
BRANCH   8  10
ATOM     10  C   UNL d   1      15.132  12.447  -0.863  0.00  0.00     0.161 A 
ATOM     11  C   UNL d   1      14.572  12.267  -0.302  0.00  0.00     0.072 A 
ATOM     12  C   UNL d   1      13.829  12.052  -0.576  0.00  0.00     0.200 A 
ATOM     13  O   UNL d   1      13.259  11.869  -0.038  0.00  0.00    -0.286 OA
ATOM     14  C   UNL d   1      13.657  12.019  -1.382  0.00  0.00     0.062 A 
ATOM     15  C   UNL d   1      14.236  12.205  -1.940  0.00  0.00     0.103 A 
ATOM     16  C   UNL d   1      12.913  11.805  -1.662  0.00  0.00     0.005 A 
ATOM     17  O   UNL d   1      14.992  12.424  -1.692  0.00  0.00    -0.302 OA
ATOM     18  C   UNL d   1      14.050  12.169  -2.762  0.00  0.00     0.025 A 
ATOM     19  C   UNL d   1      13.325  11.959  -3.033  0.00  0.00     0.002 A 
ATOM     20  C   UNL d   1      12.769  11.781  -2.479  0.00  0.00     0.000 A 
ENDBRANCH   8  10
ENDBRANCH   2   7
BRANCH   1  21
ATOM     21  C   UNL d   1      14.952  15.497  -2.141  0.00  0.00     0.111 A 
ATOM     22  N   UNL d   1      14.974  15.270  -2.933  0.00  0.00    -0.239 NA
ATOM     23  C   UNL d   1      15.034  15.950  -3.398  0.00  0.00     0.088 A 
ATOM     24  C   UNL d   1      15.079  16.098  -4.214  0.00  0.00     0.020 A 
ATOM     25  C   UNL d   1      15.047  16.590  -2.880  0.00  0.00     0.049 A 
ATOM     26  C   UNL d   1      15.138  16.875  -4.541  0.00  0.00     0.002 A 
ATOM     27  C   UNL d   1      15.151  17.532  -4.005  0.00  0.00     0.001 A 
ATOM     28  C   UNL d   1      15.105  17.370  -3.177  0.00  0.00     0.008 A 
ATOM     29  S   UNL d   1      14.995  16.293  -2.095  0.00  0.00    -0.066 SA
ENDBRANCH   1  21
TORSDOF 3
ENDMDL
MODEL 2
REMARK VINA RESULT:      56.0      1.004      1.298
REMARK  3 active torsions:
REMARK  status: ('A' for Active; 'I' for Inactive)
REMARK    1  A    between atoms: C_14  and  C_1 
REMARK    2  A    between atoms: C_3  and  C_8 
REMARK       I    between atoms: C_8  and  N_13 
REMARK    3  A    between atoms: N_13  and  C_15 
ROOT
ATOM      1  C   UNL d   1      14.691  14.967  -0.610  0.00  0.00     0.025 A 
ATOM      2  C   UNL d   1      15.145  13.652  -0.259  0.00  0.00     0.085 A 
ATOM      3  C   UNL d   1      15.300  14.409  -0.549  0.00  0.00     0.021 A 
ATOM      4  C   UNL d   1      13.955  14.800  -0.400  0.00  0.00     0.002 A 
ATOM      5  C   UNL d   1      13.781  14.067  -0.114  0.00  0.00     0.002 A 
ATOM      6  C   UNL d   1      14.358  13.461  -0.030  0.00  0.00     0.019 A 
ENDROOT
BRANCH   2   7
ATOM      7  N   UNL d   1      15.733  13.088  -0.192  0.00  0.00    -0.206 NA
ATOM      8  C   UNL d   1      15.642  12.361  -0.593  0.00  0.00     0.302 C 
ATOM      9  O   UNL d   1      16.261  11.781  -0.515  0.00  0.00    -0.263 OA
BRANCH   8  10
ATOM     10  C   UNL d   1      14.993  12.224  -1.032  0.00  0.00     0.161 A 
ATOM     11  C   UNL d   1      14.311  12.074  -0.618  0.00  0.00     0.072 A 
ATOM     12  C   UNL d   1      13.633  11.931  -1.058  0.00  0.00     0.200 A 
ATOM     13  O   UNL d   1      12.946  11.780  -0.668  0.00  0.00    -0.286 OA
ATOM     14  C   UNL d   1      13.643  11.939  -1.883  0.00  0.00     0.062 A 
ATOM     15  C   UNL d   1      14.344  12.094  -2.290  0.00  0.00     0.103 A 
ATOM     16  C   UNL d   1      12.966  11.797  -2.329  0.00  0.00     0.005 A 
ATOM     17  O   UNL d   1      15.039  12.241  -1.872  0.00  0.00    -0.302 OA
ATOM     18  C   UNL d   1      14.343  12.100  -3.134  0.00  0.00     0.025 A 
ATOM     19  C   UNL d   1      13.683  11.961  -3.567  0.00  0.00     0.002 A 
ATOM     20  C   UNL d   1      13.006  11.812  -3.158  0.00  0.00     0.000 A 
ENDBRANCH   8  10
ENDBRANCH   2   7
BRANCH   1  21
ATOM     21  C   UNL d   1      14.891  15.728  -0.910  0.00  0.00     0.111 A 
ATOM     22  N   UNL d   1      15.324  16.349  -0.586  0.00  0.00    -0.239 NA
ATOM     23  C   UNL d   1      15.342  16.969  -1.134  0.00  0.00     0.088 A 
ATOM     24  C   UNL d   1      15.678  17.728  -1.146  0.00  0.00     0.020 A 
ATOM     25  C   UNL d   1      14.916  16.715  -1.791  0.00  0.00     0.049 A 
ATOM     26  C   UNL d   1      15.604  18.256  -1.801  0.00  0.00     0.002 A 
ATOM     27  C   UNL d   1      15.164  17.992  -2.477  0.00  0.00     0.001 A 
ATOM     28  C   UNL d   1      14.827  17.217  -2.454  0.00  0.00     0.008 A 
ATOM     29  S   UNL d   1      14.638  15.936  -1.639  0.00  0.00    -0.066 SA
ENDBRANCH   1  21
TORSDOF 3
ENDMDL
