MODEL 1
REMARK VINA RESULT:      -9.7      0.000      0.000
REMARK  1 active torsions:
REMARK  status: ('A' for Active; 'I' for Inactive)
REMARK    1  A    between atoms: C_10  and  C_4 
ROOT
ATOM      1  C   UNL d   1     -47.687  13.802  22.792  0.00  0.00     0.111 A 
ATOM      2  C   UNL d   1     -47.538  12.416  23.161  0.00  0.00     0.062 A 
ATOM      3  C   UNL d   1     -46.907  13.936  22.949  0.00  0.00     0.213 A 
ATOM      4  C   UNL d   1     -48.023  13.025  22.897  0.00  0.00     0.018 A 
ATOM      5  C   UNL d   1     -46.716  12.565  23.324  0.00  0.00     0.105 A 
ATOM      6  O   UNL d   1     -46.410  13.286  23.226  0.00  0.00    -0.287 OA
ATOM      7  C   UNL d   1     -48.169  14.407  22.530  0.00  0.00     0.105 C 
ATOM      8  C   UNL d   1     -47.831  11.654  23.272  0.00  0.00     0.198 A 
ATOM      9  N   UNL d   1     -48.661  15.024  22.263  0.00  0.00    -0.191 NA
ATOM     10  N   UNL d   1     -46.558  14.704  22.850  0.00  0.00    -0.120 N 
ATOM     11  O   UNL d   1     -48.629  11.551  23.103  0.00  0.00    -0.286 OA
ATOM     12  C   UNL d   1     -46.224  11.948  23.591  0.00  0.00     0.025 A 
ATOM     13  C   UNL d   1     -47.349  11.049  23.534  0.00  0.00     0.042 A 
ATOM     14  C   UNL d   1     -46.549  11.174  23.698  0.00  0.00     0.005 A 
ENDROOT
BRANCH   4  15
ATOM     15  C   UNL d   1     -48.806  12.868  22.745  0.00  0.00     0.001 A 
ATOM     16  C   UNL d   1     -49.382  12.936  23.338  0.00  0.00     0.000 A 
ATOM     17  C   UNL d   1     -50.173  12.775  23.173  0.00  0.00     0.000 A 
ATOM     18  C   UNL d   1     -50.410  12.545  22.420  0.00  0.00     0.000 A 
ATOM     19  C   UNL d   1     -49.835  12.477  21.825  0.00  0.00     0.000 A 
ATOM     20  C   UNL d   1     -49.043  12.638  21.992  0.00  0.00     0.000 A 
ENDBRANCH   4  15
TORSDOF 1
ENDMDL
MODEL 2
REMARK VINA RESULT:      -9.5      1.399      2.267
REMARK  1 active torsions:
REMARK  status: ('A' for Active; 'I' for Inactive)
REMARK    1  A    between atoms: C_10  and  C_4 
ROOT
ATOM      1  C   UNL d   1     -47.501  12.159  23.354  0.00  0.00     0.111 A 
ATOM      2  C   UNL d   1     -47.717  13.518  22.920  0.00  0.00     0.062 A 
ATOM      3  C   UNL d   1     -46.712  12.302  23.436  0.00  0.00     0.213 A 
ATOM      4  C   UNL d   1     -48.028  12.776  23.090  0.00  0.00     0.018 A 
ATOM      5  C   UNL d   1     -46.882  13.660  23.008  0.00  0.00     0.105 A 
ATOM      6  O   UNL d   1     -46.398  13.086  23.253  0.00  0.00    -0.287 OA
ATOM      7  C   UNL d   1     -47.811  11.423  23.523  0.00  0.00     0.105 C 
ATOM      8  C   UNL d   1     -48.198  14.134  22.662  0.00  0.00     0.198 A 
ATOM      9  N   UNL d   1     -48.127  10.671  23.695  0.00  0.00    -0.191 NA
ATOM     10  N   UNL d   1     -46.175  11.698  23.698  0.00  0.00    -0.120 N 
ATOM     11  O   UNL d   1     -48.997  13.956  22.590  0.00  0.00    -0.286 OA
ATOM     12  C   UNL d   1     -46.566  14.411  22.836  0.00  0.00     0.025 A 
ATOM     13  C   UNL d   1     -47.888  14.871  22.493  0.00  0.00     0.042 A 
ATOM     14  C   UNL d   1     -47.081  15.029  22.573  0.00  0.00     0.005 A 
ENDROOT
BRANCH   4  15
ATOM     15  C   UNL d   1     -48.827  12.654  23.001  0.00  0.00     0.001 A 
ATOM     16  C   UNL d   1     -49.355  12.787  23.627  0.00  0.00     0.000 A 
ATOM     17  C   UNL d   1     -50.163  12.660  23.526  0.00  0.00     0.000 A 
ATOM     18  C   UNL d   1     -50.464  12.398  22.807  0.00  0.00     0.000 A 
ATOM     19  C   UNL d   1     -49.936  12.264  22.180  0.00  0.00     0.000 A 
ATOM     20  C   UNL d   1     -49.128  12.392  22.282  0.00  0.00     0.000 A 
ENDBRANCH   4  15
TORSDOF 1
ENDMDL
MODEL 3
REMARK VINA RESULT:      -9.4      1.605      2.256
REMARK  1 active torsions:
REMARK  status: ('A' for Active; 'I' for Inactive)
REMARK    1  A    between atoms: C_10  and  C_4 
ROOT
ATOM      1  C   UNL d   1     -48.398  12.218  23.221  0.00  0.00     0.111 A 
ATOM      2  C   UNL d   1     -47.677  13.423  22.893  0.00  0.00     0.062 A 
ATOM      3  C   UNL d   1     -47.710  11.851  23.424  0.00  0.00     0.213 A 
ATOM      4  C   UNL d   1     -48.395  13.027  22.947  0.00  0.00     0.018 A 
ATOM      5  C   UNL d   1     -46.954  13.029  23.109  0.00  0.00     0.105 A 
ATOM      6  O   UNL d   1     -46.963  12.281  23.362  0.00  0.00    -0.287 OA
ATOM      7  C   UNL d   1     -49.112  11.824  23.274  0.00  0.00     0.105 C 
ATOM      8  C   UNL d   1     -47.639  14.204  22.633  0.00  0.00     0.198 A 
ATOM      9  N   UNL d   1     -49.839  11.422  23.328  0.00  0.00    -0.191 NA
ATOM     10  N   UNL d   1     -47.697  11.047  23.698  0.00  0.00    -0.120 N 
ATOM     11  O   UNL d   1     -48.358  14.549  22.434  0.00  0.00    -0.286 OA
ATOM     12  C   UNL d   1     -46.226  13.431  23.055  0.00  0.00     0.025 A 
ATOM     13  C   UNL d   1     -46.925  14.598  22.580  0.00  0.00     0.042 A 
ATOM     14  C   UNL d   1     -46.213  14.232  22.784  0.00  0.00     0.005 A 
ENDROOT
BRANCH   4  15
ATOM     15  C   UNL d   1     -49.077  13.415  22.738  0.00  0.00     0.001 A 
ATOM     16  C   UNL d   1     -49.512  13.852  23.294  0.00  0.00     0.000 A 
ATOM     17  C   UNL d   1     -50.203  14.242  23.071  0.00  0.00     0.000 A 
ATOM     18  C   UNL d   1     -50.477  14.208  22.297  0.00  0.00     0.000 A 
ATOM     19  C   UNL d   1     -50.043  13.772  21.740  0.00  0.00     0.000 A 
ATOM     20  C   UNL d   1     -49.352  13.381  21.964  0.00  0.00     0.000 A 
ENDBRANCH   4  15
TORSDOF 1
ENDMDL
MODEL 4
REMARK VINA RESULT:      -9.3      1.714      3.507
REMARK  1 active torsions:
REMARK  status: ('A' for Active; 'I' for Inactive)
REMARK    1  A    between atoms: C_10  and  C_4 
ROOT
ATOM      1  C   UNL d   1     -49.041  12.483  23.088  0.00  0.00     0.111 A 
ATOM      2  C   UNL d   1     -49.029  13.920  22.972  0.00  0.00     0.062 A 
ATOM      3  C   UNL d   1     -49.837  12.491  23.218  0.00  0.00     0.213 A 
ATOM      4  C   UNL d   1     -48.614  13.210  22.960  0.00  0.00     0.018 A 
ATOM      5  C   UNL d   1     -49.869  13.921  23.110  0.00  0.00     0.105 A 
ATOM      6  O   UNL d   1     -50.259  13.245  23.228  0.00  0.00    -0.287 OA
ATOM      7  C   UNL d   1     -48.629  11.777  23.076  0.00  0.00     0.105 C 
ATOM      8  C   UNL d   1     -48.647  14.640  22.852  0.00  0.00     0.198 A 
ATOM      9  N   UNL d   1     -48.209  11.058  23.064  0.00  0.00    -0.191 NA
ATOM     10  N   UNL d   1     -50.275  11.775  23.347  0.00  0.00    -0.120 N 
ATOM     11  O   UNL d   1     -47.836  14.596  22.722  0.00  0.00    -0.286 OA
ATOM     12  C   UNL d   1     -50.289  14.640  23.122  0.00  0.00     0.025 A 
ATOM     13  C   UNL d   1     -49.059  15.345  22.864  0.00  0.00     0.042 A 
ATOM     14  C   UNL d   1     -49.874  15.367  22.996  0.00  0.00     0.005 A 
ENDROOT
BRANCH   4  15
ATOM     15  C   UNL d   1     -47.813  13.223  22.827  0.00  0.00     0.001 A 
ATOM     16  C   UNL d   1     -47.503  13.183  22.058  0.00  0.00     0.000 A 
ATOM     17  C   UNL d   1     -46.688  13.197  21.935  0.00  0.00     0.000 A 
ATOM     18  C   UNL d   1     -46.165  13.251  22.567  0.00  0.00     0.000 A 
ATOM     19  C   UNL d   1     -46.473  13.292  23.336  0.00  0.00     0.000 A 
ATOM     20  C   UNL d   1     -47.289  13.278  23.459  0.00  0.00     0.000 A 
ENDBRANCH   4  15
TORSDOF 1
ENDMDL
MODEL 5
REMARK VINA RESULT:      -8.9      1.153      2.654
REMARK  1 active torsions:
REMARK  status: ('A' for Active; 'I' for Inactive)
REMARK    1  A    between atoms: C_10  and  C_4 
ROOT
ATOM      1  C   UNL d   1     -48.807  14.186  22.746  0.00  0.00     0.111 A 
ATOM      2  C   UNL d   1     -48.738  12.804  23.152  0.00  0.00     0.062 A 
ATOM      3  C   UNL d   1     -49.603  14.193  22.875  0.00  0.00     0.213 A 
ATOM      4  C   UNL d   1     -48.351  13.478  22.885  0.00  0.00     0.018 A 
ATOM      5  C   UNL d   1     -49.579  12.819  23.286  0.00  0.00     0.105 A 
ATOM      6  O   UNL d   1     -49.996  13.477  23.156  0.00  0.00    -0.287 OA
ATOM      7  C   UNL d   1     -48.422  14.856  22.480  0.00  0.00     0.105 C 
ATOM      8  C   UNL d   1     -48.328  12.104  23.296  0.00  0.00     0.198 A 
ATOM      9  N   UNL d   1     -48.030  15.538  22.209  0.00  0.00    -0.191 NA
ATOM     10  N   UNL d   1     -50.070  14.890  22.741  0.00  0.00    -0.120 N 
ATOM     11  O   UNL d   1     -47.519  12.131  23.155  0.00  0.00    -0.286 OA
ATOM     12  C   UNL d   1     -49.972  12.136  23.557  0.00  0.00     0.025 A 
ATOM     13  C   UNL d   1     -48.713  11.435  23.562  0.00  0.00     0.042 A 
ATOM     14  C   UNL d   1     -49.528  11.430  23.698  0.00  0.00     0.005 A 
ENDROOT
BRANCH   4  15
ATOM     15  C   UNL d   1     -47.549  13.449  22.761  0.00  0.00     0.001 A 
ATOM     16  C   UNL d   1     -47.234  13.215  22.029  0.00  0.00     0.000 A 
ATOM     17  C   UNL d   1     -46.418  13.189  21.915  0.00  0.00     0.000 A 
ATOM     18  C   UNL d   1     -45.899  13.395  22.518  0.00  0.00     0.000 A 
ATOM     19  C   UNL d   1     -46.213  13.629  23.250  0.00  0.00     0.000 A 
ATOM     20  C   UNL d   1     -47.029  13.654  23.365  0.00  0.00     0.000 A 
ENDBRANCH   4  15
TORSDOF 1
ENDMDL
MODEL 6
REMARK VINA RESULT:      -8.7      1.169      2.293
REMARK  1 active torsions:
REMARK  status: ('A' for Active; 'I' for Inactive)
REMARK    1  A    between atoms: C_10  and  C_4 
ROOT
ATOM      1  C   UNL d   1     -47.410  12.899  23.248  0.00  0.00     0.111 A 
ATOM      2  C   UNL d   1     -48.810  12.554  23.246  0.00  0.00     0.062 A 
ATOM      3  C   UNL d   1     -47.222  12.169  23.533  0.00  0.00     0.213 A 
ATOM      4  C   UNL d   1     -48.223  13.110  23.096  0.00  0.00     0.018 A 
ATOM      5  C   UNL d   1     -48.603  11.785  23.547  0.00  0.00     0.105 A 
ATOM      6  O   UNL d   1     -47.850  11.595  23.685  0.00  0.00    -0.287 OA
ATOM      7  C   UNL d   1     -46.827  13.452  23.100  0.00  0.00     0.105 C 
ATOM      8  C   UNL d   1     -49.604  12.725  23.110  0.00  0.00     0.198 A 
ATOM      9  N   UNL d   1     -46.232  14.015  22.948  0.00  0.00    -0.191 NA
ATOM     10  N   UNL d   1     -46.417  11.945  23.689  0.00  0.00    -0.120 N 
ATOM     11  O   UNL d   1     -49.762  13.478  22.819  0.00  0.00    -0.286 OA
ATOM     12  C   UNL d   1     -49.198  11.222  23.698  0.00  0.00     0.025 A 
ATOM     13  C   UNL d   1     -50.188  12.173  23.258  0.00  0.00     0.042 A 
ATOM     14  C   UNL d   1     -50.007  11.421  23.550  0.00  0.00     0.005 A 
ENDROOT
BRANCH   4  15
ATOM     15  C   UNL d   1     -48.434  13.840  22.809  0.00  0.00     0.001 A 
ATOM     16  C   UNL d   1     -48.624  14.465  23.321  0.00  0.00     0.000 A 
ATOM     17  C   UNL d   1     -48.837  15.202  23.019  0.00  0.00     0.000 A 
ATOM     18  C   UNL d   1     -48.866  15.335  22.208  0.00  0.00     0.000 A 
ATOM     19  C   UNL d   1     -48.676  14.711  21.696  0.00  0.00     0.000 A 
ATOM     20  C   UNL d   1     -48.463  13.973  21.999  0.00  0.00     0.000 A 
ENDBRANCH   4  15
TORSDOF 1
ENDMDL
