MODEL 1
REMARK VINA RESULT:      -5.1      0.000      0.000
REMARK  3 active torsions:
REMARK  status: ('A' for Active; 'I' for Inactive)
REMARK    1  A    between atoms: C_6  and  N_1 
REMARK    2  A    between atoms: C_9  and  C_6 
REMARK    3  A    between atoms: C_10  and  C_9 
ROOT
ATOM      1  C   UNL d   1      57.473   0.490  31.259  0.00  0.00     0.086 C 
ENDROOT
BRANCH   1   2
ATOM      2  N   UNL d   1      58.102   0.552  30.760  0.00  0.00    -0.240 N 
ATOM      3  C   UNL d   1      58.065   0.539  29.917  0.00  0.00     0.267 A 
ATOM      4  C   UNL d   1      58.849   0.619  29.624  0.00  0.00     0.066 A 
ATOM      5  O   UNL d   1      57.394   0.462  29.483  0.00  0.00    -0.267 OA
ATOM      6  C   UNL d   1      59.365   0.682  30.293  0.00  0.00     0.066 A 
ATOM      7  C   UNL d   1      58.909   0.641  30.987  0.00  0.00     0.267 A 
ATOM      8  O   UNL d   1      59.184   0.678  31.737  0.00  0.00    -0.267 OA
ENDBRANCH   1   2
BRANCH   1   9
ATOM      9  C   UNL d   1      57.201  -0.257  31.478  0.00  0.00     0.019 C 
BRANCH   9  10
ATOM     10  C   UNL d   1      56.645  -0.329  32.075  0.00  0.00     0.002 A 
ATOM     11  C   UNL d   1      56.318   0.344  32.409  0.00  0.00     0.000 A 
ATOM     12  C   UNL d   1      55.762   0.277  33.007  0.00  0.00     0.000 A 
ATOM     13  C   UNL d   1      55.535  -0.472  33.270  0.00  0.00     0.000 A 
ATOM     14  C   UNL d   1      55.866  -1.148  32.931  0.00  0.00     0.000 A 
ATOM     15  C   UNL d   1      56.422  -1.065  32.333  0.00  0.00     0.000 A 
ENDBRANCH   9  10
ENDBRANCH   1   9
TORSDOF 3
ENDMDL
MODEL 2
REMARK VINA RESULT:      -4.2      1.459      3.638
REMARK  3 active torsions:
REMARK  status: ('A' for Active; 'I' for Inactive)
REMARK    1  A    between atoms: C_6  and  N_1 
REMARK    2  A    between atoms: C_9  and  C_6 
REMARK    3  A    between atoms: C_10  and  C_9 
ROOT
ATOM      1  C   UNL d   1      57.258  -0.238  32.183  0.00  0.00     0.086 C 
ENDROOT
BRANCH   1   2
ATOM      2  N   UNL d   1      56.629  -0.445  32.639  0.00  0.00    -0.240 N 
ATOM      3  C   UNL d   1      56.335  -0.008  33.300  0.00  0.00     0.267 A 
ATOM      4  C   UNL d   1      55.674  -0.426  33.611  0.00  0.00     0.066 A 
ATOM      5  O   UNL d   1      56.640   0.682  33.573  0.00  0.00    -0.267 OA
ATOM      6  C   UNL d   1      55.567  -1.119  33.136  0.00  0.00     0.066 A 
ATOM      7  C   UNL d   1      56.149  -1.131  32.543  0.00  0.00     0.267 A 
ATOM      8  O   UNL d   1      56.241  -1.692  31.981  0.00  0.00    -0.267 OA
ENDBRANCH   1   2
BRANCH   1   9
ATOM      9  C   UNL d   1      57.137   0.220  31.508  0.00  0.00     0.019 C 
BRANCH   9  10
ATOM     10  C   UNL d   1      57.758   0.357  30.991  0.00  0.00     0.002 A 
ATOM     11  C   UNL d   1      57.633   0.304  30.183  0.00  0.00     0.000 A 
ATOM     12  C   UNL d   1      58.252   0.440  29.662  0.00  0.00     0.000 A 
ATOM     13  C   UNL d   1      58.998   0.630  29.958  0.00  0.00     0.000 A 
ATOM     14  C   UNL d   1      59.120   0.682  30.773  0.00  0.00     0.000 A 
ATOM     15  C   UNL d   1      58.492   0.544  31.281  0.00  0.00     0.000 A 
ENDBRANCH   9  10
ENDBRANCH   1   9
TORSDOF 3
ENDMDL
MODEL 3
REMARK VINA RESULT:      -4.0      2.062      3.745
REMARK  3 active torsions:
REMARK  status: ('A' for Active; 'I' for Inactive)
REMARK    1  A    between atoms: C_6  and  N_1 
REMARK    2  A    between atoms: C_9  and  C_6 
REMARK    3  A    between atoms: C_10  and  C_9 
ROOT
ATOM      1  C   UNL d   1      56.370   0.659  33.034  0.00  0.00     0.086 C 
ENDROOT
BRANCH   1   2
ATOM      2  N   UNL d   1      56.027   0.665  33.761  0.00  0.00    -0.240 N 
ATOM      3  C   UNL d   1      55.196   0.664  33.913  0.00  0.00     0.267 A 
ATOM      4  C   UNL d   1      55.088   0.672  34.748  0.00  0.00     0.066 A 
ATOM      5  O   UNL d   1      54.621   0.657  33.354  0.00  0.00    -0.267 OA
ATOM      6  C   UNL d   1      55.857   0.677  35.103  0.00  0.00     0.066 A 
ATOM      7  C   UNL d   1      56.430   0.673  34.501  0.00  0.00     0.267 A 
ATOM      8  O   UNL d   1      57.223   0.676  34.603  0.00  0.00    -0.267 OA
ENDBRANCH   1   2
BRANCH   1   9
ATOM      9  C   UNL d   1      56.381  -0.039  32.595  0.00  0.00     0.019 C 
BRANCH   9  10
ATOM     10  C   UNL d   1      56.830  -0.085  31.912  0.00  0.00     0.002 A 
ATOM     11  C   UNL d   1      57.054  -0.817  31.621  0.00  0.00     0.000 A 
ATOM     12  C   UNL d   1      57.504  -0.868  30.938  0.00  0.00     0.000 A 
ATOM     13  C   UNL d   1      57.729  -0.176  30.547  0.00  0.00     0.000 A 
ATOM     14  C   UNL d   1      57.502   0.560  30.843  0.00  0.00     0.000 A 
ATOM     15  C   UNL d   1      57.051   0.594  31.528  0.00  0.00     0.000 A 
ENDBRANCH   9  10
ENDBRANCH   1   9
TORSDOF 3
ENDMDL
MODEL 4
REMARK VINA RESULT:      -3.4      1.378      1.853
REMARK  3 active torsions:
REMARK  status: ('A' for Active; 'I' for Inactive)
REMARK    1  A    between atoms: C_6  and  N_1 
REMARK    2  A    between atoms: C_9  and  C_6 
REMARK    3  A    between atoms: C_10  and  C_9 
ROOT
ATOM      1  C   UNL d   1      57.761  -0.591  30.059  0.00  0.00     0.086 C 
ENDROOT
BRANCH   1   2
ATOM      2  N   UNL d   1      58.354  -0.693  29.524  0.00  0.00    -0.240 N 
ATOM      3  C   UNL d   1      58.670  -0.093  29.020  0.00  0.00     0.267 A 
ATOM      4  C   UNL d   1      59.277  -0.443  28.554  0.00  0.00     0.066 A 
ATOM      5  O   UNL d   1      58.428   0.671  28.999  0.00  0.00    -0.267 OA
ATOM      6  C   UNL d   1      59.328  -1.259  28.777  0.00  0.00     0.066 A 
ATOM      7  C   UNL d   1      58.765  -1.411  29.368  0.00  0.00     0.267 A 
ATOM      8  O   UNL d   1      58.635  -2.114  29.728  0.00  0.00    -0.267 OA
ENDBRANCH   1   2
BRANCH   1   9
ATOM      9  C   UNL d   1      57.943  -0.552  30.863  0.00  0.00     0.019 C 
BRANCH   9  10
ATOM     10  C   UNL d   1      57.356  -0.369  31.404  0.00  0.00     0.002 A 
ATOM     11  C   UNL d   1      56.874  -0.962  31.698  0.00  0.00     0.000 A 
ATOM     12  C   UNL d   1      56.285  -0.784  32.240  0.00  0.00     0.000 A 
ATOM     13  C   UNL d   1      56.183  -0.002  32.486  0.00  0.00     0.000 A 
ATOM     14  C   UNL d   1      56.671   0.593  32.189  0.00  0.00     0.000 A 
ATOM     15  C   UNL d   1      57.255   0.399  31.647  0.00  0.00     0.000 A 
ENDBRANCH   9  10
ENDBRANCH   1   9
TORSDOF 3
ENDMDL
MODEL 5
REMARK VINA RESULT:      -2.7      3.157      4.263
REMARK  3 active torsions:
REMARK  status: ('A' for Active; 'I' for Inactive)
REMARK    1  A    between atoms: C_6  and  N_1 
REMARK    2  A    between atoms: C_9  and  C_6 
REMARK    3  A    between atoms: C_10  and  C_9 
ROOT
ATOM      1  C   UNL d   1      59.034  -2.102  29.249  0.00  0.00     0.086 C 
ENDROOT
BRANCH   1   2
ATOM      2  N   UNL d   1      59.363  -2.797  29.011  0.00  0.00    -0.240 N 
ATOM      3  C   UNL d   1      58.946  -3.452  28.680  0.00  0.00     0.267 A 
ATOM      4  C   UNL d   1      59.507  -4.056  28.513  0.00  0.00     0.066 A 
ATOM      5  O   UNL d   1      58.154  -3.482  28.552  0.00  0.00    -0.267 OA
ATOM      6  C   UNL d   1      60.269  -3.766  28.744  0.00  0.00     0.066 A 
ATOM      7  C   UNL d   1      60.181  -2.997  29.047  0.00  0.00     0.267 A 
ATOM      8  O   UNL d   1      60.767  -2.529  29.326  0.00  0.00    -0.267 OA
ENDBRANCH   1   2
BRANCH   1   9
ATOM      9  C   UNL d   1      59.212  -1.408  28.841  0.00  0.00     0.019 C 
BRANCH   9  10
ATOM     10  C   UNL d   1      58.828  -0.711  29.037  0.00  0.00     0.002 A 
ATOM     11  C   UNL d   1      58.645  -0.554  29.820  0.00  0.00     0.000 A 
ATOM     12  C   UNL d   1      58.260   0.142  30.020  0.00  0.00     0.000 A 
ATOM     13  C   UNL d   1      58.060   0.681  29.428  0.00  0.00     0.000 A 
ATOM     14  C   UNL d   1      58.246   0.519  28.641  0.00  0.00     0.000 A 
ATOM     15  C   UNL d   1      58.630  -0.181  28.455  0.00  0.00     0.000 A 
ENDBRANCH   9  10
ENDBRANCH   1   9
TORSDOF 3
ENDMDL
MODEL 6
REMARK VINA RESULT:      -2.6      1.835      3.661
REMARK  3 active torsions:
REMARK  status: ('A' for Active; 'I' for Inactive)
REMARK    1  A    between atoms: C_6  and  N_1 
REMARK    2  A    between atoms: C_9  and  C_6 
REMARK    3  A    between atoms: C_10  and  C_9 
ROOT
ATOM      1  C   UNL d   1      57.946  -0.952  30.915  0.00  0.00     0.086 C 
ENDROOT
BRANCH   1   2
ATOM      2  N   UNL d   1      57.472  -0.569  31.440  0.00  0.00    -0.240 N 
ATOM      3  C   UNL d   1      57.604   0.206  31.748  0.00  0.00     0.267 A 
ATOM      4  C   UNL d   1      56.973   0.383  32.276  0.00  0.00     0.066 A 
ATOM      5  O   UNL d   1      58.224   0.680  31.564  0.00  0.00    -0.267 OA
ATOM      6  C   UNL d   1      56.456  -0.288  32.288  0.00  0.00     0.066 A 
ATOM      7  C   UNL d   1      56.760  -0.869  31.778  0.00  0.00     0.267 A 
ATOM      8  O   UNL d   1      56.438  -1.586  31.632  0.00  0.00    -0.267 OA
ENDBRANCH   1   2
BRANCH   1   9
ATOM      9  C   UNL d   1      57.824  -0.846  30.106  0.00  0.00     0.019 C 
BRANCH   9  10
ATOM     10  C   UNL d   1      58.341  -1.186  29.569  0.00  0.00     0.002 A 
ATOM     11  C   UNL d   1      58.703  -0.719  29.002  0.00  0.00     0.000 A 
ATOM     12  C   UNL d   1      59.221  -1.054  28.462  0.00  0.00     0.000 A 
ATOM     13  C   UNL d   1      59.373  -1.865  28.495  0.00  0.00     0.000 A 
ATOM     14  C   UNL d   1      59.006  -2.332  29.067  0.00  0.00     0.000 A 
ATOM     15  C   UNL d   1      58.491  -1.983  29.600  0.00  0.00     0.000 A 
ENDBRANCH   9  10
ENDBRANCH   1   9
TORSDOF 3
ENDMDL
MODEL 7
REMARK VINA RESULT:      -2.2      9.784     10.211
REMARK  3 active torsions:
REMARK  status: ('A' for Active; 'I' for Inactive)
REMARK    1  A    between atoms: C_6  and  N_1 
REMARK    2  A    between atoms: C_9  and  C_6 
REMARK    3  A    between atoms: C_10  and  C_9 
ROOT
ATOM      1  C   UNL d   1      59.416  -9.011  33.604  0.00  0.00     0.086 C 
ENDROOT
BRANCH   1   2
ATOM      2  N   UNL d   1      59.266  -9.320  32.877  0.00  0.00    -0.240 N 
ATOM      3  C   UNL d   1      59.847  -9.511  32.294  0.00  0.00     0.267 A 
ATOM      4  C   UNL d   1      59.445  -9.818  31.622  0.00  0.00     0.066 A 
ATOM      5  O   UNL d   1      60.638  -9.412  32.377  0.00  0.00    -0.267 OA
ATOM      6  C   UNL d   1      58.616  -9.813  31.798  0.00  0.00     0.066 A 
ATOM      7  C   UNL d   1      58.507  -9.509  32.564  0.00  0.00     0.267 A 
ATOM      8  O   UNL d   1      57.807  -9.413  32.939  0.00  0.00    -0.267 OA
ENDBRANCH   1   2
BRANCH   1   9
ATOM      9  C   UNL d   1      59.446  -9.511  34.260  0.00  0.00     0.019 C 
BRANCH   9  10
ATOM     10  C   UNL d   1      59.806  -9.256  34.950  0.00  0.00     0.002 A 
ATOM     11  C   UNL d   1      59.680  -8.491  35.216  0.00  0.00     0.000 A 
ATOM     12  C   UNL d   1      60.037  -8.231  35.906  0.00  0.00     0.000 A 
ATOM     13  C   UNL d   1      60.525  -8.746  36.330  0.00  0.00     0.000 A 
ATOM     14  C   UNL d   1      60.649  -9.515  36.059  0.00  0.00     0.000 A 
ATOM     15  C   UNL d   1      60.285  -9.761  35.367  0.00  0.00     0.000 A 
ENDBRANCH   9  10
ENDBRANCH   1   9
TORSDOF 3
ENDMDL
