MODEL 1
REMARK VINA RESULT:      -2.8      0.000      0.000
REMARK  4 active torsions:
REMARK  status: ('A' for Active; 'I' for Inactive)
REMARK    1  A    between atoms: C_2  and  C_1 
REMARK       I    between atoms: N_7  and  C_2 
REMARK    2  A    between atoms: C_9  and  N_7 
REMARK    3  A    between atoms: O_16  and  C_10 
REMARK    4  A    between atoms: C_18  and  O_16 
ROOT
ATOM      1  C   UNL d   1      32.324  16.242 -24.506  0.00  0.00     0.280 C 
ATOM      2  N   UNL d   1      33.000  16.496 -24.109  0.00  0.00    -0.208 NA
ATOM      3  O   UNL d   1      32.292  15.471 -24.801  0.00  0.00    -0.265 OA
ENDROOT
BRANCH   1   4
ATOM      4  C   UNL d   1      31.686  16.754 -24.607  0.00  0.00     0.065 A 
ATOM      5  C   UNL d   1      30.919  16.632 -24.326  0.00  0.00     0.011 A 
ATOM      6  C   UNL d   1      30.469  17.279 -24.553  0.00  0.00     0.030 A 
ATOM      7  C   UNL d   1      30.574  16.016 -23.894  0.00  0.00     0.001 A 
ATOM      8  C   UNL d   1      29.666  17.318 -24.350  0.00  0.00     0.006 A 
ATOM      9  S   UNL d   1      30.953  17.799 -24.972  0.00  0.00    -0.086 SA
ATOM     10  C   UNL d   1      29.331  16.718 -23.929  0.00  0.00     0.001 A 
ATOM     11  C   UNL d   1      29.779  16.063 -23.697  0.00  0.00     0.000 A 
ATOM     12  C   UNL d   1      31.709  17.465 -25.001  0.00  0.00     0.040 A 
ENDBRANCH   1   4
BRANCH   2  13
ATOM     13  C   UNL d   1      33.035  17.273 -23.810  0.00  0.00     0.085 A 
ATOM     14  C   UNL d   1      32.898  17.408 -23.009  0.00  0.00     0.021 A 
ATOM     15  C   UNL d   1      32.933  18.176 -22.712  0.00  0.00     0.026 A 
ATOM     16  C   UNL d   1      33.105  18.815 -23.216  0.00  0.00     0.100 A 
ATOM     17  C   UNL d   1      33.241  18.672 -24.016  0.00  0.00     0.026 A 
ATOM     18  C   UNL d   1      33.206  17.898 -24.315  0.00  0.00     0.021 A 
BRANCH  16  19
ATOM     19  O   UNL d   1      33.143  19.594 -22.930  0.00  0.00    -0.305 OA
BRANCH  19  20
ATOM     20  C   UNL d   1      32.980  19.754 -22.138  0.00  0.00     0.123 C 
ATOM     21  C   UNL d   1      32.738  20.511 -21.908  0.00  0.00     0.029 C 
ENDBRANCH  19  20
ENDBRANCH  16  19
ENDBRANCH   2  13
TORSDOF 4
ENDMDL
MODEL 2
REMARK VINA RESULT:      -2.7      1.287      3.505
REMARK  4 active torsions:
REMARK  status: ('A' for Active; 'I' for Inactive)
REMARK    1  A    between atoms: C_2  and  C_1 
REMARK       I    between atoms: N_7  and  C_2 
REMARK    2  A    between atoms: C_9  and  N_7 
REMARK    3  A    between atoms: O_16  and  C_10 
REMARK    4  A    between atoms: C_18  and  O_16 
ROOT
ATOM      1  C   UNL d   1      32.452  16.018 -24.299  0.00  0.00     0.280 C 
ATOM      2  N   UNL d   1      31.866  15.453 -24.171  0.00  0.00    -0.208 NA
ATOM      3  O   UNL d   1      33.240  15.778 -24.364  0.00  0.00    -0.265 OA
ENDROOT
BRANCH   1   4
ATOM      4  C   UNL d   1      32.251  16.815 -24.362  0.00  0.00     0.065 A 
ATOM      5  C   UNL d   1      32.520  17.421 -23.869  0.00  0.00     0.011 A 
ATOM      6  C   UNL d   1      32.180  18.120 -24.134  0.00  0.00     0.030 A 
ATOM      7  C   UNL d   1      33.027  17.426 -23.216  0.00  0.00     0.001 A 
ATOM      8  C   UNL d   1      32.346  18.833 -23.746  0.00  0.00     0.006 A 
ATOM      9  S   UNL d   1      31.705  17.949 -24.785  0.00  0.00    -0.086 SA
ATOM     10  C   UNL d   1      32.841  18.838 -23.110  0.00  0.00     0.001 A 
ATOM     11  C   UNL d   1      33.186  18.136 -22.838  0.00  0.00     0.000 A 
ATOM     12  C   UNL d   1      31.755  17.134 -24.921  0.00  0.00     0.040 A 
ENDBRANCH   1   4
BRANCH   2  13
ATOM     13  C   UNL d   1      31.070  15.691 -24.105  0.00  0.00     0.085 A 
ATOM     14  C   UNL d   1      30.735  15.790 -23.359  0.00  0.00     0.021 A 
ATOM     15  C   UNL d   1      29.948  16.025 -23.292  0.00  0.00     0.026 A 
ATOM     16  C   UNL d   1      29.490  16.163 -23.973  0.00  0.00     0.100 A 
ATOM     17  C   UNL d   1      29.834  16.062 -24.716  0.00  0.00     0.026 A 
ATOM     18  C   UNL d   1      30.626  15.825 -24.783  0.00  0.00     0.021 A 
BRANCH  16  19
ATOM     19  O   UNL d   1      28.697  16.401 -23.921  0.00  0.00    -0.305 OA
BRANCH  19  20
ATOM     20  C   UNL d   1      28.251  16.218 -23.251  0.00  0.00     0.123 C 
ATOM     21  C   UNL d   1      27.427  16.281 -23.270  0.00  0.00     0.029 C 
ENDBRANCH  19  20
ENDBRANCH  16  19
ENDBRANCH   2  13
TORSDOF 4
ENDMDL
MODEL 3
REMARK VINA RESULT:      -2.1      1.231      3.777
REMARK  4 active torsions:
REMARK  status: ('A' for Active; 'I' for Inactive)
REMARK    1  A    between atoms: C_2  and  C_1 
REMARK       I    between atoms: N_7  and  C_2 
REMARK    2  A    between atoms: C_9  and  N_7 
REMARK    3  A    between atoms: O_16  and  C_10 
REMARK    4  A    between atoms: C_18  and  O_16 
ROOT
ATOM      1  C   UNL d   1      32.815  19.127 -24.578  0.00  0.00     0.280 C 
ATOM      2  N   UNL d   1      32.236  18.784 -25.053  0.00  0.00    -0.208 NA
ATOM      3  O   UNL d   1      33.238  19.778 -24.859  0.00  0.00    -0.265 OA
ENDROOT
BRANCH   1   4
ATOM      4  C   UNL d   1      32.969  18.820 -23.828  0.00  0.00     0.065 A 
ATOM      5  C   UNL d   1      33.002  19.255 -23.127  0.00  0.00     0.011 A 
ATOM      6  C   UNL d   1      33.170  18.728 -22.520  0.00  0.00     0.030 A 
ATOM      7  C   UNL d   1      32.902  20.059 -22.962  0.00  0.00     0.001 A 
ATOM      8  C   UNL d   1      33.240  19.001 -21.741  0.00  0.00     0.006 A 
ATOM      9  S   UNL d   1      33.241  17.972 -22.843  0.00  0.00    -0.086 SA
ATOM     10  C   UNL d   1      33.142  19.785 -21.581  0.00  0.00     0.001 A 
ATOM     11  C   UNL d   1      32.972  20.321 -22.188  0.00  0.00     0.000 A 
ATOM     12  C   UNL d   1      33.114  18.039 -23.658  0.00  0.00     0.040 A 
ENDBRANCH   1   4
BRANCH   2  13
ATOM     13  C   UNL d   1      31.807  18.127 -24.773  0.00  0.00     0.085 A 
ATOM     14  C   UNL d   1      31.082  18.243 -24.398  0.00  0.00     0.021 A 
ATOM     15  C   UNL d   1      30.657  17.594 -24.120  0.00  0.00     0.026 A 
ATOM     16  C   UNL d   1      30.955  16.823 -24.215  0.00  0.00     0.100 A 
ATOM     17  C   UNL d   1      31.680  16.716 -24.592  0.00  0.00     0.026 A 
ATOM     18  C   UNL d   1      32.108  17.370 -24.872  0.00  0.00     0.021 A 
BRANCH  16  19
ATOM     19  O   UNL d   1      30.537  16.161 -23.940  0.00  0.00    -0.305 OA
BRANCH  19  20
ATOM     20  C   UNL d   1      29.937  16.250 -23.382  0.00  0.00     0.123 C 
ATOM     21  C   UNL d   1      29.538  15.586 -23.090  0.00  0.00     0.029 C 
ENDBRANCH  19  20
ENDBRANCH  16  19
ENDBRANCH   2  13
TORSDOF 4
ENDMDL
MODEL 4
REMARK VINA RESULT:      -1.4      1.970      2.881
REMARK  4 active torsions:
REMARK  status: ('A' for Active; 'I' for Inactive)
REMARK    1  A    between atoms: C_2  and  C_1 
REMARK       I    between atoms: N_7  and  C_2 
REMARK    2  A    between atoms: C_9  and  N_7 
REMARK    3  A    between atoms: O_16  and  C_10 
REMARK    4  A    between atoms: C_18  and  O_16 
ROOT
ATOM      1  C   UNL d   1      29.443  17.893 -24.769  0.00  0.00     0.280 C 
ATOM      2  N   UNL d   1      30.206  18.196 -24.696  0.00  0.00    -0.208 NA
ATOM      3  O   UNL d   1      28.820  18.403 -24.953  0.00  0.00    -0.265 OA
ENDROOT
BRANCH   1   4
ATOM      4  C   UNL d   1      29.305  17.088 -24.659  0.00  0.00     0.065 A 
ATOM      5  C   UNL d   1      28.788  16.758 -24.106  0.00  0.00     0.011 A 
ATOM      6  C   UNL d   1      28.826  15.942 -24.191  0.00  0.00     0.030 A 
ATOM      7  C   UNL d   1      28.289  17.093 -23.538  0.00  0.00     0.001 A 
ATOM      8  C   UNL d   1      28.364  15.453 -23.708  0.00  0.00     0.006 A 
ATOM      9  S   UNL d   1      29.363  15.768 -24.792  0.00  0.00    -0.086 SA
ATOM     10  C   UNL d   1      27.878  15.780 -23.155  0.00  0.00     0.001 A 
ATOM     11  C   UNL d   1      27.835  16.602 -23.064  0.00  0.00     0.000 A 
ATOM     12  C   UNL d   1      29.657  16.487 -25.078  0.00  0.00     0.040 A 
ENDBRANCH   1   4
BRANCH   2  13
ATOM     13  C   UNL d   1      30.837  17.683 -24.511  0.00  0.00     0.085 A 
ATOM     14  C   UNL d   1      31.124  17.654 -23.739  0.00  0.00     0.021 A 
ATOM     15  C   UNL d   1      31.748  17.148 -23.554  0.00  0.00     0.026 A 
ATOM     16  C   UNL d   1      32.090  16.668 -24.141  0.00  0.00     0.100 A 
ATOM     17  C   UNL d   1      31.796  16.704 -24.911  0.00  0.00     0.026 A 
ATOM     18  C   UNL d   1      31.168  17.213 -25.097  0.00  0.00     0.021 A 
BRANCH  16  19
ATOM     19  O   UNL d   1      32.718  16.154 -23.969  0.00  0.00    -0.305 OA
BRANCH  19  20
ATOM     20  C   UNL d   1      33.054  16.145 -23.216  0.00  0.00     0.123 C 
ATOM     21  C   UNL d   1      33.020  15.460 -22.753  0.00  0.00     0.029 C 
ENDBRANCH  19  20
ENDBRANCH  16  19
ENDBRANCH   2  13
TORSDOF 4
ENDMDL
MODEL 5
REMARK VINA RESULT:      -0.5      1.582      3.768
REMARK  4 active torsions:
REMARK  status: ('A' for Active; 'I' for Inactive)
REMARK    1  A    between atoms: C_2  and  C_1 
REMARK       I    between atoms: N_7  and  C_2 
REMARK    2  A    between atoms: C_9  and  N_7 
REMARK    3  A    between atoms: O_16  and  C_10 
REMARK    4  A    between atoms: C_18  and  O_16 
ROOT
ATOM      1  C   UNL d   1      31.625  18.376 -24.854  0.00  0.00     0.280 C 
ATOM      2  N   UNL d   1      30.812  18.472 -24.936  0.00  0.00    -0.208 NA
ATOM      3  O   UNL d   1      32.132  18.984 -25.091  0.00  0.00    -0.265 OA
ENDROOT
BRANCH   1   4
ATOM      4  C   UNL d   1      31.930  17.679 -24.536  0.00  0.00     0.065 A 
ATOM      5  C   UNL d   1      32.367  17.617 -23.838  0.00  0.00     0.011 A 
ATOM      6  C   UNL d   1      32.555  16.824 -23.737  0.00  0.00     0.030 A 
ATOM      7  C   UNL d   1      32.618  18.178 -23.285  0.00  0.00     0.001 A 
ATOM      8  C   UNL d   1      32.996  16.584 -23.078  0.00  0.00     0.006 A 
ATOM      9  S   UNL d   1      32.236  16.398 -24.367  0.00  0.00    -0.086 SA
ATOM     10  C   UNL d   1      33.241  17.131 -22.539  0.00  0.00     0.001 A 
ATOM     11  C   UNL d   1      33.055  17.931 -22.635  0.00  0.00     0.000 A 
ATOM     12  C   UNL d   1      31.849  16.938 -24.860  0.00  0.00     0.040 A 
ENDBRANCH   1   4
BRANCH   2  13
ATOM     13  C   UNL d   1      30.298  17.861 -24.698  0.00  0.00     0.085 A 
ATOM     14  C   UNL d   1      29.788  17.983 -24.062  0.00  0.00     0.021 A 
ATOM     15  C   UNL d   1      29.279  17.379 -23.824  0.00  0.00     0.026 A 
ATOM     16  C   UNL d   1      29.277  16.649 -24.222  0.00  0.00     0.100 A 
ATOM     17  C   UNL d   1      29.790  16.535 -24.857  0.00  0.00     0.026 A 
ATOM     18  C   UNL d   1      30.302  17.143 -25.096  0.00  0.00     0.021 A 
BRANCH  16  19
ATOM     19  O   UNL d   1      28.770  16.033 -23.994  0.00  0.00    -0.305 OA
BRANCH  19  20
ATOM     20  C   UNL d   1      28.371  16.068 -23.273  0.00  0.00     0.123 C 
ATOM     21  C   UNL d   1      27.747  15.548 -23.118  0.00  0.00     0.029 C 
ENDBRANCH  19  20
ENDBRANCH  16  19
ENDBRANCH   2  13
TORSDOF 4
ENDMDL
