MODEL 1
REMARK VINA RESULT:      20.2      0.000      0.000
REMARK  4 active torsions:
REMARK  status: ('A' for Active; 'I' for Inactive)
REMARK    1  A    between atoms: N_7  and  C_3 
REMARK       I    between atoms: C_8  and  N_7 
REMARK    2  A    between atoms: C_14  and  C_8 
REMARK    3  A    between atoms: C_15  and  C_14 
REMARK    4  A    between atoms: C_16  and  C_14 
ROOT
ATOM      1  C   UNL d   1      45.888 -15.397  36.928  0.00  0.00     0.343 A 
ATOM      2  N   UNL d   1      45.183 -15.695  36.645  0.00  0.00    -0.241 N 
ATOM      3  C   UNL d   1      44.515 -15.220  36.618  0.00  0.00     0.159 A 
ATOM      4  N   UNL d   1      45.929 -14.616  37.189  0.00  0.00    -0.224 N 
ATOM      5  C   UNL d   1      44.556 -14.440  36.879  0.00  0.00     0.099 A 
ATOM      6  C   UNL d   1      45.267 -14.126  37.169  0.00  0.00     0.271 A 
ATOM      7  O   UNL d   1      46.560 -15.876  36.954  0.00  0.00    -0.245 OA
ATOM      8  O   UNL d   1      45.308 -13.354  37.427  0.00  0.00    -0.266 OA
ATOM      9  C   UNL d   1      45.142 -16.476  36.384  0.00  0.00     0.105 C 
ATOM     10  C   UNL d   1      46.643 -14.315  37.476  0.00  0.00     0.107 C 
ENDROOT
BRANCH   3  11
ATOM     11  N   UNL d   1      43.801 -15.521  36.332  0.00  0.00    -0.190 NA
ATOM     12  C   UNL d   1      43.114 -15.442  36.775  0.00  0.00     0.280 C 
ATOM     13  O   UNL d   1      43.135 -15.063  37.506  0.00  0.00    -0.265 OA
BRANCH  12  14
ATOM     14  C   UNL d   1      42.404 -15.743  36.488  0.00  0.00     0.058 C 
BRANCH  14  15
ATOM     15  C   UNL d   1      42.325 -16.557  36.332  0.00  0.00     0.005 C 
ATOM     16  C   UNL d   1      41.608 -16.938  36.497  0.00  0.00     0.000 C 
ENDBRANCH  14  15
BRANCH  14  17
ATOM     17  C   UNL d   1      41.781 -15.260  36.355  0.00  0.00     0.005 C 
ATOM     18  C   UNL d   1      41.006 -15.550  36.341  0.00  0.00     0.000 C 
ENDBRANCH  14  17
ENDBRANCH  12  14
ENDBRANCH   3  11
TORSDOF 4
ENDMDL
MODEL 2
REMARK VINA RESULT:      20.4      7.475      8.108
REMARK  4 active torsions:
REMARK  status: ('A' for Active; 'I' for Inactive)
REMARK    1  A    between atoms: N_7  and  C_3 
REMARK       I    between atoms: C_8  and  N_7 
REMARK    2  A    between atoms: C_14  and  C_8 
REMARK    3  A    between atoms: C_15  and  C_14 
REMARK    4  A    between atoms: C_16  and  C_14 
ROOT
ATOM      1  C   UNL d   1      45.462 -13.775  44.048  0.00  0.00     0.343 A 
ATOM      2  N   UNL d   1      45.890 -14.466  43.977  0.00  0.00    -0.241 N 
ATOM      3  C   UNL d   1      45.570 -15.178  44.229  0.00  0.00     0.159 A 
ATOM      4  N   UNL d   1      44.705 -13.791  44.374  0.00  0.00    -0.224 N 
ATOM      5  C   UNL d   1      44.813 -15.195  44.555  0.00  0.00     0.099 A 
ATOM      6  C   UNL d   1      44.369 -14.499  44.632  0.00  0.00     0.271 A 
ATOM      7  O   UNL d   1      45.785 -13.059  43.794  0.00  0.00    -0.245 OA
ATOM      8  O   UNL d   1      43.620 -14.515  44.955  0.00  0.00    -0.266 OA
ATOM      9  C   UNL d   1      46.647 -14.450  43.651  0.00  0.00     0.105 C 
ATOM     10  C   UNL d   1      44.272 -13.091  44.446  0.00  0.00     0.107 C 
ENDROOT
BRANCH   3  11
ATOM     11  N   UNL d   1      46.003 -15.878  44.157  0.00  0.00    -0.190 NA
ATOM     12  C   UNL d   1      45.677 -16.590  44.407  0.00  0.00     0.280 C 
ATOM     13  O   UNL d   1      44.919 -16.607  44.729  0.00  0.00    -0.265 OA
BRANCH  12  14
ATOM     14  C   UNL d   1      46.110 -17.286  44.334  0.00  0.00     0.058 C 
BRANCH  14  15
ATOM     15  C   UNL d   1      46.475 -17.480  43.611  0.00  0.00     0.005 C 
ATOM     16  C   UNL d   1      46.208 -18.136  43.181  0.00  0.00     0.000 C 
ENDBRANCH  14  15
BRANCH  14  17
ATOM     17  C   UNL d   1      46.186 -17.784  44.954  0.00  0.00     0.005 C 
ATOM     18  C   UNL d   1      46.146 -18.606  44.854  0.00  0.00     0.000 C 
ENDBRANCH  14  17
ENDBRANCH  12  14
ENDBRANCH   3  11
TORSDOF 4
ENDMDL
