MODEL 1
REMARK VINA RESULT:      -5.1      0.000      0.000
REMARK  5 active torsions:
REMARK  status: ('A' for Active; 'I' for Inactive)
REMARK    1  A    between atoms: N_2  and  S_1 
REMARK    2  A    between atoms: C_8  and  S_1 
REMARK    3  A    between atoms: S_7  and  C_3 
REMARK    4  A    between atoms: C_11  and  S_7 
REMARK    5  A    between atoms: C_12  and  C_11 
ROOT
ATOM      1  N   UNL d   1     -41.484-122.584 -53.696  0.00  0.00    -0.208 N 
ATOM      2  C   UNL d   1     -41.366-123.043 -53.011  0.00  0.00     0.189 A 
ATOM      3  N   UNL d   1     -41.144-123.807 -53.247  0.00  0.00    -0.219 NA
ATOM      4  C   UNL d   1     -41.333-123.067 -54.358  0.00  0.00     0.114 A 
ATOM      5  C   UNL d   1     -41.125-123.817 -54.078  0.00  0.00     0.121 A 
ENDROOT
BRANCH   1   6
ATOM      6  S   UNL d   1     -41.711-121.785 -53.711  0.00  0.00     0.273 S 
ATOM      7  O   UNL d   1     -41.387-121.715 -52.961  0.00  0.00    -0.200 OA
ATOM      8  O   UNL d   1     -41.831-120.992 -53.496  0.00  0.00    -0.200 OA
BRANCH   6   9
ATOM      9  C   UNL d   1     -42.044-121.836 -54.469  0.00  0.00     0.104 A 
ATOM     10  C   UNL d   1     -41.556-121.785 -55.127  0.00  0.00     0.013 A 
ATOM     11  C   UNL d   1     -41.888-121.836 -55.879  0.00  0.00     0.001 A 
ATOM     12  C   UNL d   1     -42.701-121.937 -55.966  0.00  0.00     0.000 A 
ATOM     13  C   UNL d   1     -43.184-121.988 -55.304  0.00  0.00     0.001 A 
ATOM     14  C   UNL d   1     -42.847-121.936 -54.549  0.00  0.00     0.013 A 
ENDBRANCH   6   9
ENDBRANCH   1   6
BRANCH   2  15
ATOM     15  S   UNL d   1     -41.456-122.780 -52.224  0.00  0.00    -0.049 SA
BRANCH  15  16
ATOM     16  C   UNL d   1     -41.161-123.239 -51.602  0.00  0.00     0.038 C 
BRANCH  16  17
ATOM     17  C   UNL d   1     -41.507-123.180 -50.847  0.00  0.00     0.007 A 
ATOM     18  C   UNL d   1     -41.434-122.481 -50.402  0.00  0.00     0.001 A 
ATOM     19  C   UNL d   1     -41.772-122.418 -49.657  0.00  0.00     0.000 A 
ATOM     20  C   UNL d   1     -42.192-123.058 -49.345  0.00  0.00     0.000 A 
ATOM     21  C   UNL d   1     -42.267-123.759 -49.786  0.00  0.00     0.000 A 
ATOM     22  C   UNL d   1     -42.535-123.003 -48.598  0.00  0.00     0.000 C 
ATOM     23  C   UNL d   1     -41.925-123.817 -50.535  0.00  0.00     0.001 A 
ENDBRANCH  16  17
ENDBRANCH  15  16
ENDBRANCH   2  15
TORSDOF 5
ENDMDL
MODEL 2
REMARK VINA RESULT:      -4.8      1.244      4.397
REMARK  5 active torsions:
REMARK  status: ('A' for Active; 'I' for Inactive)
REMARK    1  A    between atoms: N_2  and  S_1 
REMARK    2  A    between atoms: C_8  and  S_1 
REMARK    3  A    between atoms: S_7  and  C_3 
REMARK    4  A    between atoms: C_11  and  S_7 
REMARK    5  A    between atoms: C_12  and  C_11 
ROOT
ATOM      1  N   UNL d   1     -41.602-122.565 -50.951  0.00  0.00    -0.208 N 
ATOM      2  C   UNL d   1     -41.447-122.799 -51.736  0.00  0.00     0.189 A 
ATOM      3  N   UNL d   1     -41.152-123.575 -51.720  0.00  0.00    -0.219 NA
ATOM      4  C   UNL d   1     -41.402-123.200 -50.450  0.00  0.00     0.114 A 
ATOM      5  C   UNL d   1     -41.126-123.817 -50.926  0.00  0.00     0.121 A 
ENDROOT
BRANCH   1   6
ATOM      6  S   UNL d   1     -41.904-121.828 -50.716  0.00  0.00     0.273 S 
ATOM      7  O   UNL d   1     -41.347-121.482 -51.210  0.00  0.00    -0.200 OA
ATOM      8  O   UNL d   1     -42.025-121.010 -50.640  0.00  0.00    -0.200 OA
BRANCH   6   9
ATOM      9  C   UNL d   1     -42.472-122.158 -50.212  0.00  0.00     0.104 A 
ATOM     10  C   UNL d   1     -42.269-122.335 -49.436  0.00  0.00     0.013 A 
ATOM     11  C   UNL d   1     -42.834-122.664 -48.936  0.00  0.00     0.001 A 
ATOM     12  C   UNL d   1     -43.596-122.813 -49.214  0.00  0.00     0.000 A 
ATOM     13  C   UNL d   1     -43.793-122.634 -49.991  0.00  0.00     0.001 A 
ATOM     14  C   UNL d   1     -43.222-122.303 -50.492  0.00  0.00     0.013 A 
ENDBRANCH   6   9
ENDBRANCH   1   6
BRANCH   2  15
ATOM     15  S   UNL d   1     -41.568-122.334 -52.418  0.00  0.00    -0.049 SA
BRANCH  15  16
ATOM     16  C   UNL d   1     -41.151-122.507 -53.111  0.00  0.00     0.038 C 
BRANCH  16  17
ATOM     17  C   UNL d   1     -41.511-122.381 -53.851  0.00  0.00     0.007 A 
ATOM     18  C   UNL d   1     -42.013-121.729 -53.971  0.00  0.00     0.001 A 
ATOM     19  C   UNL d   1     -42.371-121.601 -54.699  0.00  0.00     0.000 A 
ATOM     20  C   UNL d   1     -42.230-122.127 -55.320  0.00  0.00     0.000 A 
ATOM     21  C   UNL d   1     -41.728-122.780 -55.205  0.00  0.00     0.000 A 
ATOM     22  C   UNL d   1     -42.585-122.006 -56.055  0.00  0.00     0.000 C 
ATOM     23  C   UNL d   1     -41.371-122.904 -54.472  0.00  0.00     0.001 A 
ENDBRANCH  16  17
ENDBRANCH  15  16
ENDBRANCH   2  15
TORSDOF 5
ENDMDL
