MODEL 1
REMARK VINA RESULT:      -7.7      0.000      0.000
REMARK  3 active torsions:
REMARK  status: ('A' for Active; 'I' for Inactive)
REMARK    1  A    between atoms: C_4  and  C_1 
REMARK    2  A    between atoms: C_9  and  N_2 
REMARK    3  A    between atoms: C_8  and  C_13 
ROOT
ATOM      1  N   UNL d   1     -41.555-122.584 -52.523  0.00  0.00    -0.273 N 
ATOM      2  C   UNL d   1     -41.700-122.565 -51.183  0.00  0.00     0.056 A 
ATOM      3  C   UNL d   1     -41.362-121.820 -52.251  0.00  0.00     0.265 A 
ATOM      4  C   UNL d   1     -41.761-123.036 -51.867  0.00  0.00     0.086 A 
ATOM      5  C   UNL d   1     -41.451-121.810 -51.431  0.00  0.00     0.066 A 
ATOM      6  O   UNL d   1     -41.123-121.187 -52.731  0.00  0.00    -0.267 OA
ENDROOT
BRANCH   1   7
ATOM      7  C   UNL d   1     -41.530-122.799 -53.304  0.00  0.00     0.067 A 
ATOM      8  C   UNL d   1     -41.888-122.327 -53.869  0.00  0.00     0.021 A 
ATOM      9  C   UNL d   1     -41.871-122.534 -54.674  0.00  0.00     0.073 A 
ATOM     10  C   UNL d   1     -41.480-123.239 -54.906  0.00  0.00     0.004 A 
ATOM     11  C   UNL d   1     -41.123-123.711 -54.341  0.00  0.00     0.001 A 
ATOM     12  C   UNL d   1     -41.146-123.493 -53.538  0.00  0.00     0.018 A 
BRANCH   9  13
ATOM     13  C   UNL d   1     -42.230-122.055 -55.222  0.00  0.00     0.419 C 
ATOM     14  F   UNL d   1     -42.607-121.564 -55.786  0.00  0.00    -0.166 F 
ATOM     15  F   UNL d   1     -41.501-121.759 -55.452  0.00  0.00    -0.166 F 
ATOM     16  F   UNL d   1     -42.974-122.345 -55.001  0.00  0.00    -0.166 F 
ENDBRANCH   9  13
ENDBRANCH   1   7
BRANCH   2  17
ATOM     17  C   UNL d   1     -41.867-122.844 -50.432  0.00  0.00     0.142 A 
ATOM     18  N   UNL d   1     -42.571-122.986 -50.086  0.00  0.00    -0.227 NA
ATOM     19  C   UNL d   1     -42.440-123.267 -49.315  0.00  0.00     0.099 A 
ATOM     20  C   UNL d   1     -42.957-123.495 -48.724  0.00  0.00     0.021 A 
ATOM     21  C   UNL d   1     -41.630-123.293 -49.200  0.00  0.00     0.076 A 
ATOM     22  C   UNL d   1     -42.643-123.756 -47.998  0.00  0.00     0.002 A 
ATOM     23  C   UNL d   1     -41.833-123.782 -47.882  0.00  0.00     0.002 A 
ATOM     24  C   UNL d   1     -41.314-123.548 -48.490  0.00  0.00     0.019 A 
ATOM     25  N   UNL d   1     -41.272-123.028 -49.901  0.00  0.00    -0.338 N 
ATOM     26  H   UNL d   1     -40.448-122.959 -50.043  0.00  0.00     0.167 HD
ENDBRANCH   2  17
TORSDOF 3
ENDMDL
MODEL 2
REMARK VINA RESULT:      -6.6      2.394      5.085
REMARK  3 active torsions:
REMARK  status: ('A' for Active; 'I' for Inactive)
REMARK    1  A    between atoms: C_4  and  C_1 
REMARK    2  A    between atoms: C_9  and  N_2 
REMARK    3  A    between atoms: C_8  and  C_13 
ROOT
ATOM      1  N   UNL d   1     -41.637-122.506 -50.911  0.00  0.00    -0.273 N 
ATOM      2  C   UNL d   1     -41.574-122.094 -52.193  0.00  0.00     0.056 A 
ATOM      3  C   UNL d   1     -41.342-121.726 -50.921  0.00  0.00     0.265 A 
ATOM      4  C   UNL d   1     -41.777-122.727 -51.691  0.00  0.00     0.086 A 
ATOM      5  C   UNL d   1     -41.304-121.475 -51.706  0.00  0.00     0.066 A 
ATOM      6  O   UNL d   1     -41.127-121.287 -50.251  0.00  0.00    -0.267 OA
ENDROOT
BRANCH   1   7
ATOM      7  C   UNL d   1     -41.749-122.932 -50.231  0.00  0.00     0.067 A 
ATOM      8  C   UNL d   1     -42.487-122.951 -49.878  0.00  0.00     0.021 A 
ATOM      9  C   UNL d   1     -42.617-123.384 -49.180  0.00  0.00     0.073 A 
ATOM     10  C   UNL d   1     -41.980-123.806 -48.836  0.00  0.00     0.004 A 
ATOM     11  C   UNL d   1     -41.242-123.787 -49.189  0.00  0.00     0.001 A 
ATOM     12  C   UNL d   1     -41.123-123.350 -49.889  0.00  0.00     0.018 A 
BRANCH   9  13
ATOM     13  C   UNL d   1     -43.355-123.392 -48.842  0.00  0.00     0.419 C 
ATOM     14  F   UNL d   1     -44.114-123.397 -48.488  0.00  0.00    -0.166 F 
ATOM     15  F   UNL d   1     -43.650-123.818 -49.479  0.00  0.00    -0.166 F 
ATOM     16  F   UNL d   1     -43.073-122.963 -48.192  0.00  0.00    -0.166 F 
ENDBRANCH   9  13
ENDBRANCH   1   7
BRANCH   2  17
ATOM     17  C   UNL d   1     -41.647-122.130 -53.008  0.00  0.00     0.142 A 
ATOM     18  N   UNL d   1     -41.250-122.577 -53.535  0.00  0.00    -0.227 NA
ATOM     19  C   UNL d   1     -41.532-122.406 -54.298  0.00  0.00     0.099 A 
ATOM     20  C   UNL d   1     -41.325-122.699 -55.033  0.00  0.00     0.021 A 
ATOM     21  C   UNL d   1     -42.116-121.839 -54.220  0.00  0.00     0.076 A 
ATOM     22  C   UNL d   1     -41.721-122.408 -55.705  0.00  0.00     0.002 A 
ATOM     23  C   UNL d   1     -42.305-121.840 -55.628  0.00  0.00     0.002 A 
ATOM     24  C   UNL d   1     -42.510-121.547 -54.875  0.00  0.00     0.019 A 
ATOM     25  N   UNL d   1     -42.187-121.666 -53.411  0.00  0.00    -0.338 N 
ATOM     26  H   UNL d   1     -42.717-121.116 -53.065  0.00  0.00     0.167 HD
ENDBRANCH   2  17
TORSDOF 3
ENDMDL
