MODEL 1
REMARK VINA RESULT:      57.1      0.000      0.000
REMARK  6 active torsions:
REMARK  status: ('A' for Active; 'I' for Inactive)
REMARK    1  A    between atoms: N_8  and  S_1 
REMARK    2  A    between atoms: C_12  and  S_1 
REMARK    3  A    between atoms: N_5  and  C_2 
REMARK    4  A    between atoms: C_4  and  O_9 
REMARK    5  A    between atoms: O_9  and  C_10 
REMARK    6  A    between atoms: C_10  and  C_16 
ROOT
ATOM      1  C   UNL d   1      14.865  16.704  -4.650  0.00  0.00     0.104 A 
ATOM      2  C   UNL d   1      14.080  15.364  -4.124  0.00  0.00     0.064 A 
ATOM      3  C   UNL d   1      14.621  16.135  -5.183  0.00  0.00     0.013 A 
ATOM      4  C   UNL d   1      14.714  16.601  -3.845  0.00  0.00     0.013 A 
ATOM      5  C   UNL d   1      14.223  15.454  -4.919  0.00  0.00     0.006 A 
ATOM      6  C   UNL d   1      14.321  15.930  -3.579  0.00  0.00     0.006 A 
ENDROOT
BRANCH   2   7
ATOM      7  C   UNL d   1      13.683  14.687  -3.851  0.00  0.00     0.300 C 
ATOM      8  O   UNL d   1      12.949  14.497  -4.155  0.00  0.00    -0.259 OA
BRANCH   7   9
ATOM      9  O   UNL d   1      14.036  14.211  -3.274  0.00  0.00    -0.271 OA
BRANCH   9  10
ATOM     10  C   UNL d   1      13.830  13.415  -3.203  0.00  0.00     0.132 A 
ATOM     11  C   UNL d   1      14.023  12.994  -2.519  0.00  0.00     0.207 A 
ATOM     12  C   UNL d   1      13.817  12.198  -2.448  0.00  0.00     0.303 A 
ATOM     13  O   UNL d   1      14.013  11.781  -1.761  0.00  0.00    -0.263 OA
ATOM     14  N   UNL d   1      13.419  11.822  -3.061  0.00  0.00    -0.206 NA
ATOM     15  C   UNL d   1      13.226  12.235  -3.740  0.00  0.00     0.087 A 
ATOM     16  C   UNL d   1      13.432  13.031  -3.811  0.00  0.00     0.046 A 
ATOM     17  C   UNL d   1      12.822  11.856  -4.363  0.00  0.00     0.021 C 
BRANCH  11  18
ATOM     18  N   UNL d   1      14.425  13.377  -1.903  0.00  0.00    -0.107 N 
ATOM     19  O   UNL d   1      14.007  13.870  -1.389  0.00  0.00    -0.531 OA
ATOM     20  O   UNL d   1      15.237  13.267  -1.806  0.00  0.00    -0.531 OA
ENDBRANCH  11  18
ENDBRANCH   9  10
ENDBRANCH   7   9
ENDBRANCH   2   7
BRANCH   1  21
ATOM     21  S   UNL d   1      15.256  17.376  -4.901  0.00  0.00     0.271 S 
ATOM     22  O   UNL d   1      15.796  17.954  -5.081  0.00  0.00    -0.200 OA
ATOM     23  O   UNL d   1      15.835  16.909  -4.571  0.00  0.00    -0.200 OA
BRANCH  21  24
ATOM     24  N   UNL d   1      14.825  17.967  -5.265  0.00  0.00    -0.229 N 
ATOM     25  C   UNL d   1      14.562  17.874  -6.041  0.00  0.00     0.092 A 
ATOM     26  C   UNL d   1      14.134  18.474  -6.388  0.00  0.00     0.020 A 
ATOM     27  C   UNL d   1      13.958  19.172  -5.978  0.00  0.00     0.003 A 
ATOM     28  C   UNL d   1      14.221  19.256  -5.210  0.00  0.00     0.020 A 
ATOM     29  C   UNL d   1      14.658  18.654  -4.847  0.00  0.00     0.092 A 
ENDBRANCH  21  24
ENDBRANCH   1  21
TORSDOF 6
ENDMDL
