MODEL 1
REMARK VINA RESULT:      43.1      0.000      0.000
REMARK  4 active torsions:
REMARK  status: ('A' for Active; 'I' for Inactive)
REMARK    1  A    between atoms: C_7  and  N_2 
REMARK    2  A    between atoms: C_12  and  C_7 
REMARK    3  A    between atoms: C_9  and  O_11 
REMARK    4  A    between atoms: O_11  and  C_12 
ROOT
ATOM      1  C   UNL d   1      60.838  49.123  50.303  0.00  0.00     0.296 A 
ATOM      2  N   UNL d   1      60.204  49.366  50.766  0.00  0.00    -0.266 N 
ATOM      3  S   UNL d   1      61.505  49.048  50.805  0.00  0.00    -0.025 SA
ATOM      4  C   UNL d   1      60.469  49.443  51.548  0.00  0.00     0.074 A 
ATOM      5  C   UNL d   1      61.266  49.248  51.572  0.00  0.00     0.050 A 
ATOM      6  O   UNL d   1      60.826  48.978  49.495  0.00  0.00    -0.259 OA
ATOM      7  C   UNL d   1      60.073  49.669  52.239  0.00  0.00     0.018 A 
ATOM      8  C   UNL d   1      61.686  49.274  52.287  0.00  0.00     0.008 A 
ATOM      9  C   UNL d   1      60.489  49.695  52.953  0.00  0.00     0.002 A 
ATOM     10  C   UNL d   1      61.286  49.500  52.977  0.00  0.00     0.001 A 
ENDROOT
BRANCH   2  11
ATOM     11  C   UNL d   1      59.436  49.510  50.500  0.00  0.00     0.110 C 
BRANCH  11  12
ATOM     12  C   UNL d   1      58.907  48.888  50.403  0.00  0.00     0.142 C 
BRANCH  12  13
ATOM     13  O   UNL d   1      58.172  48.889  50.786  0.00  0.00    -0.304 OA
BRANCH  13  14
ATOM     14  C   UNL d   1      57.475  48.943  50.349  0.00  0.00     0.100 A 
ATOM     15  C   UNL d   1      57.219  48.300  49.900  0.00  0.00     0.025 A 
ATOM     16  C   UNL d   1      56.526  48.355  49.466  0.00  0.00     0.002 A 
ATOM     17  C   UNL d   1      56.271  47.711  49.017  0.00  0.00     0.000 C 
ATOM     18  C   UNL d   1      56.087  49.054  49.480  0.00  0.00     0.000 A 
ATOM     19  C   UNL d   1      56.347  49.697  49.932  0.00  0.00     0.002 A 
ATOM     20  C   UNL d   1      57.044  49.634  50.364  0.00  0.00     0.025 A 
ENDBRANCH  13  14
ENDBRANCH  12  13
ENDBRANCH  11  12
ENDBRANCH   2  11
TORSDOF 4
ENDMDL
MODEL 2
REMARK VINA RESULT:      44.2      1.549      4.426
REMARK  4 active torsions:
REMARK  status: ('A' for Active; 'I' for Inactive)
REMARK    1  A    between atoms: C_7  and  N_2 
REMARK    2  A    between atoms: C_12  and  C_7 
REMARK    3  A    between atoms: C_9  and  O_11 
REMARK    4  A    between atoms: O_11  and  C_12 
ROOT
ATOM      1  C   UNL d   1      57.966  49.692  51.277  0.00  0.00     0.296 A 
ATOM      2  N   UNL d   1      58.221  49.699  50.495  0.00  0.00    -0.266 N 
ATOM      3  S   UNL d   1      57.128  49.686  51.271  0.00  0.00    -0.025 SA
ATOM      4  C   UNL d   1      57.552  49.696  50.005  0.00  0.00     0.074 A 
ATOM      5  C   UNL d   1      56.883  49.688  50.480  0.00  0.00     0.050 A 
ATOM      6  O   UNL d   1      58.441  49.692  51.947  0.00  0.00    -0.259 OA
ATOM      7  C   UNL d   1      57.480  49.701  49.181  0.00  0.00     0.018 A 
ATOM      8  C   UNL d   1      56.126  49.684  50.142  0.00  0.00     0.008 A 
ATOM      9  C   UNL d   1      56.726  49.696  48.840  0.00  0.00     0.002 A 
ATOM     10  C   UNL d   1      56.057  49.688  49.315  0.00  0.00     0.001 A 
ENDROOT
BRANCH   2  11
ATOM     11  C   UNL d   1      59.006  49.707  50.242  0.00  0.00     0.110 C 
BRANCH  11  12
ATOM     12  C   UNL d   1      59.572  49.250  50.627  0.00  0.00     0.142 C 
BRANCH  12  13
ATOM     13  O   UNL d   1      60.353  49.218  50.353  0.00  0.00    -0.304 OA
BRANCH  13  14
ATOM     14  C   UNL d   1      60.907  48.737  50.729  0.00  0.00     0.100 A 
ATOM     15  C   UNL d   1      61.115  48.011  50.396  0.00  0.00     0.025 A 
ATOM     16  C   UNL d   1      61.666  47.533  50.771  0.00  0.00     0.002 A 
ATOM     17  C   UNL d   1      61.874  46.808  50.437  0.00  0.00     0.000 C 
ATOM     18  C   UNL d   1      62.009  47.781  51.479  0.00  0.00     0.000 A 
ATOM     19  C   UNL d   1      61.798  48.510  51.810  0.00  0.00     0.002 A 
ATOM     20  C   UNL d   1      61.245  48.983  51.428  0.00  0.00     0.025 A 
ENDBRANCH  13  14
ENDBRANCH  12  13
ENDBRANCH  11  12
ENDBRANCH   2  11
TORSDOF 4
ENDMDL
