MODEL 1
REMARK VINA RESULT:      -7.6      0.000      0.000
REMARK  3 active torsions:
REMARK  status: ('A' for Active; 'I' for Inactive)
REMARK       I    between atoms: C_4  and  N_1 
REMARK    1  A    between atoms: C_7  and  C_3 
REMARK    2  A    between atoms: C_9  and  C_4 
REMARK    3  A    between atoms: C_8  and  C_5 
ROOT
ATOM      1  N   UNL d   1     -49.069  13.543  23.119  0.00  0.00    -0.191 N 
ATOM      2  N   UNL d   1     -48.344  13.191  22.983  0.00  0.00    -0.163 NA
ATOM      3  C   UNL d   1     -48.964  14.367  22.971  0.00  0.00     0.110 A 
ATOM      4  C   UNL d   1     -49.755  13.183  23.350  0.00  0.00     0.303 C 
ATOM      5  C   UNL d   1     -47.797  13.766  22.756  0.00  0.00     0.103 A 
ATOM      6  C   UNL d   1     -48.175  14.481  22.749  0.00  0.00     0.042 A 
ATOM      7  O   UNL d   1     -50.467  13.668  23.464  0.00  0.00    -0.263 OA
ENDROOT
BRANCH   3   8
ATOM      8  C   UNL d   1     -49.546  14.948  23.037  0.00  0.00     0.118 A 
ATOM      9  O   UNL d   1     -50.062  15.165  22.448  0.00  0.00    -0.304 OA
ATOM     10  C   UNL d   1     -50.556  15.770  22.747  0.00  0.00     0.123 A 
ATOM     11  C   UNL d   1     -50.327  15.912  23.527  0.00  0.00     0.029 A 
ATOM     12  C   UNL d   1     -49.694  15.392  23.697  0.00  0.00     0.028 A 
ENDBRANCH   3   8
BRANCH   4  13
ATOM     13  C   UNL d   1     -49.805  12.378  23.481  0.00  0.00     0.158 A 
ATOM     14  O   UNL d   1     -49.179  11.851  23.554  0.00  0.00    -0.300 OA
ATOM     15  C   UNL d   1     -49.475  11.098  23.682  0.00  0.00     0.123 A 
ATOM     16  C   UNL d   1     -50.295  11.151  23.689  0.00  0.00     0.029 A 
ATOM     17  C   UNL d   1     -50.506  11.943  23.566  0.00  0.00     0.032 A 
ENDBRANCH   4  13
BRANCH   5  18
ATOM     18  C   UNL d   1     -47.000  13.607  22.572  0.00  0.00     0.019 A 
ATOM     19  C   UNL d   1     -46.840  13.223  21.888  0.00  0.00     0.002 A 
ATOM     20  C   UNL d   1     -46.063  13.050  21.675  0.00  0.00     0.007 A 
ATOM     21  C   UNL d   1     -45.454  13.274  22.170  0.00  0.00     0.035 A 
ATOM     22  C   UNL d   1     -45.601  13.675  22.886  0.00  0.00     0.007 A 
ATOM     23 BR   UNL d   1     -44.679  13.099  21.952  0.00  0.00    -0.049 Br
ATOM     24  C   UNL d   1     -46.407  13.844  23.087  0.00  0.00     0.002 A 
ENDBRANCH   5  18
TORSDOF 3
ENDMDL
MODEL 2
REMARK VINA RESULT:      -6.1      0.783      2.634
REMARK  3 active torsions:
REMARK  status: ('A' for Active; 'I' for Inactive)
REMARK       I    between atoms: C_4  and  N_1 
REMARK    1  A    between atoms: C_7  and  C_3 
REMARK    2  A    between atoms: C_9  and  C_4 
REMARK    3  A    between atoms: C_8  and  C_5 
ROOT
ATOM      1  N   UNL d   1     -48.852  13.325  22.960  0.00  0.00    -0.191 N 
ATOM      2  N   UNL d   1     -48.083  13.547  22.801  0.00  0.00    -0.163 NA
ATOM      3  C   UNL d   1     -48.853  12.482  22.996  0.00  0.00     0.110 A 
ATOM      4  C   UNL d   1     -49.492  13.809  23.065  0.00  0.00     0.303 C 
ATOM      5  C   UNL d   1     -47.609  12.874  22.737  0.00  0.00     0.103 A 
ATOM      6  C   UNL d   1     -48.080  12.226  22.856  0.00  0.00     0.042 A 
ATOM      7  O   UNL d   1     -50.266  13.451  23.231  0.00  0.00    -0.263 OA
ENDROOT
BRANCH   3   8
ATOM      8  C   UNL d   1     -49.510  12.005  23.145  0.00  0.00     0.118 A 
ATOM      9  O   UNL d   1     -50.225  12.058  22.762  0.00  0.00    -0.304 OA
ATOM     10  C   UNL d   1     -50.734  11.475  23.081  0.00  0.00     0.123 A 
ATOM     11  C   UNL d   1     -50.310  11.072  23.663  0.00  0.00     0.029 A 
ATOM     12  C   UNL d   1     -49.546  11.412  23.694  0.00  0.00     0.028 A 
ENDBRANCH   3   8
BRANCH   4  13
ATOM     13  C   UNL d   1     -49.438  14.623  23.020  0.00  0.00     0.158 A 
ATOM     14  O   UNL d   1     -49.147  15.063  22.390  0.00  0.00    -0.300 OA
ATOM     15  C   UNL d   1     -49.194  15.860  22.576  0.00  0.00     0.123 A 
ATOM     16  C   UNL d   1     -49.517  15.922  23.328  0.00  0.00     0.029 A 
ATOM     17  C   UNL d   1     -49.671  15.158  23.610  0.00  0.00     0.032 A 
ENDBRANCH   4  13
BRANCH   5  18
ATOM     18  C   UNL d   1     -46.791  12.889  22.577  0.00  0.00     0.019 A 
ATOM     19  C   UNL d   1     -46.545  13.253  21.907  0.00  0.00     0.002 A 
ATOM     20  C   UNL d   1     -45.744  13.287  21.718  0.00  0.00     0.007 A 
ATOM     21  C   UNL d   1     -45.200  12.945  22.221  0.00  0.00     0.035 A 
ATOM     22  C   UNL d   1     -45.437  12.562  22.922  0.00  0.00     0.007 A 
ATOM     23 BR   UNL d   1     -44.400  12.982  22.026  0.00  0.00    -0.049 Br
ATOM     24  C   UNL d   1     -46.266  12.538  23.100  0.00  0.00     0.002 A 
ENDBRANCH   5  18
TORSDOF 3
ENDMDL
MODEL 3
REMARK VINA RESULT:      -5.6      9.799     10.820
REMARK  3 active torsions:
REMARK  status: ('A' for Active; 'I' for Inactive)
REMARK       I    between atoms: C_4  and  N_1 
REMARK    1  A    between atoms: C_7  and  C_3 
REMARK    2  A    between atoms: C_9  and  C_4 
REMARK    3  A    between atoms: C_8  and  C_5 
ROOT
ATOM      1  N   UNL d   1     -38.912  14.108  18.801  0.00  0.00    -0.191 N 
ATOM      2  N   UNL d   1     -39.358  14.212  18.124  0.00  0.00    -0.163 NA
ATOM      3  C   UNL d   1     -39.122  14.737  19.323  0.00  0.00     0.110 A 
ATOM      4  C   UNL d   1     -38.373  13.523  18.950  0.00  0.00     0.303 C 
ATOM      5  C   UNL d   1     -39.835  14.880  18.209  0.00  0.00     0.103 A 
ATOM      6  C   UNL d   1     -39.691  15.198  18.938  0.00  0.00     0.042 A 
ATOM      7  O   UNL d   1     -37.958  13.519  19.713  0.00  0.00    -0.263 OA
ENDROOT
BRANCH   3   8
ATOM      8  C   UNL d   1     -38.813  14.862  20.077  0.00  0.00     0.118 A 
ATOM      9  O   UNL d   1     -38.077  15.166  20.239  0.00  0.00    -0.304 OA
ATOM     10  C   UNL d   1     -37.988  15.200  21.071  0.00  0.00     0.123 A 
ATOM     11  C   UNL d   1     -38.686  14.912  21.404  0.00  0.00     0.029 A 
ATOM     12  C   UNL d   1     -39.194  14.703  20.773  0.00  0.00     0.028 A 
ENDBRANCH   3   8
BRANCH   4  13
ATOM     13  C   UNL d   1     -38.204  12.934  18.409  0.00  0.00     0.158 A 
ATOM     14  O   UNL d   1     -38.106  13.024  17.598  0.00  0.00    -0.300 OA
ATOM     15  C   UNL d   1     -37.943  12.293  17.265  0.00  0.00     0.123 A 
ATOM     16  C   UNL d   1     -37.940  11.738  17.871  0.00  0.00     0.029 A 
ATOM     17  C   UNL d   1     -38.101  12.130  18.584  0.00  0.00     0.032 A 
ENDBRANCH   4  13
BRANCH   5  18
ATOM     18  C   UNL d   1     -40.364  15.154  17.626  0.00  0.00     0.019 A 
ATOM     19  C   UNL d   1     -41.138  14.964  17.701  0.00  0.00     0.002 A 
ATOM     20  C   UNL d   1     -41.689  15.219  17.143  0.00  0.00     0.007 A 
ATOM     21  C   UNL d   1     -41.438  15.670  16.511  0.00  0.00     0.035 A 
ATOM     22  C   UNL d   1     -40.637  15.878  16.417  0.00  0.00     0.007 A 
ATOM     23 BR   UNL d   1     -41.993  15.922  15.957  0.00  0.00    -0.049 Br
ATOM     24  C   UNL d   1     -40.086  15.606  17.001  0.00  0.00     0.002 A 
ENDBRANCH   5  18
TORSDOF 3
ENDMDL
MODEL 4
REMARK VINA RESULT:      -5.4      2.598      4.915
REMARK  3 active torsions:
REMARK  status: ('A' for Active; 'I' for Inactive)
REMARK       I    between atoms: C_4  and  N_1 
REMARK    1  A    between atoms: C_7  and  C_3 
REMARK    2  A    between atoms: C_9  and  C_4 
REMARK    3  A    between atoms: C_8  and  C_5 
ROOT
ATOM      1  N   UNL d   1     -46.517  12.347  23.219  0.00  0.00    -0.191 N 
ATOM      2  N   UNL d   1     -47.292  12.607  23.224  0.00  0.00    -0.163 NA
ATOM      3  C   UNL d   1     -46.538  11.535  23.446  0.00  0.00     0.110 A 
ATOM      4  C   UNL d   1     -45.856  12.776  23.035  0.00  0.00     0.303 C 
ATOM      5  C   UNL d   1     -47.789  11.987  23.445  0.00  0.00     0.103 A 
ATOM      6  C   UNL d   1     -47.329  11.335  23.580  0.00  0.00     0.042 A 
ATOM      7  O   UNL d   1     -45.081  12.385  23.066  0.00  0.00    -0.263 OA
ENDROOT
BRANCH   3   8
ATOM      8  C   UNL d   1     -45.884  11.037  23.519  0.00  0.00     0.118 A 
ATOM      9  O   UNL d   1     -45.123  11.280  23.667  0.00  0.00    -0.304 OA
ATOM     10  C   UNL d   1     -44.636  10.600  23.697  0.00  0.00     0.123 A 
ATOM     11  C   UNL d   1     -45.120   9.945  23.565  0.00  0.00     0.029 A 
ATOM     12  C   UNL d   1     -45.898  10.230  23.454  0.00  0.00     0.028 A 
ENDBRANCH   3   8
BRANCH   4  13
ATOM     13  C   UNL d   1     -45.890  13.563  22.820  0.00  0.00     0.158 A 
ATOM     14  O   UNL d   1     -46.108  14.195  23.298  0.00  0.00    -0.300 OA
ATOM     15  C   UNL d   1     -46.065  14.888  22.863  0.00  0.00     0.123 A 
ATOM     16  C   UNL d   1     -45.819  14.691  22.104  0.00  0.00     0.029 A 
ATOM     17  C   UNL d   1     -45.708  13.870  22.071  0.00  0.00     0.032 A 
ENDBRANCH   4  13
BRANCH   5  18
ATOM     18  C   UNL d   1     -48.618  12.050  23.510  0.00  0.00     0.019 A 
ATOM     19  C   UNL d   1     -49.048  11.375  23.516  0.00  0.00     0.002 A 
ATOM     20  C   UNL d   1     -49.869  11.400  23.579  0.00  0.00     0.007 A 
ATOM     21  C   UNL d   1     -50.243  12.124  23.635  0.00  0.00     0.035 A 
ATOM     22  C   UNL d   1     -49.812  12.837  23.630  0.00  0.00     0.007 A 
ATOM     23 BR   UNL d   1     -51.064  12.143  23.698  0.00  0.00    -0.049 Br
ATOM     24  C   UNL d   1     -48.968  12.790  23.565  0.00  0.00     0.002 A 
ENDBRANCH   5  18
TORSDOF 3
ENDMDL
MODEL 5
REMARK VINA RESULT:      -5.0      6.784      9.069
REMARK  3 active torsions:
REMARK  status: ('A' for Active; 'I' for Inactive)
REMARK       I    between atoms: C_4  and  N_1 
REMARK    1  A    between atoms: C_7  and  C_3 
REMARK    2  A    between atoms: C_9  and  C_4 
REMARK    3  A    between atoms: C_8  and  C_5 
ROOT
ATOM      1  N   UNL d   1     -40.552  14.245  20.497  0.00  0.00    -0.191 N 
ATOM      2  N   UNL d   1     -40.913  14.414  19.784  0.00  0.00    -0.163 NA
ATOM      3  C   UNL d   1     -39.741  14.462  20.410  0.00  0.00     0.110 A 
ATOM      4  C   UNL d   1     -40.894  13.931  21.160  0.00  0.00     0.303 C 
ATOM      5  C   UNL d   1     -40.357  14.727  19.261  0.00  0.00     0.103 A 
ATOM      6  C   UNL d   1     -39.644  14.756  19.643  0.00  0.00     0.042 A 
ATOM      7  O   UNL d   1     -40.402  13.796  21.863  0.00  0.00    -0.263 OA
ENDROOT
BRANCH   3   8
ATOM      8  C   UNL d   1     -39.157  14.392  20.989  0.00  0.00     0.118 A 
ATOM      9  O   UNL d   1     -38.715  13.725  21.132  0.00  0.00    -0.304 OA
ATOM     10  C   UNL d   1     -38.191  13.893  21.762  0.00  0.00     0.123 A 
ATOM     11  C   UNL d   1     -38.326  14.673  21.994  0.00  0.00     0.029 A 
ATOM     12  C   UNL d   1     -38.933  14.975  21.503  0.00  0.00     0.028 A 
ENDBRANCH   3   8
BRANCH   4  13
ATOM     13  C   UNL d   1     -41.687  13.737  21.194  0.00  0.00     0.158 A 
ATOM     14  O   UNL d   1     -42.316  14.252  21.314  0.00  0.00    -0.300 OA
ATOM     15  C   UNL d   1     -43.016  13.826  21.308  0.00  0.00     0.123 A 
ATOM     16  C   UNL d   1     -42.827  13.037  21.183  0.00  0.00     0.029 A 
ATOM     17  C   UNL d   1     -42.003  12.974  21.112  0.00  0.00     0.032 A 
ENDBRANCH   4  13
BRANCH   5  18
ATOM     18  C   UNL d   1     -40.529  14.963  18.481  0.00  0.00     0.019 A 
ATOM     19  C   UNL d   1     -40.914  15.657  18.373  0.00  0.00     0.002 A 
ATOM     20  C   UNL d   1     -41.100  15.922  17.615  0.00  0.00     0.007 A 
ATOM     21  C   UNL d   1     -40.887  15.468  16.971  0.00  0.00     0.035 A 
ATOM     22  C   UNL d   1     -40.486  14.743  17.063  0.00  0.00     0.007 A 
ATOM     23 BR   UNL d   1     -41.075  15.737  16.215  0.00  0.00    -0.049 Br
ATOM     24  C   UNL d   1     -40.304  14.489  17.851  0.00  0.00     0.002 A 
ENDBRANCH   5  18
TORSDOF 3
ENDMDL
MODEL 6
REMARK VINA RESULT:      -4.8      3.190      5.393
REMARK  3 active torsions:
REMARK  status: ('A' for Active; 'I' for Inactive)
REMARK       I    between atoms: C_4  and  N_1 
REMARK    1  A    between atoms: C_7  and  C_3 
REMARK    2  A    between atoms: C_9  and  C_4 
REMARK    3  A    between atoms: C_8  and  C_5 
ROOT
ATOM      1  N   UNL d   1     -44.323  12.313  22.323  0.00  0.00    -0.191 N 
ATOM      2  N   UNL d   1     -45.098  12.401  22.566  0.00  0.00    -0.163 NA
ATOM      3  C   UNL d   1     -44.147  12.987  21.846  0.00  0.00     0.110 A 
ATOM      4  C   UNL d   1     -43.818  11.706  22.499  0.00  0.00     0.303 C 
ATOM      5  C   UNL d   1     -45.407  13.101  22.258  0.00  0.00     0.103 A 
ATOM      6  C   UNL d   1     -44.826  13.457  21.820  0.00  0.00     0.042 A 
ATOM      7  O   UNL d   1     -43.011  11.726  22.179  0.00  0.00    -0.263 OA
ENDROOT
BRANCH   3   8
ATOM      8  C   UNL d   1     -43.426  13.141  21.477  0.00  0.00     0.118 A 
ATOM      9  O   UNL d   1     -42.776  13.472  21.835  0.00  0.00    -0.304 OA
ATOM     10  C   UNL d   1     -42.167  13.531  21.263  0.00  0.00     0.123 A 
ATOM     11  C   UNL d   1     -42.465  13.228  20.556  0.00  0.00     0.029 A 
ATOM     12  C   UNL d   1     -43.253  12.988  20.701  0.00  0.00     0.028 A 
ENDBRANCH   3   8
BRANCH   4  13
ATOM     13  C   UNL d   1     -44.038  11.074  22.968  0.00  0.00     0.158 A 
ATOM     14  O   UNL d   1     -44.792  10.910  23.250  0.00  0.00    -0.300 OA
ATOM     15  C   UNL d   1     -44.768  10.224  23.698  0.00  0.00     0.123 A 
ATOM     16  C   UNL d   1     -43.991   9.954  23.698  0.00  0.00     0.029 A 
ATOM     17  C   UNL d   1     -43.533  10.478  23.247  0.00  0.00     0.032 A 
ENDBRANCH   4  13
BRANCH   5  18
ATOM     18  C   UNL d   1     -46.184  13.370  22.392  0.00  0.00     0.019 A 
ATOM     19  C   UNL d   1     -46.282  14.050  22.803  0.00  0.00     0.002 A 
ATOM     20  C   UNL d   1     -47.037  14.345  22.953  0.00  0.00     0.007 A 
ATOM     21  C   UNL d   1     -47.687  13.936  22.678  0.00  0.00     0.035 A 
ATOM     22  C   UNL d   1     -47.605  13.227  22.248  0.00  0.00     0.007 A 
ATOM     23 BR   UNL d   1     -48.440  14.236  22.831  0.00  0.00    -0.049 Br
ATOM     24  C   UNL d   1     -46.820  12.940  22.104  0.00  0.00     0.002 A 
ENDBRANCH   5  18
TORSDOF 3
ENDMDL
