MODEL 1
REMARK VINA RESULT:      18.1      0.000      0.000
REMARK  5 active torsions:
REMARK  status: ('A' for Active; 'I' for Inactive)
REMARK    1  A    between atoms: N_3  and  C_1 
REMARK       I    between atoms: C_7  and  N_3 
REMARK    2  A    between atoms: S_9  and  C_4 
REMARK    3  A    between atoms: C_8  and  C_7 
REMARK    4  A    between atoms: C_13  and  S_9 
REMARK    5  A    between atoms: C_16  and  C_13 
ROOT
ATOM      1  C   UNL d   1      45.978 -15.785  44.355  0.00  0.00     0.219 A 
ATOM      2  S   UNL d   1      46.420 -15.079  44.564  0.00  0.00    -0.019 SA
ATOM      3  C   UNL d   1      45.828 -14.460  44.711  0.00  0.00     0.165 A 
ATOM      4  N   UNL d   1      45.294 -15.581  44.386  0.00  0.00    -0.120 NA
ATOM      5  N   UNL d   1      45.211 -14.753  44.609  0.00  0.00    -0.133 NA
ENDROOT
BRANCH   1   6
ATOM      6  N   UNL d   1      46.337 -16.607  44.144  0.00  0.00    -0.181 NA
ATOM      7  C   UNL d   1      45.845 -17.234  43.835  0.00  0.00     0.281 C 
ATOM      8  O   UNL d   1      45.170 -17.103  43.749  0.00  0.00    -0.265 OA
BRANCH   7   9
ATOM      9  C   UNL d   1      46.040 -17.998  43.611  0.00  0.00     0.058 A 
ATOM     10  C   UNL d   1      46.175 -18.170  42.818  0.00  0.00     0.006 A 
ATOM     11  C   UNL d   1      46.373 -18.946  42.596  0.00  0.00     0.012 A 
ATOM     12  C   UNL d   1      46.430 -19.536  43.179  0.00  0.00     0.058 A 
ATOM     13  C   UNL d   1      46.291 -19.343  43.969  0.00  0.00     0.012 A 
ATOM     14 CL   UNL d   1      46.644 -20.323  42.850  0.00  0.00    -0.082 Cl
ATOM     15  C   UNL d   1      46.097 -18.575  44.181  0.00  0.00     0.006 A 
ENDBRANCH   7   9
ENDBRANCH   1   6
BRANCH   3  16
ATOM     16  S   UNL d   1      45.879 -13.588  44.951  0.00  0.00    -0.059 SA
BRANCH  16  17
ATOM     17  C   UNL d   1      46.097 -13.162  44.380  0.00  0.00     0.037 C 
BRANCH  17  18
ATOM     18  C   UNL d   1      45.553 -12.907  43.828  0.00  0.00     0.007 A 
ATOM     19  C   UNL d   1      45.791 -12.636  43.091  0.00  0.00     0.001 A 
ATOM     20  C   UNL d   1      45.239 -12.378  42.530  0.00  0.00     0.007 A 
ATOM     21  C   UNL d   1      44.434 -12.395  42.721  0.00  0.00     0.035 A 
ATOM     22  C   UNL d   1      44.183 -12.672  43.476  0.00  0.00     0.007 A 
ATOM     23 BR   UNL d   1      43.730 -12.084  42.054  0.00  0.00    -0.049 Br
ATOM     24  C   UNL d   1      44.768 -12.924  44.015  0.00  0.00     0.001 A 
ENDBRANCH  17  18
ENDBRANCH  16  17
ENDBRANCH   3  16
TORSDOF 5
ENDMDL
MODEL 2
REMARK VINA RESULT:      19.6      2.847      5.531
REMARK  5 active torsions:
REMARK  status: ('A' for Active; 'I' for Inactive)
REMARK    1  A    between atoms: N_3  and  C_1 
REMARK       I    between atoms: C_7  and  N_3 
REMARK    2  A    between atoms: S_9  and  C_4 
REMARK    3  A    between atoms: C_8  and  C_7 
REMARK    4  A    between atoms: C_13  and  S_9 
REMARK    5  A    between atoms: C_16  and  C_13 
ROOT
ATOM      1  C   UNL d   1      45.476 -17.161  44.532  0.00  0.00     0.219 A 
ATOM      2  S   UNL d   1      45.934 -17.817  44.847  0.00  0.00    -0.019 SA
ATOM      3  C   UNL d   1      45.741 -18.504  44.351  0.00  0.00     0.165 A 
ATOM      4  N   UNL d   1      45.118 -17.444  43.983  0.00  0.00    -0.120 NA
ATOM      5  N   UNL d   1      45.290 -18.282  43.878  0.00  0.00    -0.133 NA
ENDROOT
BRANCH   1   6
ATOM      6  N   UNL d   1      45.473 -16.298  44.854  0.00  0.00    -0.181 NA
ATOM      7  C   UNL d   1      45.469 -15.631  44.320  0.00  0.00     0.281 C 
ATOM      8  O   UNL d   1      45.468 -15.762  43.639  0.00  0.00    -0.265 OA
BRANCH   7   9
ATOM      9  C   UNL d   1      45.465 -14.827  44.477  0.00  0.00     0.058 A 
ATOM     10  C   UNL d   1      46.173 -14.407  44.474  0.00  0.00     0.006 A 
ATOM     11  C   UNL d   1      46.165 -13.592  44.635  0.00  0.00     0.012 A 
ATOM     12  C   UNL d   1      45.442 -13.214  44.796  0.00  0.00     0.058 A 
ATOM     13  C   UNL d   1      44.744 -13.653  44.795  0.00  0.00     0.012 A 
ATOM     14 CL   UNL d   1      45.533 -12.354  44.954  0.00  0.00    -0.082 Cl
ATOM     15  C   UNL d   1      44.759 -14.457  44.636  0.00  0.00     0.006 A 
ENDBRANCH   7   9
ENDBRANCH   1   6
BRANCH   3  16
ATOM     16  S   UNL d   1      46.006 -19.371  44.350  0.00  0.00    -0.059 SA
BRANCH  16  17
ATOM     17  C   UNL d   1      46.647 -19.458  43.980  0.00  0.00     0.037 C 
BRANCH  17  18
ATOM     18  C   UNL d   1      46.647 -19.509  43.166  0.00  0.00     0.007 A 
ATOM     19  C   UNL d   1      46.647 -18.835  42.698  0.00  0.00     0.001 A 
ATOM     20  C   UNL d   1      46.646 -18.886  41.872  0.00  0.00     0.007 A 
ATOM     21  C   UNL d   1      46.646 -19.634  41.515  0.00  0.00     0.035 A 
ATOM     22  C   UNL d   1      46.646 -20.330  41.990  0.00  0.00     0.007 A 
ATOM     23 BR   UNL d   1      46.645 -19.732  40.501  0.00  0.00    -0.049 Br
ATOM     24  C   UNL d   1      46.646 -20.239  42.819  0.00  0.00     0.001 A 
ENDBRANCH  17  18
ENDBRANCH  16  17
ENDBRANCH   3  16
TORSDOF 5
ENDMDL
