MODEL 1
REMARK VINA RESULT:      -6.8      0.000      0.000
REMARK  1 active torsions:
REMARK  status: ('A' for Active; 'I' for Inactive)
REMARK       I    between atoms: C_8  and  N_9 
REMARK    1  A    between atoms: N_9  and  C_10 
ROOT
ATOM      1  C   UNL d   1     -41.305-122.258 -52.779  0.00  0.00     0.102 A 
ATOM      2  O   UNL d   1     -41.229-121.834 -52.073  0.00  0.00    -0.307 OA
ATOM      3  C   UNL d   1     -41.328-123.062 -52.605  0.00  0.00     0.025 A 
ATOM      4  C   UNL d   1     -41.264-123.140 -51.783  0.00  0.00     0.025 A 
ATOM      5  C   UNL d   1     -41.204-122.388 -51.458  0.00  0.00     0.100 A 
ATOM      6  C   UNL d   1     -41.358-122.005 -53.559  0.00  0.00     0.044 A 
ATOM      7  C   UNL d   1     -41.401-123.615 -53.207  0.00  0.00     0.004 A 
ATOM      8  C   UNL d   1     -41.432-122.552 -54.168  0.00  0.00     0.087 A 
ATOM      9  C   UNL d   1     -41.454-123.363 -53.991  0.00  0.00     0.019 A 
ATOM     10  C   UNL d   1     -41.254-123.809 -51.288  0.00  0.00     0.002 A 
ATOM     11  C   UNL d   1     -41.133-122.294 -50.640  0.00  0.00     0.025 A 
ATOM     12  C   UNL d   1     -41.183-123.714 -50.476  0.00  0.00     0.000 A 
ATOM     13  C   UNL d   1     -41.123-122.955 -50.150  0.00  0.00     0.002 A 
ENDROOT
BRANCH   8  14
ATOM     14  N   UNL d   1     -41.484-122.301 -54.952  0.00  0.00    -0.208 NA
ATOM     15  C   UNL d   1     -42.200-122.014 -55.248  0.00  0.00     0.279 C 
ATOM     16  O   UNL d   1     -42.862-121.980 -54.754  0.00  0.00    -0.265 OA
ATOM     17  C   UNL d   1     -42.254-121.761 -56.035  0.00  0.00     0.068 C 
ENDBRANCH   8  14
TORSDOF 1
ENDMDL
MODEL 2
REMARK VINA RESULT:      -6.2      1.401      3.634
REMARK  1 active torsions:
REMARK  status: ('A' for Active; 'I' for Inactive)
REMARK       I    between atoms: C_8  and  N_9 
REMARK    1  A    between atoms: N_9  and  C_10 
ROOT
ATOM      1  C   UNL d   1     -41.562-122.282 -52.606  0.00  0.00     0.102 A 
ATOM      2  O   UNL d   1     -41.773-121.657 -53.106  0.00  0.00    -0.307 OA
ATOM      3  C   UNL d   1     -41.429-122.954 -53.061  0.00  0.00     0.025 A 
ATOM      4  C   UNL d   1     -41.558-122.747 -53.852  0.00  0.00     0.025 A 
ATOM      5  C   UNL d   1     -41.769-121.954 -53.879  0.00  0.00     0.100 A 
ATOM      6  C   UNL d   1     -41.476-122.315 -51.789  0.00  0.00     0.044 A 
ATOM      7  C   UNL d   1     -41.211-123.659 -52.704  0.00  0.00     0.004 A 
ATOM      8  C   UNL d   1     -41.257-123.018 -51.424  0.00  0.00     0.087 A 
ATOM      9  C   UNL d   1     -41.123-123.696 -51.885  0.00  0.00     0.019 A 
ATOM     10  C   UNL d   1     -41.509-123.188 -54.556  0.00  0.00     0.002 A 
ATOM     11  C   UNL d   1     -41.932-121.592 -54.604  0.00  0.00     0.025 A 
ATOM     12  C   UNL d   1     -41.672-122.827 -55.275  0.00  0.00     0.000 A 
ATOM     13  C   UNL d   1     -41.884-122.027 -55.300  0.00  0.00     0.002 A 
ENDROOT
BRANCH   8  14
ATOM     14  N   UNL d   1     -41.170-123.055 -50.604  0.00  0.00    -0.208 NA
ATOM     15  C   UNL d   1     -41.811-123.268 -50.129  0.00  0.00     0.279 C 
ATOM     16  O   UNL d   1     -42.539-123.444 -50.479  0.00  0.00    -0.265 OA
ATOM     17  C   UNL d   1     -41.725-123.305 -49.305  0.00  0.00     0.068 C 
ENDBRANCH   8  14
TORSDOF 1
ENDMDL
