MODEL 1
REMARK VINA RESULT:      39.5      0.000      0.000
REMARK  3 active torsions:
REMARK  status: ('A' for Active; 'I' for Inactive)
REMARK    1  A    between atoms: N_7  and  C_2 
REMARK    2  A    between atoms: C_10  and  N_7 
REMARK    3  A    between atoms: C_12  and  C_10 
ROOT
ATOM      1  C   UNL d   1     -51.956  26.066  33.306  0.00  0.00     0.184 A 
ATOM      2  C   UNL d   1     -51.264  25.662  33.306  0.00  0.00     0.108 A 
ATOM      3  C   UNL d   1     -52.690  25.646  33.306  0.00  0.00     0.321 A 
ATOM      4  O   UNL d   1     -52.698  24.842  33.306  0.00  0.00    -0.272 OA
ATOM      5  C   UNL d   1     -51.267  24.835  33.306  0.00  0.00     0.042 A 
ATOM      6  C   UNL d   1     -51.989  24.422  33.306  0.00  0.00     0.105 A 
ATOM      7  O   UNL d   1     -53.420  26.066  33.306  0.00  0.00    -0.257 OA
ATOM      8  N   UNL d   1     -51.937  26.914  33.306  0.00  0.00    -0.141 N 
ATOM      9  C   UNL d   1     -50.558  24.428  33.306  0.00  0.00     0.004 A 
ATOM     10  C   UNL d   1     -51.992  23.608  33.306  0.00  0.00     0.025 A 
ATOM     11  C   UNL d   1     -50.550  23.608  33.306  0.00  0.00     0.000 A 
ATOM     12  C   UNL d   1     -51.283  23.188  33.306  0.00  0.00     0.002 A 
ENDROOT
BRANCH   2  13
ATOM     13  N   UNL d   1     -50.547  26.073  33.306  0.00  0.00    -0.242 NA
BRANCH  13  14
ATOM     14  C   UNL d   1     -50.570  26.886  33.310  0.00  0.00     0.099 C 
BRANCH  14  15
ATOM     15  C   UNL d   1     -49.979  27.299  33.750  0.00  0.00     0.019 A 
ATOM     16  C   UNL d   1     -50.049  28.097  33.850  0.00  0.00     0.002 A 
ATOM     17  C   UNL d   1     -49.472  28.501  34.280  0.00  0.00     0.000 A 
ATOM     18  C   UNL d   1     -48.837  28.098  34.600  0.00  0.00     0.000 A 
ATOM     19  C   UNL d   1     -48.774  27.277  34.492  0.00  0.00     0.000 A 
ATOM     20  C   UNL d   1     -49.353  26.876  34.062  0.00  0.00     0.002 A 
ENDBRANCH  14  15
ENDBRANCH  13  14
ENDBRANCH   2  13
TORSDOF 3
ENDMDL
MODEL 2
REMARK VINA RESULT:      40.6      1.738      4.031
REMARK  3 active torsions:
REMARK  status: ('A' for Active; 'I' for Inactive)
REMARK    1  A    between atoms: N_7  and  C_2 
REMARK    2  A    between atoms: C_10  and  N_7 
REMARK    3  A    between atoms: C_12  and  C_10 
ROOT
ATOM      1  C   UNL d   1     -51.047  24.844  33.355  0.00  0.00     0.184 A 
ATOM      2  C   UNL d   1     -51.716  25.284  33.343  0.00  0.00     0.108 A 
ATOM      3  C   UNL d   1     -50.293  25.224  33.393  0.00  0.00     0.321 A 
ATOM      4  O   UNL d   1     -50.242  26.026  33.417  0.00  0.00    -0.272 OA
ATOM      5  C   UNL d   1     -51.671  26.110  33.367  0.00  0.00     0.042 A 
ATOM      6  C   UNL d   1     -50.928  26.484  33.404  0.00  0.00     0.105 A 
ATOM      7  O   UNL d   1     -49.586  24.766  33.407  0.00  0.00    -0.257 OA
ATOM      8  N   UNL d   1     -51.111  23.998  33.330  0.00  0.00    -0.141 N 
ATOM      9  C   UNL d   1     -52.356  26.554  33.353  0.00  0.00     0.004 A 
ATOM     10  C   UNL d   1     -50.883  27.296  33.428  0.00  0.00     0.025 A 
ATOM     11  C   UNL d   1     -52.322  27.373  33.377  0.00  0.00     0.000 A 
ATOM     12  C   UNL d   1     -51.568  27.753  33.415  0.00  0.00     0.002 A 
ENDROOT
BRANCH   2  13
ATOM     13  N   UNL d   1     -52.453  24.913  33.306  0.00  0.00    -0.242 NA
BRANCH  13  14
ATOM     14  C   UNL d   1     -52.491  24.116  33.466  0.00  0.00     0.099 C 
BRANCH  14  15
ATOM     15  C   UNL d   1     -52.923  23.867  34.148  0.00  0.00     0.019 A 
ATOM     16  C   UNL d   1     -53.704  24.061  34.211  0.00  0.00     0.002 A 
ATOM     17  C   UNL d   1     -54.127  23.817  34.877  0.00  0.00     0.000 A 
ATOM     18  C   UNL d   1     -53.759  23.385  35.464  0.00  0.00     0.000 A 
ATOM     19  C   UNL d   1     -52.955  23.190  35.391  0.00  0.00     0.000 A 
ATOM     20  C   UNL d   1     -52.535  23.435  34.724  0.00  0.00     0.002 A 
ENDBRANCH  14  15
ENDBRANCH  13  14
ENDBRANCH   2  13
TORSDOF 3
ENDMDL
