MODEL 1
REMARK VINA RESULT:      61.2      0.000      0.000
REMARK  3 active torsions:
REMARK  status: ('A' for Active; 'I' for Inactive)
REMARK    1  A    between atoms: N_10  and  C_3 
REMARK    2  A    between atoms: C_11  and  C_5 
REMARK    3  A    between atoms: C_15  and  N_10 
ROOT
ATOM      1  N   UNL d   1     -57.326 -99.117 -45.081  0.00  0.00    -0.184 N 
ATOM      2  C   UNL d   1     -56.864 -99.197 -44.380  0.00  0.00     0.168 A 
ATOM      3  C   UNL d   1     -58.141 -98.971 -45.021  0.00  0.00     0.217 A 
ATOM      4  N   UNL d   1     -56.159 -99.329 -45.874  0.00  0.00    -0.162 NA
ATOM      5  C   UNL d   1     -56.068 -99.340 -44.438  0.00  0.00     0.055 A 
ATOM      6  N   UNL d   1     -57.234 -99.128 -43.645  0.00  0.00    -0.227 NA
ATOM      7  C   UNL d   1     -58.492 -98.906 -44.288  0.00  0.00     0.066 A 
ATOM      8  C   UNL d   1     -55.705 -99.408 -45.184  0.00  0.00     0.104 A 
ATOM      9  C   UNL d   1     -58.037 -98.984 -43.582  0.00  0.00     0.087 A 
ATOM     10  C   UNL d   1     -59.260 -98.767 -44.056  0.00  0.00     0.006 A 
ATOM     11  C   UNL d   1     -54.897 -99.553 -45.233  0.00  0.00     0.023 C 
ATOM     12  C   UNL d   1     -58.537 -98.892 -42.935  0.00  0.00     0.019 A 
ATOM     13  C   UNL d   1     -59.304 -98.756 -43.236  0.00  0.00     0.002 A 
ENDROOT
BRANCH   5  14
ATOM     14  C   UNL d   1     -55.616 -99.419 -43.752  0.00  0.00     0.004 A 
ATOM     15  C   UNL d   1     -55.372-100.165 -43.498  0.00  0.00     0.000 A 
ATOM     16  C   UNL d   1     -54.922-100.247 -42.816  0.00  0.00     0.000 A 
ATOM     17  C   UNL d   1     -54.711 -99.575 -42.380  0.00  0.00     0.000 A 
ATOM     18  C   UNL d   1     -54.947 -98.834 -42.623  0.00  0.00     0.000 A 
ATOM     19  C   UNL d   1     -55.404 -98.755 -43.316  0.00  0.00     0.000 A 
ENDBRANCH   5  14
BRANCH   3  20
ATOM     20  N   UNL d   1     -58.611 -98.890 -45.726  0.00  0.00    -0.383 NA
BRANCH  20  21
ATOM     21  C   UNL d   1     -59.077 -98.814 -46.424  0.00  0.00     0.134 C 
ATOM     22  C   UNL d   1     -58.695 -98.758 -47.173  0.00  0.00     0.035 C 
ATOM     23  C   UNL d   1     -59.928 -98.794 -46.366  0.00  0.00     0.035 C 
ENDBRANCH  20  21
ENDBRANCH   3  20
TORSDOF 3
ENDMDL
