MODEL 1
REMARK VINA RESULT:      27.1      0.000      0.000
REMARK  1 active torsions:
REMARK  status: ('A' for Active; 'I' for Inactive)
REMARK    1  A    between atoms: C_13  and  C_7 
ROOT
ATOM      1  C   UNL d   1     -50.819  23.735  33.418  0.00  0.00     0.120 A 
ATOM      2  C   UNL d   1     -50.785  24.559  33.402  0.00  0.00     0.058 A 
ATOM      3  N   UNL d   1     -50.045  23.454  33.446  0.00  0.00    -0.195 NA
ATOM      4  S   UNL d   1     -51.541  23.355  33.406  0.00  0.00    -0.072 SA
ATOM      5  C   UNL d   1     -52.232  23.792  33.377  0.00  0.00     0.009 A 
ATOM      6  C   UNL d   1     -52.202  24.617  33.361  0.00  0.00    -0.015 A 
ATOM      7  C   UNL d   1     -51.476  24.996  33.373  0.00  0.00     0.005 A 
ATOM      8  C   UNL d   1     -49.530  24.103  33.447  0.00  0.00     0.311 A 
ATOM      9  S   UNL d   1     -49.998  24.787  33.420  0.00  0.00    -0.024 SA
ATOM     10  C   UNL d   1     -52.900  25.057  33.332  0.00  0.00     0.045 A 
ATOM     11  C   UNL d   1     -52.962  23.406  33.365  0.00  0.00     0.050 A 
ATOM     12  C   UNL d   1     -52.688  24.183  33.356  0.00  0.00     0.018 A 
ATOM     13  O   UNL d   1     -48.704  24.077  33.471  0.00  0.00    -0.258 OA
ATOM     14  C   UNL d   1     -53.630  24.671  33.319  0.00  0.00    -0.026 A 
ATOM     15  C   UNL d   1     -53.660  23.846  33.335  0.00  0.00    -0.026 A 
ENDROOT
BRANCH   7  16
ATOM     16  C   UNL d   1     -51.443  25.816  33.357  0.00  0.00     0.001 A 
ATOM     17  C   UNL d   1     -50.707  26.200  33.376  0.00  0.00     0.003 A 
ATOM     18  C   UNL d   1     -50.675  27.016  33.360  0.00  0.00     0.042 A 
ATOM     19  C   UNL d   1     -51.375  27.465  33.324  0.00  0.00     0.196 A 
ATOM     20  C   UNL d   1     -52.106  27.071  33.306  0.00  0.00     0.042 A 
ATOM     21  O   UNL d   1     -51.340  28.288  33.308  0.00  0.00    -0.287 OA
ATOM     22  C   UNL d   1     -52.133  26.253  33.322  0.00  0.00     0.003 A 
ENDBRANCH   7  16
TORSDOF 1
ENDMDL
MODEL 2
REMARK VINA RESULT:      29.9      1.314      2.802
REMARK  1 active torsions:
REMARK  status: ('A' for Active; 'I' for Inactive)
REMARK    1  A    between atoms: C_13  and  C_7 
ROOT
ATOM      1  C   UNL d   1     -50.020  25.546  33.436  0.00  0.00     0.120 A 
ATOM      2  C   UNL d   1     -50.653  25.018  33.444  0.00  0.00     0.058 A 
ATOM      3  N   UNL d   1     -49.325  25.103  33.469  0.00  0.00    -0.195 NA
ATOM      4  S   UNL d   1     -50.157  26.349  33.400  0.00  0.00    -0.072 SA
ATOM      5  C   UNL d   1     -50.925  26.631  33.372  0.00  0.00     0.009 A 
ATOM      6  C   UNL d   1     -51.562  26.105  33.380  0.00  0.00    -0.015 A 
ATOM      7  C   UNL d   1     -51.420  25.299  33.416  0.00  0.00     0.005 A 
ATOM      8  C   UNL d   1     -49.527  24.300  33.498  0.00  0.00     0.311 A 
ATOM      9  S   UNL d   1     -50.355  24.255  33.482  0.00  0.00    -0.024 SA
ATOM     10  C   UNL d   1     -52.336  26.391  33.351  0.00  0.00     0.045 A 
ATOM     11  C   UNL d   1     -51.062  27.444  33.335  0.00  0.00     0.050 A 
ATOM     12  C   UNL d   1     -51.512  26.754  33.354  0.00  0.00     0.018 A 
ATOM     13  O   UNL d   1     -49.004  23.661  33.536  0.00  0.00    -0.258 OA
ATOM     14  C   UNL d   1     -52.473  27.204  33.315  0.00  0.00    -0.026 A 
ATOM     15  C   UNL d   1     -51.837  27.730  33.307  0.00  0.00    -0.026 A 
ENDROOT
BRANCH   7  16
ATOM     16  C   UNL d   1     -52.051  24.774  33.424  0.00  0.00     0.001 A 
ATOM     17  C   UNL d   1     -51.913  23.965  33.553  0.00  0.00     0.003 A 
ATOM     18  C   UNL d   1     -52.542  23.443  33.561  0.00  0.00     0.042 A 
ATOM     19  C   UNL d   1     -53.319  23.717  33.441  0.00  0.00     0.196 A 
ATOM     20  C   UNL d   1     -53.445  24.528  33.313  0.00  0.00     0.042 A 
ATOM     21  O   UNL d   1     -53.951  23.188  33.450  0.00  0.00    -0.287 OA
ATOM     22  C   UNL d   1     -52.813  25.047  33.306  0.00  0.00     0.003 A 
ENDBRANCH   7  16
TORSDOF 1
ENDMDL
