MODEL 1
REMARK VINA RESULT:      44.1      0.000      0.000
REMARK  3 active torsions:
REMARK  status: ('A' for Active; 'I' for Inactive)
REMARK    1  A    between atoms: N_4  and  C_2 
REMARK    2  A    between atoms: C_9  and  C_3 
REMARK       I    between atoms: C_7  and  N_4 
REMARK    3  A    between atoms: C_8  and  C_7 
ROOT
ATOM      1  N   UNL d   1      14.011  13.334  -3.253  0.00  0.00    -0.051 NA
ATOM      2  C   UNL d   1      14.079  13.344  -2.436  0.00  0.00     0.760 A 
ATOM      3  C   UNL d   1      13.778  12.576  -3.482  0.00  0.00     0.147 A 
ATOM      4  N   UNL d   1      13.889  12.592  -2.154  0.00  0.00    -0.019 NA
ATOM      5  S   UNL d   1      13.703  12.116  -2.797  0.00  0.00     0.052 SA
ENDROOT
BRANCH   2   6
ATOM      6  N   UNL d   1      14.292  13.947  -1.904  0.00  0.00    -0.018 NA
ATOM      7  C   UNL d   1      14.626  14.645  -2.187  0.00  0.00     0.295 C 
ATOM      8  O   UNL d   1      14.749  14.746  -2.996  0.00  0.00    -0.265 OA
BRANCH   7   9
ATOM      9  C   UNL d   1      14.837  15.241  -1.660  0.00  0.00     0.059 A 
ATOM     10  C   UNL d   1      14.828  16.027  -1.906  0.00  0.00     0.007 A 
ATOM     11  C   UNL d   1      15.040  16.622  -1.372  0.00  0.00     0.030 A 
ATOM     12  C   UNL d   1      15.260  16.433  -0.599  0.00  0.00     0.140 A 
ATOM     13  C   UNL d   1      15.269  15.648  -0.353  0.00  0.00     0.030 A 
ATOM     14  F   UNL d   1      15.469  17.036  -0.080  0.00  0.00    -0.204 F 
ATOM     15  C   UNL d   1      15.058  15.051  -0.880  0.00  0.00     0.007 A 
ENDBRANCH   7   9
ENDBRANCH   2   6
BRANCH   3  16
ATOM     16  C   UNL d   1      13.645  12.322  -4.252  0.00  0.00     0.026 A 
ATOM     17  C   UNL d   1      12.903  12.035  -4.473  0.00  0.00     0.002 A 
ATOM     18  C   UNL d   1      12.769  11.780  -5.246  0.00  0.00     0.000 A 
ATOM     19  C   UNL d   1      13.381  11.812  -5.798  0.00  0.00     0.000 A 
ATOM     20  C   UNL d   1      14.121  12.096  -5.585  0.00  0.00     0.000 A 
ATOM     21  C   UNL d   1      14.255  12.351  -4.812  0.00  0.00     0.002 A 
ENDBRANCH   3  16
TORSDOF 3
ENDMDL
