MODEL 1
REMARK VINA RESULT:      38.9      0.000      0.000
REMARK  3 active torsions:
REMARK  status: ('A' for Active; 'I' for Inactive)
REMARK    1  A    between atoms: C_8  and  C_2 
REMARK    2  A    between atoms: N_9  and  C_8 
REMARK    3  A    between atoms: C_20  and  C_13 
ROOT
ATOM      1  C   UNL d   1      13.797  13.121  -2.537  0.00  0.00     0.108 A 
ATOM      2  C   UNL d   1      13.988  13.133  -1.733  0.00  0.00     0.079 A 
ATOM      3  O   UNL d   1      13.938  13.766  -3.009  0.00  0.00    -0.273 OA
ATOM      4  C   UNL d   1      13.746  13.756  -3.816  0.00  0.00     0.300 A 
ATOM      5  C   UNL d   1      13.260  12.408  -3.656  0.00  0.00     0.007 A 
ATOM      6  C   UNL d   1      13.458  12.442  -2.861  0.00  0.00     0.023 A 
ATOM      7  C   UNL d   1      13.404  13.070  -4.143  0.00  0.00     0.064 A 
ATOM      8  C   UNL d   1      13.311  11.779  -2.389  0.00  0.00     0.005 A 
ATOM      9  C   UNL d   1      13.847  12.484  -1.254  0.00  0.00     0.199 A 
ATOM     10  O   UNL d   1      13.887  14.409  -4.303  0.00  0.00    -0.259 OA
ATOM     11  C   UNL d   1      13.509  11.805  -1.578  0.00  0.00     0.042 A 
ATOM     12  C   UNL d   1      12.925  11.819  -4.118  0.00  0.00     0.000 A 
ATOM     13  C   UNL d   1      13.152  12.877  -4.908  0.00  0.00     0.005 A 
ATOM     14  O   UNL d   1      14.038  12.498  -0.454  0.00  0.00    -0.286 OA
ATOM     15  C   UNL d   1      12.856  12.110  -4.901  0.00  0.00     0.000 A 
ENDROOT
BRANCH   2  16
ATOM     16  C   UNL d   1      14.330  13.823  -1.414  0.00  0.00     0.085 C 
BRANCH  16  17
ATOM     17  N   UNL d   1      15.003  13.780  -0.943  0.00  0.00    -0.304 N 
ATOM     18  C   UNL d   1      15.230  14.426  -0.522  0.00  0.00     0.064 A 
ATOM     19  C   UNL d   1      15.904  14.383  -0.051  0.00  0.00     0.018 A 
ATOM     20  C   UNL d   1      16.338  13.679  -0.015  0.00  0.00     0.003 A 
ATOM     21  C   UNL d   1      16.102  13.039  -0.441  0.00  0.00     0.019 A 
ATOM     22  C   UNL d   1      15.427  13.083  -0.912  0.00  0.00     0.080 A 
BRANCH  18  23
ATOM     23  C   UNL d   1      14.802  15.125  -0.555  0.00  0.00     0.018 C 
ATOM     24  C   UNL d   1      15.113  15.826  -0.264  0.00  0.00     0.002 C 
ENDBRANCH  18  23
ENDBRANCH  16  17
ENDBRANCH   2  16
TORSDOF 3
ENDMDL
