MODEL 1
REMARK VINA RESULT:      -3.0      0.000      0.000
REMARK  4 active torsions:
REMARK  status: ('A' for Active; 'I' for Inactive)
REMARK       I    between atoms: C_2  and  N_1 
REMARK    1  A    between atoms: C_7  and  N_1 
REMARK    2  A    between atoms: C_5  and  C_2 
REMARK    3  A    between atoms: C_3  and  C_6 
REMARK    4  A    between atoms: C_6  and  C_5 
ROOT
ATOM      1  N   UNL d   1      33.211  20.287 -22.688  0.00  0.00    -0.208 NA
ATOM      2  C   UNL d   1      33.050  20.453 -21.903  0.00  0.00     0.279 C 
ATOM      3  O   UNL d   1      32.874  19.839 -21.380  0.00  0.00    -0.265 OA
ENDROOT
BRANCH   2   4
ATOM      4  C   UNL d   1      33.061  21.230 -21.630  0.00  0.00     0.063 C 
BRANCH   4   5
ATOM      5  C   UNL d   1      32.464  21.504 -21.132  0.00  0.00     0.011 C 
BRANCH   5   6
ATOM      6  C   UNL d   1      32.431  22.300 -20.923  0.00  0.00     0.030 A 
ATOM      7  S   UNL d   1      32.274  22.992 -21.362  0.00  0.00    -0.086 SA
ATOM      8  C   UNL d   1      32.318  23.645 -20.847  0.00  0.00     0.035 A 
ATOM      9  C   UNL d   1      32.501  23.366 -20.085  0.00  0.00     0.007 A 
ATOM     10  C   UNL d   1      32.572  22.528 -20.129  0.00  0.00     0.007 A 
ENDBRANCH   5   6
ENDBRANCH   4   5
ENDBRANCH   2   4
BRANCH   1  11
ATOM     11  C   UNL d   1      33.200  19.509 -22.960  0.00  0.00     0.085 A 
ATOM     12  C   UNL d   1      33.205  19.362 -23.759  0.00  0.00     0.018 A 
ATOM     13  C   UNL d   1      33.223  19.984 -24.298  0.00  0.00     0.002 C 
ATOM     14  C   UNL d   1      33.194  18.582 -24.043  0.00  0.00     0.002 A 
ATOM     15  C   UNL d   1      33.177  17.955 -23.504  0.00  0.00     0.000 A 
ATOM     16  C   UNL d   1      33.171  18.102 -22.692  0.00  0.00     0.002 A 
ATOM     17  C   UNL d   1      33.182  18.879 -22.420  0.00  0.00     0.019 A 
ENDBRANCH   1  11
TORSDOF 4
ENDMDL
MODEL 2
REMARK VINA RESULT:      -2.8      1.878      4.537
REMARK  4 active torsions:
REMARK  status: ('A' for Active; 'I' for Inactive)
REMARK       I    between atoms: C_2  and  N_1 
REMARK    1  A    between atoms: C_7  and  N_1 
REMARK    2  A    between atoms: C_5  and  C_2 
REMARK    3  A    between atoms: C_3  and  C_6 
REMARK    4  A    between atoms: C_6  and  C_5 
ROOT
ATOM      1  N   UNL d   1      33.060  20.040 -21.961  0.00  0.00    -0.208 NA
ATOM      2  C   UNL d   1      33.128  19.669 -22.688  0.00  0.00     0.279 C 
ATOM      3  O   UNL d   1      33.225  20.120 -23.372  0.00  0.00    -0.265 OA
ENDROOT
BRANCH   2   4
ATOM      4  C   UNL d   1      33.101  18.848 -22.741  0.00  0.00     0.063 C 
BRANCH   4   5
ATOM      5  C   UNL d   1      32.793  18.485 -23.414  0.00  0.00     0.011 C 
BRANCH   5   6
ATOM      6  C   UNL d   1      32.705  17.666 -23.441  0.00  0.00     0.030 A 
ATOM      7  S   UNL d   1      33.239  17.038 -23.317  0.00  0.00    -0.086 SA
ATOM      8  C   UNL d   1      32.829  16.321 -23.421  0.00  0.00     0.035 A 
ATOM      9  C   UNL d   1      32.038  16.496 -23.610  0.00  0.00     0.007 A 
ATOM     10  C   UNL d   1      31.958  17.334 -23.623  0.00  0.00     0.007 A 
ENDBRANCH   5   6
ENDBRANCH   4   5
ENDBRANCH   2   4
BRANCH   1  11
ATOM     11  C   UNL d   1      33.087  20.862 -21.909  0.00  0.00     0.085 A 
ATOM     12  C   UNL d   1      32.991  21.223 -21.188  0.00  0.00     0.018 A 
ATOM     13  C   UNL d   1      32.867  20.774 -20.509  0.00  0.00     0.002 C 
ATOM     14  C   UNL d   1      33.017  22.050 -21.125  0.00  0.00     0.002 A 
ATOM     15  C   UNL d   1      33.142  22.504 -21.804  0.00  0.00     0.000 A 
ATOM     16  C   UNL d   1      33.240  22.140 -22.538  0.00  0.00     0.002 A 
ATOM     17  C   UNL d   1      33.213  21.319 -22.591  0.00  0.00     0.019 A 
ENDBRANCH   1  11
TORSDOF 4
ENDMDL
MODEL 3
REMARK VINA RESULT:      -2.7      1.863      2.684
REMARK  4 active torsions:
REMARK  status: ('A' for Active; 'I' for Inactive)
REMARK       I    between atoms: C_2  and  N_1 
REMARK    1  A    between atoms: C_7  and  N_1 
REMARK    2  A    between atoms: C_5  and  C_2 
REMARK    3  A    between atoms: C_3  and  C_6 
REMARK    4  A    between atoms: C_6  and  C_5 
ROOT
ATOM      1  N   UNL d   1      31.936  18.204 -23.641  0.00  0.00    -0.208 NA
ATOM      2  C   UNL d   1      32.621  18.420 -23.247  0.00  0.00     0.279 C 
ATOM      3  O   UNL d   1      33.241  17.881 -23.175  0.00  0.00    -0.265 OA
ENDROOT
BRANCH   2   4
ATOM      4  C   UNL d   1      32.694  19.172 -22.921  0.00  0.00     0.063 C 
BRANCH   4   5
ATOM      5  C   UNL d   1      33.184  19.298 -22.270  0.00  0.00     0.011 C 
BRANCH   5   6
ATOM      6  C   UNL d   1      33.205  20.034 -21.902  0.00  0.00     0.030 A 
ATOM      7  S   UNL d   1      33.221  20.813 -22.200  0.00  0.00    -0.086 SA
ATOM      8  C   UNL d   1      33.240  21.340 -21.555  0.00  0.00     0.035 A 
ATOM      9  C   UNL d   1      33.236  20.894 -20.852  0.00  0.00     0.007 A 
ATOM     10  C   UNL d   1      33.214  20.080 -21.065  0.00  0.00     0.007 A 
ENDBRANCH   5   6
ENDBRANCH   4   5
ENDBRANCH   2   4
BRANCH   1  11
ATOM     11  C   UNL d   1      31.863  17.451 -23.967  0.00  0.00     0.085 A 
ATOM     12  C   UNL d   1      31.290  17.307 -24.524  0.00  0.00     0.018 A 
ATOM     13  C   UNL d   1      30.782  17.908 -24.765  0.00  0.00     0.002 C 
ATOM     14  C   UNL d   1      31.209  16.551 -24.858  0.00  0.00     0.002 A 
ATOM     15  C   UNL d   1      31.717  15.945 -24.618  0.00  0.00     0.000 A 
ATOM     16  C   UNL d   1      32.301  16.089 -24.052  0.00  0.00     0.002 A 
ATOM     17  C   UNL d   1      32.374  16.841 -23.726  0.00  0.00     0.019 A 
ENDBRANCH   1  11
TORSDOF 4
ENDMDL
MODEL 4
REMARK VINA RESULT:      -2.2      2.507      3.664
REMARK  4 active torsions:
REMARK  status: ('A' for Active; 'I' for Inactive)
REMARK       I    between atoms: C_2  and  N_1 
REMARK    1  A    between atoms: C_7  and  N_1 
REMARK    2  A    between atoms: C_5  and  C_2 
REMARK    3  A    between atoms: C_3  and  C_6 
REMARK    4  A    between atoms: C_6  and  C_5 
ROOT
ATOM      1  N   UNL d   1      33.230  22.218 -20.214  0.00  0.00    -0.208 NA
ATOM      2  C   UNL d   1      33.183  22.937 -19.826  0.00  0.00     0.279 C 
ATOM      3  O   UNL d   1      33.088  23.633 -20.259  0.00  0.00    -0.265 OA
ENDROOT
BRANCH   2   4
ATOM      4  C   UNL d   1      33.229  22.972 -19.005  0.00  0.00     0.063 C 
BRANCH   4   5
ATOM      5  C   UNL d   1      32.589  23.247 -18.564  0.00  0.00     0.011 C 
BRANCH   5   6
ATOM      6  C   UNL d   1      32.647  23.313 -17.745  0.00  0.00     0.030 A 
ATOM      7  S   UNL d   1      33.193  23.701 -17.248  0.00  0.00    -0.086 SA
ATOM      8  C   UNL d   1      32.966  23.573 -16.457  0.00  0.00     0.035 A 
ATOM      9  C   UNL d   1      32.278  23.104 -16.455  0.00  0.00     0.007 A 
ATOM     10  C   UNL d   1      32.077  22.941 -17.256  0.00  0.00     0.007 A 
ENDBRANCH   5   6
ENDBRANCH   4   5
ENDBRANCH   2   4
BRANCH   1  11
ATOM     11  C   UNL d   1      33.184  22.185 -21.036  0.00  0.00     0.085 A 
ATOM     12  C   UNL d   1      33.168  21.464 -21.410  0.00  0.00     0.018 A 
ATOM     13  C   UNL d   1      33.196  20.767 -20.973  0.00  0.00     0.002 C 
ATOM     14  C   UNL d   1      33.121  21.420 -22.237  0.00  0.00     0.002 A 
ATOM     15  C   UNL d   1      33.092  22.118 -22.679  0.00  0.00     0.000 A 
ATOM     16  C   UNL d   1      33.109  22.852 -22.302  0.00  0.00     0.002 A 
ATOM     17  C   UNL d   1      33.155  22.886 -21.481  0.00  0.00     0.019 A 
ENDBRANCH   1  11
TORSDOF 4
ENDMDL
MODEL 5
REMARK VINA RESULT:      -1.0      1.292      4.366
REMARK  4 active torsions:
REMARK  status: ('A' for Active; 'I' for Inactive)
REMARK       I    between atoms: C_2  and  N_1 
REMARK    1  A    between atoms: C_7  and  N_1 
REMARK    2  A    between atoms: C_5  and  C_2 
REMARK    3  A    between atoms: C_3  and  C_6 
REMARK    4  A    between atoms: C_6  and  C_5 
ROOT
ATOM      1  N   UNL d   1      32.581  21.754 -21.321  0.00  0.00    -0.208 NA
ATOM      2  C   UNL d   1      32.823  20.978 -21.223  0.00  0.00     0.279 C 
ATOM      3  O   UNL d   1      33.189  20.746 -20.521  0.00  0.00    -0.265 OA
ENDROOT
BRANCH   2   4
ATOM      4  C   UNL d   1      32.703  20.426 -21.823  0.00  0.00     0.063 C 
BRANCH   4   5
ATOM      5  C   UNL d   1      33.241  19.813 -21.937  0.00  0.00     0.011 C 
BRANCH   5   6
ATOM      6  C   UNL d   1      33.174  19.317 -22.591  0.00  0.00     0.030 A 
ATOM      7  S   UNL d   1      33.199  19.462 -23.412  0.00  0.00    -0.086 SA
ATOM      8  C   UNL d   1      33.098  18.737 -23.809  0.00  0.00     0.035 A 
ATOM      9  C   UNL d   1      33.009  18.136 -23.240  0.00  0.00     0.007 A 
ATOM     10  C   UNL d   1      33.056  18.495 -22.480  0.00  0.00     0.007 A 
ENDBRANCH   5   6
ENDBRANCH   4   5
ENDBRANCH   2   4
BRANCH   1  11
ATOM     11  C   UNL d   1      32.701  22.306 -20.721  0.00  0.00     0.085 A 
ATOM     12  C   UNL d   1      32.465  23.075 -20.828  0.00  0.00     0.018 A 
ATOM     13  C   UNL d   1      32.106  23.308 -21.531  0.00  0.00     0.002 C 
ATOM     14  C   UNL d   1      32.582  23.639 -20.229  0.00  0.00     0.002 A 
ATOM     15  C   UNL d   1      32.942  23.408 -19.521  0.00  0.00     0.000 A 
ATOM     16  C   UNL d   1      33.183  22.627 -19.410  0.00  0.00     0.002 A 
ATOM     17  C   UNL d   1      33.063  22.076 -20.009  0.00  0.00     0.019 A 
ENDBRANCH   1  11
TORSDOF 4
ENDMDL
