MODEL 1
REMARK VINA RESULT:      59.1      0.000      0.000
REMARK  7 active torsions:
REMARK  status: ('A' for Active; 'I' for Inactive)
REMARK    1  A    between atoms: S_2  and  C_1 
REMARK    2  A    between atoms: N_14  and  S_2 
REMARK    3  A    between atoms: C_9  and  C_18 
REMARK       I    between atoms: N_17  and  C_9 
REMARK    4  A    between atoms: C_13  and  C_23 
REMARK    5  A    between atoms: C_24  and  N_14 
REMARK    6  A    between atoms: C_23  and  N_17 
REMARK    7  A    between atoms: C_18  and  C_24 
ROOT
ATOM      1  S   UNL d   1      61.439  47.266  50.203  0.00  0.00     0.287 S 
ATOM      2  O   UNL d   1      60.664  47.162  50.467  0.00  0.00    -0.198 OA
ATOM      3  O   UNL d   1      62.213  47.369  49.938  0.00  0.00    -0.198 OA
ENDROOT
BRANCH   1   4
ATOM      4  C   UNL d   1      61.490  46.462  50.040  0.00  0.00     0.127 A 
ATOM      5  C   UNL d   1      61.208  45.910  50.582  0.00  0.00     0.142 A 
ATOM      6  C   UNL d   1      61.259  45.103  50.419  0.00  0.00     0.131 A 
ATOM      7  N   UNL d   1      60.853  45.995  51.318  0.00  0.00    -0.101 NA
ATOM      8  N   UNL d   1      60.936  44.692  51.054  0.00  0.00    -0.102 NA
ATOM      9  C   UNL d   1      61.593  44.847  49.712  0.00  0.00     0.023 A 
ATOM     10  O   UNL d   1      60.684  45.244  51.613  0.00  0.00    -0.106 OA
ATOM     11  C   UNL d   1      61.880  45.398  49.160  0.00  0.00     0.002 A 
ATOM     12  C   UNL d   1      61.828  46.205  49.324  0.00  0.00     0.015 A 
ENDBRANCH   1   4
BRANCH   1  13
ATOM     13  N   UNL d   1      61.387  48.076  50.367  0.00  0.00    -0.157 NA
BRANCH  13  14
ATOM     14  C   UNL d   1      60.919  48.343  50.992  0.00  0.00     0.117 C 
BRANCH  14  15
ATOM     15  C   UNL d   1      60.628  49.115  50.991  0.00  0.00     0.084 C 
BRANCH  15  16
ATOM     16  C   UNL d   1      59.869  49.272  51.282  0.00  0.00     0.281 C 
ATOM     17  N   UNL d   1      59.273  49.537  50.767  0.00  0.00    -0.206 NA
ATOM     18  O   UNL d   1      59.702  49.166  52.092  0.00  0.00    -0.265 OA
BRANCH  17  19
ATOM     19  C   UNL d   1      58.508  49.695  51.069  0.00  0.00     0.109 C 
BRANCH  19  20
ATOM     20  C   UNL d   1      57.839  49.601  50.590  0.00  0.00     0.049 A 
ATOM     21  S   UNL d   1      57.820  49.390  49.791  0.00  0.00    -0.085 SA
ATOM     22  C   UNL d   1      57.046  49.362  49.535  0.00  0.00     0.035 A 
ATOM     23  C   UNL d   1      56.564  49.557  50.179  0.00  0.00     0.007 A 
ATOM     24  C   UNL d   1      57.046  49.706  50.830  0.00  0.00     0.009 A 
ENDBRANCH  19  20
ENDBRANCH  17  19
ENDBRANCH  15  16
ENDBRANCH  14  15
ENDBRANCH  13  14
ENDBRANCH   1  13
TORSDOF 7
ENDMDL
