MODEL 1
REMARK VINA RESULT:      49.5      0.000      0.000
REMARK  5 active torsions:
REMARK  status: ('A' for Active; 'I' for Inactive)
REMARK    1  A    between atoms: N_2  and  C_1 
REMARK    2  A    between atoms: C_8  and  C_1 
REMARK    3  A    between atoms: O_5  and  N_2 
REMARK    4  A    between atoms: C_3  and  O_5 
REMARK    5  A    between atoms: C_4  and  C_3 
ROOT
ATOM      1  C   UNL d   1     -55.115-101.206 -43.385  0.00  0.00     0.319 C 
ATOM      2  O   UNL d   1     -55.620-101.553 -44.050  0.00  0.00    -0.257 OA
ENDROOT
BRANCH   1   3
ATOM      3  O   UNL d   1     -54.713-100.396 -43.508  0.00  0.00    -0.168 OA
BRANCH   3   4
ATOM      4  N   UNL d   1     -55.165 -99.707 -43.529  0.00  0.00    -0.100 NA
BRANCH   4   5
ATOM      5  C   UNL d   1     -55.417 -99.416 -44.259  0.00  0.00     0.228 C 
ATOM      6  N   UNL d   1     -54.882 -99.346 -44.893  0.00  0.00    -0.123 N 
BRANCH   5   7
ATOM      7  C   UNL d   1     -56.206 -99.197 -44.350  0.00  0.00     0.121 A 
ATOM      8  N   UNL d   1     -56.479 -99.042 -45.110  0.00  0.00    -0.241 NA
ATOM      9  C   UNL d   1     -57.281 -98.816 -45.221  0.00  0.00     0.099 A 
ATOM     10  C   UNL d   1     -57.780 -98.755 -44.563  0.00  0.00     0.021 A 
ATOM     11  C   UNL d   1     -57.490 -98.914 -43.813  0.00  0.00     0.003 A 
ATOM     12  C   UNL d   1     -56.705 -99.133 -43.714  0.00  0.00     0.022 A 
ENDBRANCH   5   7
ENDBRANCH   4   5
ENDBRANCH   3   4
ENDBRANCH   1   3
BRANCH   1  13
ATOM     13  C   UNL d   1     -55.014-101.611 -42.668  0.00  0.00     0.065 A 
ATOM     14  C   UNL d   1     -54.992-101.173 -41.970  0.00  0.00     0.005 A 
ATOM     15  C   UNL d   1     -54.891-101.570 -41.253  0.00  0.00     0.000 A 
ATOM     16  C   UNL d   1     -54.866-101.148 -40.534  0.00  0.00     0.000 C 
ATOM     17  C   UNL d   1     -54.815-102.382 -41.236  0.00  0.00     0.000 A 
ATOM     18  C   UNL d   1     -54.838-102.809 -41.935  0.00  0.00     0.000 A 
ATOM     19  C   UNL d   1     -54.712-102.801 -40.519  0.00  0.00     0.000 C 
ATOM     20  C   UNL d   1     -54.938-102.420 -42.651  0.00  0.00     0.005 A 
ENDBRANCH   1  13
TORSDOF 5
ENDMDL
