MODEL 1
REMARK VINA RESULT:     161.2      0.000      0.000
REMARK  5 active torsions:
REMARK  status: ('A' for Active; 'I' for Inactive)
REMARK    1  A    between atoms: N_6  and  C_1 
REMARK    2  A    between atoms: C_10  and  C_2 
REMARK       I    between atoms: C_9  and  N_6 
REMARK    3  A    between atoms: C_14  and  C_9 
REMARK    4  A    between atoms: C_13  and  C_15 
REMARK    5  A    between atoms: C_19  and  C_13 
ROOT
ATOM      1  N   UNL d   1     -57.321 -99.619 -42.926  0.00  0.00    -0.201 NA
ATOM      2  C   UNL d   1     -56.569 -99.956 -42.905  0.00  0.00     0.280 C 
ATOM      3  O   UNL d   1     -56.170-100.127 -43.603  0.00  0.00    -0.265 OA
ENDROOT
BRANCH   1   4
ATOM      4  C   UNL d   1     -57.680 -99.450 -43.653  0.00  0.00     0.118 A 
ATOM      5  C   UNL d   1     -58.485 -99.321 -43.784  0.00  0.00     0.083 A 
ATOM      6  C   UNL d   1     -58.587 -99.175 -44.584  0.00  0.00     0.008 A 
ATOM      7  C   UNL d   1     -59.268 -99.011 -45.024  0.00  0.00    -0.004 A 
ATOM      8  C   UNL d   1     -57.860 -99.210 -44.951  0.00  0.00     0.028 A 
ATOM      9  C   UNL d   1     -59.206 -98.884 -45.839  0.00  0.00     0.099 A 
ATOM     10  C   UNL d   1     -59.943 -98.847 -45.467  0.00  0.00     0.029 C 
ATOM     11  C   UNL d   1     -59.150 -98.756 -46.651  0.00  0.00     0.029 C 
ATOM     12  N   UNL d   1     -58.467 -98.920 -46.212  0.00  0.00    -0.294 NA
ATOM     13  C   UNL d   1     -57.793 -99.083 -45.769  0.00  0.00     0.104 A 
ATOM     14  C   UNL d   1     -57.530 -98.989 -46.547  0.00  0.00     0.029 C 
ATOM     15  C   UNL d   1     -57.021 -99.228 -45.517  0.00  0.00     0.029 C 
ATOM     16  S   UNL d   1     -57.288 -99.382 -44.377  0.00  0.00    -0.070 SA
BRANCH   5  17
ATOM     17  C   UNL d   1     -59.066 -99.340 -43.206  0.00  0.00     0.299 C 
ATOM     18  O   UNL d   1     -58.840 -99.360 -42.410  0.00  0.00    -0.264 OA
ATOM     19  N   UNL d   1     -59.865 -99.339 -43.412  0.00  0.00    -0.102 N 
ENDBRANCH   5  17
ENDBRANCH   1   4
BRANCH   2  20
ATOM     20  C   UNL d   1     -56.216-100.122 -42.190  0.00  0.00     0.058 A 
ATOM     21  C   UNL d   1     -56.110 -99.523 -41.632  0.00  0.00     0.005 A 
ATOM     22  C   UNL d   1     -55.752 -99.692 -40.905  0.00  0.00     0.003 A 
ATOM     23  C   UNL d   1     -55.499-100.459 -40.737  0.00  0.00     0.039 A 
ATOM     24  C   UNL d   1     -55.606-101.046 -41.291  0.00  0.00     0.003 A 
ATOM     25  C   UNL d   1     -55.964-100.878 -42.018  0.00  0.00     0.005 A 
BRANCH  23  26
ATOM     26  C   UNL d   1     -55.143-100.623 -40.012  0.00  0.00     0.196 C 
ATOM     27  O   UNL d   1     -54.714-100.043 -39.626  0.00  0.00    -0.287 OA
BRANCH  26  28
ATOM     28  C   UNL d   1     -55.219-101.370 -39.679  0.00  0.00     0.039 A 
ATOM     29  C   UNL d   1     -55.783-101.517 -39.106  0.00  0.00     0.003 A 
ATOM     30  C   UNL d   1     -55.860-102.264 -38.773  0.00  0.00     0.000 A 
ATOM     31  C   UNL d   1     -55.360-102.874 -39.021  0.00  0.00     0.000 A 
ATOM     32  C   UNL d   1     -54.788-102.731 -39.600  0.00  0.00     0.000 A 
ATOM     33  C   UNL d   1     -54.719-101.980 -39.927  0.00  0.00     0.003 A 
ENDBRANCH  26  28
ENDBRANCH  23  26
ENDBRANCH   2  20
TORSDOF 5
ENDMDL
