MODEL 1
REMARK VINA RESULT:       6.6      0.000      0.000
REMARK  4 active torsions:
REMARK  status: ('A' for Active; 'I' for Inactive)
REMARK    1  A    between atoms: N_2  and  S_1 
REMARK    2  A    between atoms: C_3  and  S_1 
REMARK    3  A    between atoms: C_6  and  N_2 
REMARK    4  A    between atoms: C_13  and  N_2 
ROOT
ATOM      1  S   UNL d   1      24.293  12.480  -2.010  0.00  0.00     0.271 S 
ATOM      2  O   UNL d   1      23.861  13.091  -2.087  0.00  0.00    -0.200 OA
ATOM      3  O   UNL d   1      24.768  11.813  -1.957  0.00  0.00    -0.200 OA
ENDROOT
BRANCH   1   4
ATOM      4  N   UNL d   1      24.184  12.468  -1.185  0.00  0.00    -0.231 N 
BRANCH   4   5
ATOM      5  C   UNL d   1      23.909  13.146  -0.796  0.00  0.00     0.075 A 
ATOM      6  C   UNL d   1      23.111  13.191  -0.564  0.00  0.00     0.018 A 
ATOM      7  C   UNL d   1      22.829  13.868  -0.173  0.00  0.00     0.002 A 
ATOM      8  C   UNL d   1      23.345  14.502  -0.014  0.00  0.00     0.000 A 
ATOM      9  C   UNL d   1      24.143  14.453  -0.248  0.00  0.00     0.002 A 
ATOM     10  C   UNL d   1      24.425  13.776  -0.639  0.00  0.00     0.018 A 
ENDBRANCH   4   5
BRANCH   4  11
ATOM     11  C   UNL d   1      24.351  11.779  -0.756  0.00  0.00     0.092 C 
ATOM     12  C   UNL d   1      24.723  11.828  -0.021  0.00  0.00     0.021 C 
ENDBRANCH   4  11
ENDBRANCH   1   4
BRANCH   1  13
ATOM     13  C   UNL d   1      24.409  12.465  -2.754  0.00  0.00     0.104 A 
ATOM     14  C   UNL d   1      24.655  13.084  -3.118  0.00  0.00     0.015 A 
ATOM     15  C   UNL d   1      24.768  13.062  -3.855  0.00  0.00     0.022 A 
ATOM     16  C   UNL d   1      24.642  12.433  -4.241  0.00  0.00     0.103 A 
ATOM     17  C   UNL d   1      24.399  11.816  -3.891  0.00  0.00     0.022 A 
ATOM     18  N   UNL d   1      24.759  12.421  -4.983  0.00  0.00    -0.148 N 
ATOM     19  C   UNL d   1      24.281  11.828  -3.147  0.00  0.00     0.015 A 
ENDBRANCH   1  13
TORSDOF 4
ENDMDL
