MODEL 1
REMARK VINA RESULT:      56.7      0.000      0.000
REMARK  4 active torsions:
REMARK  status: ('A' for Active; 'I' for Inactive)
REMARK    1  A    between atoms: C_2  and  S_1 
REMARK    2  A    between atoms: N_3  and  S_1 
REMARK    3  A    between atoms: C_10  and  N_3 
REMARK    4  A    between atoms: C_5  and  C_10 
ROOT
ATOM      1  S   UNL d   1      61.483  47.066  50.391  0.00  0.00     0.285 S 
ATOM      2  O   UNL d   1      61.834  47.437  49.748  0.00  0.00    -0.198 OA
ATOM      3  O   UNL d   1      61.122  46.681  51.051  0.00  0.00    -0.198 OA
ENDROOT
BRANCH   1   4
ATOM      4  C   UNL d   1      61.554  46.313  49.994  0.00  0.00     0.105 A 
ATOM      5  C   UNL d   1      61.133  45.655  50.269  0.00  0.00     0.013 A 
ATOM      6  C   UNL d   1      61.206  44.934  49.882  0.00  0.00     0.001 A 
ATOM      7  C   UNL d   1      60.773  44.271  50.171  0.00  0.00     0.000 C 
ATOM      8  C   UNL d   1      61.694  44.864  49.225  0.00  0.00     0.000 A 
ATOM      9  C   UNL d   1      62.109  45.519  48.956  0.00  0.00     0.001 A 
ATOM     10  C   UNL d   1      61.766  44.114  48.828  0.00  0.00     0.000 C 
ATOM     11  C   UNL d   1      62.043  46.248  49.338  0.00  0.00     0.013 A 
ENDBRANCH   1   4
BRANCH   1  12
ATOM     12  N   UNL d   1      61.414  47.812  50.782  0.00  0.00    -0.155 NA
BRANCH  12  13
ATOM     13  C   UNL d   1      61.224  48.547  50.493  0.00  0.00     0.137 C 
BRANCH  13  14
ATOM     14  C   UNL d   1      60.629  48.992  50.856  0.00  0.00     0.120 A 
ATOM     15  O   UNL d   1      59.868  49.207  50.532  0.00  0.00    -0.304 OA
ATOM     16  C   UNL d   1      59.483  49.651  51.114  0.00  0.00     0.123 A 
ATOM     17  C   UNL d   1      60.004  49.708  51.789  0.00  0.00     0.029 A 
ATOM     18  C   UNL d   1      60.679  49.301  51.595  0.00  0.00     0.028 A 
ENDBRANCH  13  14
ENDBRANCH  12  13
ENDBRANCH   1  12
TORSDOF 4
ENDMDL
MODEL 2
REMARK VINA RESULT:      56.9      0.922      1.408
REMARK  4 active torsions:
REMARK  status: ('A' for Active; 'I' for Inactive)
REMARK    1  A    between atoms: C_2  and  S_1 
REMARK    2  A    between atoms: N_3  and  S_1 
REMARK    3  A    between atoms: C_10  and  N_3 
REMARK    4  A    between atoms: C_5  and  C_10 
ROOT
ATOM      1  S   UNL d   1      61.195  48.166  50.724  0.00  0.00     0.285 S 
ATOM      2  O   UNL d   1      60.841  47.736  51.327  0.00  0.00    -0.198 OA
ATOM      3  O   UNL d   1      61.561  48.605  50.101  0.00  0.00    -0.198 OA
ENDROOT
BRANCH   1   4
ATOM      4  C   UNL d   1      61.413  47.437  50.335  0.00  0.00     0.105 A 
ATOM      5  C   UNL d   1      61.123  46.713  50.612  0.00  0.00     0.013 A 
ATOM      6  C   UNL d   1      61.338  46.016  50.232  0.00  0.00     0.001 A 
ATOM      7  C   UNL d   1      61.037  45.285  50.523  0.00  0.00     0.000 C 
ATOM      8  C   UNL d   1      61.838  46.036  49.580  0.00  0.00     0.000 A 
ATOM      9  C   UNL d   1      62.122  46.757  49.310  0.00  0.00     0.001 A 
ATOM     10  C   UNL d   1      62.056  45.312  49.191  0.00  0.00     0.000 C 
ATOM     11  C   UNL d   1      61.913  47.462  49.684  0.00  0.00     0.013 A 
ENDBRANCH   1   4
BRANCH   1  12
ATOM     12  N   UNL d   1      60.979  48.885  51.110  0.00  0.00    -0.155 NA
BRANCH  12  13
ATOM     13  C   UNL d   1      60.552  49.523  50.842  0.00  0.00     0.137 C 
BRANCH  13  14
ATOM     14  C   UNL d   1      59.746  49.583  51.015  0.00  0.00     0.120 A 
ATOM     15  O   UNL d   1      59.376  49.573  51.785  0.00  0.00    -0.304 OA
ATOM     16  C   UNL d   1      58.563  49.649  51.655  0.00  0.00     0.123 A 
ATOM     17  C   UNL d   1      58.436  49.706  50.813  0.00  0.00     0.029 A 
ATOM     18  C   UNL d   1      59.168  49.662  50.464  0.00  0.00     0.028 A 
ENDBRANCH  13  14
ENDBRANCH  12  13
ENDBRANCH   1  12
TORSDOF 4
ENDMDL
MODEL 3
REMARK VINA RESULT:      57.0      1.026      4.238
REMARK  4 active torsions:
REMARK  status: ('A' for Active; 'I' for Inactive)
REMARK    1  A    between atoms: C_2  and  S_1 
REMARK    2  A    between atoms: N_3  and  S_1 
REMARK    3  A    between atoms: C_10  and  N_3 
REMARK    4  A    between atoms: C_5  and  C_10 
ROOT
ATOM      1  S   UNL d   1      61.443  47.826  50.416  0.00  0.00     0.285 S 
ATOM      2  O   UNL d   1      60.966  47.176  50.565  0.00  0.00    -0.198 OA
ATOM      3  O   UNL d   1      61.933  48.499  50.266  0.00  0.00    -0.198 OA
ENDROOT
BRANCH   1   4
ATOM      4  C   UNL d   1      60.942  48.307  50.915  0.00  0.00     0.105 A 
ATOM      5  C   UNL d   1      60.347  48.775  50.580  0.00  0.00     0.013 A 
ATOM      6  C   UNL d   1      59.869  49.235  51.066  0.00  0.00     0.001 A 
ATOM      7  C   UNL d   1      59.267  49.707  50.716  0.00  0.00     0.000 C 
ATOM      8  C   UNL d   1      59.980  49.230  51.881  0.00  0.00     0.000 A 
ATOM      9  C   UNL d   1      60.572  48.764  52.207  0.00  0.00     0.001 A 
ATOM     10  C   UNL d   1      59.482  49.708  52.379  0.00  0.00     0.000 C 
ATOM     11  C   UNL d   1      61.057  48.299  51.727  0.00  0.00     0.013 A 
ENDBRANCH   1   4
BRANCH   1  12
ATOM     12  N   UNL d   1      61.938  47.351  49.924  0.00  0.00    -0.155 NA
BRANCH  12  13
ATOM     13  C   UNL d   1      61.771  46.942  49.242  0.00  0.00     0.137 C 
BRANCH  13  14
ATOM     14  C   UNL d   1      62.064  46.175  49.138  0.00  0.00     0.120 A 
ATOM     15  O   UNL d   1      62.881  45.924  49.146  0.00  0.00    -0.304 OA
ATOM     16  C   UNL d   1      62.875  45.107  49.016  0.00  0.00     0.123 A 
ATOM     17  C   UNL d   1      62.062  44.861  48.930  0.00  0.00     0.029 A 
ATOM     18  C   UNL d   1      61.607  45.528  49.008  0.00  0.00     0.028 A 
ENDBRANCH  13  14
ENDBRANCH  12  13
ENDBRANCH   1  12
TORSDOF 4
ENDMDL
