MODEL 1
REMARK VINA RESULT:      74.2      0.000      0.000
REMARK  5 active torsions:
REMARK  status: ('A' for Active; 'I' for Inactive)
REMARK    1  A    between atoms: O_8  and  S_1 
REMARK    2  A    between atoms: C_9  and  S_1 
REMARK    3  A    between atoms: C_7  and  C_2 
REMARK    4  A    between atoms: C_20  and  C_7 
REMARK    5  A    between atoms: C_14  and  O_8 
ROOT
ATOM      1  C   UNL d   1      58.764  49.389  51.278  0.00  0.00     0.139 A 
ATOM      2  C   UNL d   1      60.032  49.112  51.564  0.00  0.00     0.064 A 
ATOM      3  C   UNL d   1      59.335  49.417  51.874  0.00  0.00     0.220 A 
ATOM      4  C   UNL d   1      59.899  48.895  50.779  0.00  0.00     0.105 A 
ATOM      5  O   UNL d   1      59.111  49.068  50.602  0.00  0.00    -0.304 OA
ATOM      6  C   UNL d   1      60.507  48.575  50.340  0.00  0.00     0.050 A 
ATOM      7  C   UNL d   1      60.776  49.005  51.901  0.00  0.00     0.007 A 
ATOM      8  C   UNL d   1      61.251  48.468  50.677  0.00  0.00     0.116 A 
ATOM      9  O   UNL d   1      59.216  49.701  52.638  0.00  0.00    -0.284 OA
ATOM     10  C   UNL d   1      61.382  48.683  51.454  0.00  0.00     0.026 A 
ENDROOT
BRANCH   8  11
ATOM     11  O   UNL d   1      61.861  48.144  50.230  0.00  0.00    -0.227 OA
BRANCH  11  12
ATOM     12  S   UNL d   1      61.800  47.371  49.947  0.00  0.00     0.304 S 
ATOM     13  O   UNL d   1      61.153  47.247  50.423  0.00  0.00    -0.193 OA
ATOM     14  O   UNL d   1      62.453  47.484  49.462  0.00  0.00    -0.193 OA
BRANCH  12  15
ATOM     15  C   UNL d   1      61.736  46.589  49.664  0.00  0.00     0.111 A 
ATOM     16  C   UNL d   1      62.415  46.186  49.420  0.00  0.00     0.014 A 
ATOM     17  C   UNL d   1      62.352  45.413  49.140  0.00  0.00     0.012 A 
ATOM     18  C   UNL d   1      61.610  45.042  49.105  0.00  0.00     0.058 A 
ATOM     19  C   UNL d   1      60.936  45.457  49.353  0.00  0.00     0.012 A 
ATOM     20 CL   UNL d   1      61.547  44.281  48.829  0.00  0.00    -0.082 Cl
ATOM     21  C   UNL d   1      61.003  46.230  49.632  0.00  0.00     0.014 A 
ENDBRANCH  12  15
ENDBRANCH  11  12
ENDBRANCH   8  11
BRANCH   1  22
ATOM     22  C   UNL d   1      57.980  49.639  51.342  0.00  0.00     0.029 C 
BRANCH  22  23
ATOM     23  C   UNL d   1      57.457  49.551  50.706  0.00  0.00     0.021 A 
ATOM     24  C   UNL d   1      57.725  49.696  49.945  0.00  0.00     0.099 A 
ATOM     25  N   UNL d   1      57.218  49.613  49.306  0.00  0.00    -0.242 NA
ATOM     26  C   UNL d   1      56.427  49.380  49.432  0.00  0.00     0.099 A 
ATOM     27  C   UNL d   1      56.162  49.235  50.202  0.00  0.00     0.021 A 
ATOM     28  C   UNL d   1      56.684  49.323  50.837  0.00  0.00     0.003 A 
ENDBRANCH  22  23
ENDBRANCH   1  22
TORSDOF 5
ENDMDL
