MODEL 1
REMARK VINA RESULT:      -4.2      0.000      0.000
REMARK  5 active torsions:
REMARK  status: ('A' for Active; 'I' for Inactive)
REMARK    1  A    between atoms: S_2  and  C_10 
REMARK    2  A    between atoms: N_7  and  S_2 
REMARK    3  A    between atoms: C_9  and  N_7 
REMARK    4  A    between atoms: O_23  and  C_16 
REMARK    5  A    between atoms: O_24  and  C_19 
ROOT
ATOM      1  S   UNL d   1      58.072   0.095  30.362  0.00  0.00     0.285 S 
ATOM      2  O   UNL d   1      58.841   0.129  30.653  0.00  0.00    -0.198 OA
ATOM      3  O   UNL d   1      57.303   0.060  30.071  0.00  0.00    -0.198 OA
ENDROOT
BRANCH   1   4
ATOM      4  C   UNL d   1      57.780   0.113  31.132  0.00  0.00     0.107 A 
ATOM      5  C   UNL d   1      57.195  -0.415  31.362  0.00  0.00     0.032 A 
ATOM      6  C   UNL d   1      56.902  -0.397  32.135  0.00  0.00     0.085 A 
ATOM      7  N   UNL d   1      56.327  -0.846  32.524  0.00  0.00    -0.256 N 
ATOM      8  C   UNL d   1      57.194   0.150  32.674  0.00  0.00     0.085 A 
ATOM      9  C   UNL d   1      56.267  -0.581  33.286  0.00  0.00     0.339 A 
ATOM     10  C   UNL d   1      55.884  -1.463  32.197  0.00  0.00     0.104 C 
ATOM     11  N   UNL d   1      56.800   0.036  33.389  0.00  0.00    -0.256 N 
ATOM     12  O   UNL d   1      55.750  -0.886  33.866  0.00  0.00    -0.245 OA
ATOM     13  C   UNL d   1      56.918   0.466  34.091  0.00  0.00     0.104 C 
ATOM     14  C   UNL d   1      57.782   0.682  32.443  0.00  0.00     0.020 A 
ATOM     15  C   UNL d   1      58.076   0.663  31.670  0.00  0.00     0.015 A 
ENDBRANCH   1   4
BRANCH   1  16
ATOM     16  N   UNL d   1      58.364   0.076  29.593  0.00  0.00    -0.156 NA
BRANCH  16  17
ATOM     17  C   UNL d   1      58.782  -0.578  29.327  0.00  0.00     0.118 A 
ATOM     18  C   UNL d   1      58.507  -1.337  29.488  0.00  0.00     0.046 A 
ATOM     19  C   UNL d   1      58.926  -1.992  29.221  0.00  0.00     0.096 A 
ATOM     20  C   UNL d   1      59.630  -1.892  28.787  0.00  0.00     0.026 A 
ATOM     21  C   UNL d   1      59.905  -1.133  28.626  0.00  0.00     0.028 A 
ATOM     22  C   UNL d   1      59.479  -0.475  28.897  0.00  0.00     0.113 A 
BRANCH  19  23
ATOM     23  O   UNL d   1      58.645  -2.748  29.386  0.00  0.00    -0.328 OA
ATOM     24  C   UNL d   1      58.767  -3.360  28.850  0.00  0.00     0.181 C 
ENDBRANCH  19  23
BRANCH  22  25
ATOM     25  O   UNL d   1      59.753   0.284  28.736  0.00  0.00    -0.327 OA
ATOM     26  C   UNL d   1      60.518   0.394  28.457  0.00  0.00     0.181 C 
ENDBRANCH  22  25
ENDBRANCH  16  17
ENDBRANCH   1  16
TORSDOF 5
ENDMDL
MODEL 2
REMARK VINA RESULT:      -3.9      0.778      1.677
REMARK  5 active torsions:
REMARK  status: ('A' for Active; 'I' for Inactive)
REMARK    1  A    between atoms: S_2  and  C_10 
REMARK    2  A    between atoms: N_7  and  S_2 
REMARK    3  A    between atoms: C_9  and  N_7 
REMARK    4  A    between atoms: O_23  and  C_16 
REMARK    5  A    between atoms: O_24  and  C_19 
ROOT
ATOM      1  S   UNL d   1      57.597  -0.463  30.509  0.00  0.00     0.285 S 
ATOM      2  O   UNL d   1      57.657  -1.257  30.715  0.00  0.00    -0.198 OA
ATOM      3  O   UNL d   1      57.537   0.332  30.304  0.00  0.00    -0.198 OA
ENDROOT
BRANCH   1   4
ATOM      4  C   UNL d   1      57.361  -0.282  31.277  0.00  0.00     0.107 A 
ATOM      5  C   UNL d   1      56.793  -0.742  31.651  0.00  0.00     0.032 A 
ATOM      6  C   UNL d   1      56.556  -0.561  32.422  0.00  0.00     0.085 A 
ATOM      7  N   UNL d   1      56.009  -0.912  32.934  0.00  0.00    -0.256 N 
ATOM      8  C   UNL d   1      56.888   0.079  32.816  0.00  0.00     0.085 A 
ATOM      9  C   UNL d   1      56.004  -0.496  33.628  0.00  0.00     0.339 A 
ATOM     10  C   UNL d   1      55.542  -1.575  32.772  0.00  0.00     0.104 C 
ATOM     11  N   UNL d   1      56.546   0.120  33.565  0.00  0.00    -0.256 N 
ATOM     12  O   UNL d   1      55.530  -0.667  34.293  0.00  0.00    -0.245 OA
ATOM     13  C   UNL d   1      56.714   0.682  34.154  0.00  0.00     0.104 C 
ATOM     14  C   UNL d   1      57.459   0.542  32.441  0.00  0.00     0.020 A 
ATOM     15  C   UNL d   1      57.696   0.361  31.669  0.00  0.00     0.015 A 
ENDBRANCH   1   4
BRANCH   1  16
ATOM     16  N   UNL d   1      57.833  -0.643  29.742  0.00  0.00    -0.156 NA
BRANCH  16  17
ATOM     17  C   UNL d   1      58.628  -0.611  29.537  0.00  0.00     0.118 A 
ATOM     18  C   UNL d   1      59.094   0.018  29.790  0.00  0.00     0.046 A 
ATOM     19  C   UNL d   1      59.889   0.050  29.585  0.00  0.00     0.096 A 
ATOM     20  C   UNL d   1      60.227  -0.553  29.119  0.00  0.00     0.026 A 
ATOM     21  C   UNL d   1      59.760  -1.181  28.866  0.00  0.00     0.028 A 
ATOM     22  C   UNL d   1      58.958  -1.210  29.076  0.00  0.00     0.113 A 
BRANCH  19  23
ATOM     23  O   UNL d   1      60.350   0.682  29.842  0.00  0.00    -0.328 OA
ATOM     24  C   UNL d   1      61.133   0.560  30.062  0.00  0.00     0.181 C 
ENDBRANCH  19  23
BRANCH  22  25
ATOM     25  O   UNL d   1      58.492  -1.838  28.822  0.00  0.00    -0.327 OA
ATOM     26  C   UNL d   1      58.843  -2.511  28.510  0.00  0.00     0.181 C 
ENDBRANCH  22  25
ENDBRANCH  16  17
ENDBRANCH   1  16
TORSDOF 5
ENDMDL
MODEL 3
REMARK VINA RESULT:      -2.7      1.254      4.747
REMARK  5 active torsions:
REMARK  status: ('A' for Active; 'I' for Inactive)
REMARK    1  A    between atoms: S_2  and  C_10 
REMARK    2  A    between atoms: N_7  and  S_2 
REMARK    3  A    between atoms: C_9  and  N_7 
REMARK    4  A    between atoms: O_23  and  C_16 
REMARK    5  A    between atoms: O_24  and  C_19 
ROOT
ATOM      1  S   UNL d   1      57.033  -0.002  31.414  0.00  0.00     0.285 S 
ATOM      2  O   UNL d   1      56.758   0.680  31.045  0.00  0.00    -0.198 OA
ATOM      3  O   UNL d   1      57.308  -0.684  31.783  0.00  0.00    -0.198 OA
ENDROOT
BRANCH   1   4
ATOM      4  C   UNL d   1      57.664  -0.032  30.887  0.00  0.00     0.107 A 
ATOM      5  C   UNL d   1      57.816  -0.721  30.467  0.00  0.00     0.032 A 
ATOM      6  C   UNL d   1      58.451  -0.751  29.937  0.00  0.00     0.085 A 
ATOM      7  N   UNL d   1      58.738  -1.350  29.445  0.00  0.00    -0.256 N 
ATOM      8  C   UNL d   1      58.931  -0.092  29.831  0.00  0.00     0.085 A 
ATOM      9  C   UNL d   1      59.381  -1.066  29.044  0.00  0.00     0.339 A 
ATOM     10  C   UNL d   1      58.427  -2.113  29.369  0.00  0.00     0.104 C 
ATOM     11  N   UNL d   1      59.509  -0.287  29.277  0.00  0.00    -0.256 N 
ATOM     12  O   UNL d   1      59.835  -1.494  28.490  0.00  0.00    -0.245 OA
ATOM     13  C   UNL d   1      60.114   0.210  28.999  0.00  0.00     0.104 C 
ATOM     14  C   UNL d   1      58.779   0.600  30.254  0.00  0.00     0.020 A 
ATOM     15  C   UNL d   1      58.144   0.630  30.783  0.00  0.00     0.015 A 
ENDBRANCH   1   4
BRANCH   1  16
ATOM     16  N   UNL d   1      56.401   0.028  31.941  0.00  0.00    -0.156 NA
BRANCH  16  17
ATOM     17  C   UNL d   1      56.533   0.203  32.732  0.00  0.00     0.118 A 
ATOM     18  C   UNL d   1      57.299   0.320  33.008  0.00  0.00     0.046 A 
ATOM     19  C   UNL d   1      57.430   0.495  33.800  0.00  0.00     0.096 A 
ATOM     20  C   UNL d   1      56.789   0.555  34.328  0.00  0.00     0.026 A 
ATOM     21  C   UNL d   1      56.022   0.438  34.053  0.00  0.00     0.028 A 
ATOM     22  C   UNL d   1      55.894   0.262  33.252  0.00  0.00     0.113 A 
BRANCH  19  23
ATOM     23  O   UNL d   1      58.200   0.610  34.068  0.00  0.00    -0.328 OA
ATOM     24  C   UNL d   1      58.350   0.682  34.873  0.00  0.00     0.181 C 
ENDBRANCH  19  23
BRANCH  22  25
ATOM     25  O   UNL d   1      55.128   0.145  32.977  0.00  0.00    -0.327 OA
ATOM     26  C   UNL d   1      54.501   0.118  33.506  0.00  0.00     0.181 C 
ENDBRANCH  22  25
ENDBRANCH  16  17
ENDBRANCH   1  16
TORSDOF 5
ENDMDL
