MODEL 1
REMARK VINA RESULT:      -2.9      0.000      0.000
REMARK  4 active torsions:
REMARK  status: ('A' for Active; 'I' for Inactive)
REMARK    1  A    between atoms: C_2  and  S_1 
REMARK    2  A    between atoms: N_4  and  S_1 
REMARK    3  A    between atoms: C_11  and  N_4 
REMARK    4  A    between atoms: C_9  and  C_11 
ROOT
ATOM      1  S   UNL d   1      32.694  22.919 -20.184  0.00  0.00     0.285 S 
ATOM      2  O   UNL d   1      32.952  23.702 -20.180  0.00  0.00    -0.198 OA
ATOM      3  O   UNL d   1      32.435  22.135 -20.187  0.00  0.00    -0.198 OA
ENDROOT
BRANCH   1   4
ATOM      4  C   UNL d   1      32.688  22.925 -21.009  0.00  0.00     0.105 A 
ATOM      5  C   UNL d   1      32.962  22.265 -21.429  0.00  0.00     0.012 A 
ATOM      6  C   UNL d   1      32.955  22.271 -22.253  0.00  0.00     0.001 A 
ATOM      7  C   UNL d   1      33.241  21.602 -21.023  0.00  0.00     0.001 C 
ATOM      8  C   UNL d   1      33.228  21.614 -22.672  0.00  0.00     0.000 C 
ATOM      9  C   UNL d   1      32.675  22.937 -22.658  0.00  0.00     0.000 A 
ATOM     10  C   UNL d   1      32.403  23.593 -22.238  0.00  0.00     0.001 A 
ATOM     11  C   UNL d   1      32.669  22.943 -23.483  0.00  0.00     0.000 C 
ATOM     12  C   UNL d   1      32.409  23.587 -21.415  0.00  0.00     0.013 A 
ENDBRANCH   1   4
BRANCH   1  13
ATOM     13  N   UNL d   1      32.700  22.913 -19.359  0.00  0.00    -0.155 NA
BRANCH  13  14
ATOM     14  C   UNL d   1      32.632  23.625 -18.941  0.00  0.00     0.137 C 
BRANCH  14  15
ATOM     15  C   UNL d   1      32.597  23.616 -18.117  0.00  0.00     0.120 A 
ATOM     16  O   UNL d   1      31.912  23.658 -17.663  0.00  0.00    -0.304 OA
ATOM     17  C   UNL d   1      32.133  23.630 -16.872  0.00  0.00     0.123 A 
ATOM     18  C   UNL d   1      32.956  23.571 -16.838  0.00  0.00     0.029 A 
ATOM     19  C   UNL d   1      33.241  23.562 -17.608  0.00  0.00     0.028 A 
ENDBRANCH  14  15
ENDBRANCH  13  14
ENDBRANCH   1  13
TORSDOF 4
ENDMDL
MODEL 2
REMARK VINA RESULT:      -2.5      4.210      5.587
REMARK  4 active torsions:
REMARK  status: ('A' for Active; 'I' for Inactive)
REMARK    1  A    between atoms: C_2  and  S_1 
REMARK    2  A    between atoms: N_4  and  S_1 
REMARK    3  A    between atoms: C_11  and  N_4 
REMARK    4  A    between atoms: C_9  and  C_11 
ROOT
ATOM      1  S   UNL d   1      32.567  18.599 -23.179  0.00  0.00     0.285 S 
ATOM      2  O   UNL d   1      32.803  19.016 -23.851  0.00  0.00    -0.198 OA
ATOM      3  O   UNL d   1      32.332  18.182 -22.507  0.00  0.00    -0.198 OA
ENDROOT
BRANCH   1   4
ATOM      4  C   UNL d   1      32.234  18.016 -23.658  0.00  0.00     0.105 A 
ATOM      5  C   UNL d   1      32.552  17.250 -23.657  0.00  0.00     0.012 A 
ATOM      6  C   UNL d   1      32.219  16.667 -24.136  0.00  0.00     0.001 A 
ATOM      7  C   UNL d   1      33.200  17.071 -23.178  0.00  0.00     0.001 C 
ATOM      8  C   UNL d   1      32.534  15.904 -24.136  0.00  0.00     0.000 C 
ATOM      9  C   UNL d   1      31.568  16.849 -24.616  0.00  0.00     0.000 A 
ATOM     10  C   UNL d   1      31.254  17.612 -24.615  0.00  0.00     0.001 A 
ATOM     11  C   UNL d   1      31.235  16.266 -25.095  0.00  0.00     0.000 C 
ATOM     12  C   UNL d   1      31.587  18.195 -24.137  0.00  0.00     0.013 A 
ENDBRANCH   1   4
BRANCH   1  13
ATOM     13  N   UNL d   1      32.900  19.183 -22.700  0.00  0.00    -0.155 NA
BRANCH  13  14
ATOM     14  C   UNL d   1      32.547  19.931 -22.657  0.00  0.00     0.137 C 
BRANCH  14  15
ATOM     15  C   UNL d   1      32.806  20.475 -22.093  0.00  0.00     0.120 A 
ATOM     16  O   UNL d   1      32.897  21.284 -22.209  0.00  0.00    -0.304 OA
ATOM     17  C   UNL d   1      33.165  21.611 -21.505  0.00  0.00     0.123 A 
ATOM     18  C   UNL d   1      33.240  21.002 -20.953  0.00  0.00     0.029 A 
ATOM     19  C   UNL d   1      33.018  20.301 -21.318  0.00  0.00     0.028 A 
ENDBRANCH  14  15
ENDBRANCH  13  14
ENDBRANCH   1  13
TORSDOF 4
ENDMDL
MODEL 3
REMARK VINA RESULT:      -2.4      3.138      4.456
REMARK  4 active torsions:
REMARK  status: ('A' for Active; 'I' for Inactive)
REMARK    1  A    between atoms: C_2  and  S_1 
REMARK    2  A    between atoms: N_4  and  S_1 
REMARK    3  A    between atoms: C_11  and  N_4 
REMARK    4  A    between atoms: C_9  and  C_11 
ROOT
ATOM      1  S   UNL d   1      33.049  19.612 -22.437  0.00  0.00     0.285 S 
ATOM      2  O   UNL d   1      33.241  20.005 -23.137  0.00  0.00    -0.198 OA
ATOM      3  O   UNL d   1      32.858  19.220 -21.737  0.00  0.00    -0.198 OA
ENDROOT
BRANCH   1   4
ATOM      4  C   UNL d   1      33.020  18.897 -22.846  0.00  0.00     0.105 A 
ATOM      5  C   UNL d   1      32.768  18.883 -23.636  0.00  0.00     0.012 A 
ATOM      6  C   UNL d   1      32.739  18.168 -24.045  0.00  0.00     0.001 A 
ATOM      7  C   UNL d   1      32.547  19.584 -24.013  0.00  0.00     0.001 C 
ATOM      8  C   UNL d   1      32.488  18.152 -24.832  0.00  0.00     0.000 C 
ATOM      9  C   UNL d   1      32.961  17.465 -23.665  0.00  0.00     0.000 A 
ATOM     10  C   UNL d   1      33.211  17.482 -22.879  0.00  0.00     0.001 A 
ATOM     11  C   UNL d   1      32.931  16.750 -24.074  0.00  0.00     0.000 C 
ATOM     12  C   UNL d   1      33.240  18.196 -22.470  0.00  0.00     0.013 A 
ENDBRANCH   1   4
BRANCH   1  13
ATOM     13  N   UNL d   1      33.079  20.328 -22.027  0.00  0.00    -0.155 NA
BRANCH  13  14
ATOM     14  C   UNL d   1      32.594  20.444 -21.366  0.00  0.00     0.137 C 
BRANCH  14  15
ATOM     15  C   UNL d   1      32.556  21.188 -21.010  0.00  0.00     0.120 A 
ATOM     16  O   UNL d   1      31.908  21.695 -21.021  0.00  0.00    -0.304 OA
ATOM     17  C   UNL d   1      32.112  22.371 -20.601  0.00  0.00     0.123 A 
ATOM     18  C   UNL d   1      32.886  22.281 -20.331  0.00  0.00     0.029 A 
ATOM     19  C   UNL d   1      33.159  21.550 -20.585  0.00  0.00     0.028 A 
ENDBRANCH  14  15
ENDBRANCH  13  14
ENDBRANCH   1  13
TORSDOF 4
ENDMDL
MODEL 4
REMARK VINA RESULT:      -1.6      4.013      6.250
REMARK  4 active torsions:
REMARK  status: ('A' for Active; 'I' for Inactive)
REMARK    1  A    between atoms: C_2  and  S_1 
REMARK    2  A    between atoms: N_4  and  S_1 
REMARK    3  A    between atoms: C_11  and  N_4 
REMARK    4  A    between atoms: C_9  and  C_11 
ROOT
ATOM      1  S   UNL d   1      33.101  18.822 -22.890  0.00  0.00     0.285 S 
ATOM      2  O   UNL d   1      33.239  18.378 -22.208  0.00  0.00    -0.198 OA
ATOM      3  O   UNL d   1      32.963  19.266 -23.571  0.00  0.00    -0.198 OA
ENDROOT
BRANCH   1   4
ATOM      4  C   UNL d   1      33.135  19.516 -22.444  0.00  0.00     0.105 A 
ATOM      5  C   UNL d   1      33.171  20.251 -22.827  0.00  0.00     0.012 A 
ATOM      6  C   UNL d   1      33.205  20.944 -22.382  0.00  0.00     0.001 A 
ATOM      7  C   UNL d   1      33.173  20.289 -23.652  0.00  0.00     0.001 C 
ATOM      8  C   UNL d   1      33.241  21.676 -22.762  0.00  0.00     0.000 C 
ATOM      9  C   UNL d   1      33.203  20.904 -21.554  0.00  0.00     0.000 A 
ATOM     10  C   UNL d   1      33.168  20.172 -21.176  0.00  0.00     0.001 A 
ATOM     11  C   UNL d   1      33.237  21.597 -21.109  0.00  0.00     0.000 C 
ATOM     12  C   UNL d   1      33.134  19.479 -21.620  0.00  0.00     0.013 A 
ENDBRANCH   1   4
BRANCH   1  13
ATOM     13  N   UNL d   1      33.067  18.128 -23.335  0.00  0.00    -0.155 NA
BRANCH  13  14
ATOM     14  C   UNL d   1      32.405  17.634 -23.276  0.00  0.00     0.137 C 
BRANCH  14  15
ATOM     15  C   UNL d   1      32.296  17.027 -23.825  0.00  0.00     0.120 A 
ATOM     16  O   UNL d   1      32.888  16.545 -24.134  0.00  0.00    -0.304 OA
ATOM     17  C   UNL d   1      32.535  16.020 -24.658  0.00  0.00     0.123 A 
ATOM     18  C   UNL d   1      31.725  16.178 -24.672  0.00  0.00     0.029 A 
ATOM     19  C   UNL d   1      31.580  16.800 -24.157  0.00  0.00     0.028 A 
ENDBRANCH  14  15
ENDBRANCH  13  14
ENDBRANCH   1  13
TORSDOF 4
ENDMDL
MODEL 5
REMARK VINA RESULT:      -1.5      2.977      5.232
REMARK  4 active torsions:
REMARK  status: ('A' for Active; 'I' for Inactive)
REMARK    1  A    between atoms: C_2  and  S_1 
REMARK    2  A    between atoms: N_4  and  S_1 
REMARK    3  A    between atoms: C_11  and  N_4 
REMARK    4  A    between atoms: C_9  and  C_11 
ROOT
ATOM      1  S   UNL d   1      32.932  20.159 -22.308  0.00  0.00     0.285 S 
ATOM      2  O   UNL d   1      32.624  20.569 -22.955  0.00  0.00    -0.198 OA
ATOM      3  O   UNL d   1      33.240  19.749 -21.662  0.00  0.00    -0.198 OA
ENDROOT
BRANCH   1   4
ATOM      4  C   UNL d   1      32.772  20.806 -21.822  0.00  0.00     0.105 A 
ATOM      5  C   UNL d   1      32.927  21.574 -22.093  0.00  0.00     0.012 A 
ATOM      6  C   UNL d   1      32.768  22.221 -21.608  0.00  0.00     0.001 A 
ATOM      7  C   UNL d   1      33.241  21.692 -22.848  0.00  0.00     0.001 C 
ATOM      8  C   UNL d   1      32.922  22.987 -21.875  0.00  0.00     0.000 C 
ATOM      9  C   UNL d   1      32.453  22.101 -20.850  0.00  0.00     0.000 A 
ATOM     10  C   UNL d   1      32.300  21.335 -20.583  0.00  0.00     0.001 A 
ATOM     11  C   UNL d   1      32.293  22.748 -20.364  0.00  0.00     0.000 C 
ATOM     12  C   UNL d   1      32.459  20.689 -21.068  0.00  0.00     0.013 A 
ENDBRANCH   1   4
BRANCH   1  13
ATOM     13  N   UNL d   1      33.092  19.512 -22.794  0.00  0.00    -0.155 NA
BRANCH  13  14
ATOM     14  C   UNL d   1      32.575  18.864 -22.801  0.00  0.00     0.137 C 
BRANCH  14  15
ATOM     15  C   UNL d   1      32.772  18.187 -23.229  0.00  0.00     0.120 A 
ATOM     16  O   UNL d   1      33.114  17.505 -22.920  0.00  0.00    -0.304 OA
ATOM     17  C   UNL d   1      33.214  16.973 -23.538  0.00  0.00     0.123 A 
ATOM     18  C   UNL d   1      32.933  17.326 -24.228  0.00  0.00     0.029 A 
ATOM     19  C   UNL d   1      32.661  18.076 -24.036  0.00  0.00     0.028 A 
ENDBRANCH  14  15
ENDBRANCH  13  14
ENDBRANCH   1  13
TORSDOF 4
ENDMDL
MODEL 6
REMARK VINA RESULT:      -1.5      1.493      4.307
REMARK  4 active torsions:
REMARK  status: ('A' for Active; 'I' for Inactive)
REMARK    1  A    between atoms: C_2  and  S_1 
REMARK    2  A    between atoms: N_4  and  S_1 
REMARK    3  A    between atoms: C_11  and  N_4 
REMARK    4  A    between atoms: C_9  and  C_11 
ROOT
ATOM      1  S   UNL d   1      32.895  22.703 -21.371  0.00  0.00     0.285 S 
ATOM      2  O   UNL d   1      32.572  21.951 -21.269  0.00  0.00    -0.198 OA
ATOM      3  O   UNL d   1      33.217  23.456 -21.473  0.00  0.00    -0.198 OA
ENDROOT
BRANCH   1   4
ATOM      4  C   UNL d   1      32.875  22.822 -20.555  0.00  0.00     0.105 A 
ATOM      5  C   UNL d   1      33.049  22.194 -20.042  0.00  0.00     0.012 A 
ATOM      6  C   UNL d   1      33.029  22.313 -19.227  0.00  0.00     0.001 A 
ATOM      7  C   UNL d   1      33.240  21.451 -20.347  0.00  0.00     0.001 C 
ATOM      8  C   UNL d   1      33.202  21.689 -18.715  0.00  0.00     0.000 C 
ATOM      9  C   UNL d   1      32.837  23.060 -18.923  0.00  0.00     0.000 A 
ATOM     10  C   UNL d   1      32.664  23.683 -19.435  0.00  0.00     0.001 A 
ATOM     11  C   UNL d   1      32.817  23.179 -18.107  0.00  0.00     0.000 C 
ATOM     12  C   UNL d   1      32.684  23.564 -20.250  0.00  0.00     0.013 A 
ENDBRANCH   1   4
BRANCH   1  13
ATOM     13  N   UNL d   1      32.914  22.585 -22.188  0.00  0.00    -0.155 NA
BRANCH  13  14
ATOM     14  C   UNL d   1      32.963  23.236 -22.698  0.00  0.00     0.137 C 
BRANCH  14  15
ATOM     15  C   UNL d   1      33.038  23.115 -23.510  0.00  0.00     0.120 A 
ATOM     16  O   UNL d   1      33.017  22.387 -23.894  0.00  0.00    -0.304 OA
ATOM     17  C   UNL d   1      33.113  22.525 -24.698  0.00  0.00     0.123 A 
ATOM     18  C   UNL d   1      33.192  23.338 -24.811  0.00  0.00     0.029 A 
ATOM     19  C   UNL d   1      33.146  23.701 -24.077  0.00  0.00     0.028 A 
ENDBRANCH  14  15
ENDBRANCH  13  14
ENDBRANCH   1  13
TORSDOF 4
ENDMDL
