MODEL 1
REMARK VINA RESULT:      24.7      0.000      0.000
REMARK  1 active torsions:
REMARK  status: ('A' for Active; 'I' for Inactive)
REMARK    1  A    between atoms: C_10  and  N_3 
ROOT
ATOM      1  C   UNL d   1      59.035  49.706  50.122  0.00  0.00     0.166 A 
ATOM      2  C   UNL d   1      58.794  49.705  50.907  0.00  0.00     0.117 A 
ATOM      3  N   UNL d   1      59.864  49.706  50.134  0.00  0.00    -0.289 N 
ATOM      4  N   UNL d   1      58.485  49.707  49.499  0.00  0.00    -0.225 NA
ATOM      5  N   UNL d   1      57.979  49.705  51.053  0.00  0.00    -0.241 NA
ATOM      6  C   UNL d   1      59.445  49.705  51.388  0.00  0.00     0.037 A 
ATOM      7  C   UNL d   1      60.112  49.706  50.906  0.00  0.00     0.067 A 
ATOM      8  C   UNL d   1      57.693  49.707  49.660  0.00  0.00     0.101 A 
ATOM      9  C   UNL d   1      57.444  49.706  50.451  0.00  0.00     0.099 A 
ATOM     10  C   UNL d   1      59.533  49.704  52.207  0.00  0.00     0.003 A 
ATOM     11  C   UNL d   1      60.867  49.705  51.244  0.00  0.00     0.018 A 
ATOM     12  C   UNL d   1      56.646  49.705  50.620  0.00  0.00     0.021 A 
ATOM     13  C   UNL d   1      57.154  49.707  49.065  0.00  0.00     0.021 A 
ATOM     14  C   UNL d   1      60.284  49.704  52.550  0.00  0.00     0.000 A 
ATOM     15  C   UNL d   1      60.951  49.704  52.068  0.00  0.00     0.002 A 
ATOM     16  C   UNL d   1      56.072  49.706  50.015  0.00  0.00     0.002 A 
ATOM     17  C   UNL d   1      56.333  49.707  49.249  0.00  0.00     0.002 A 
ENDROOT
BRANCH   3  18
ATOM     18  C   UNL d   1      60.341  49.707  49.483  0.00  0.00     0.082 C 
ATOM     19  C   UNL d   1      61.177  49.705  49.597  0.00  0.00     0.021 C 
ENDBRANCH   3  18
TORSDOF 1
ENDMDL
