MODEL 1
REMARK VINA RESULT:       1.6      0.000      0.000
REMARK  5 active torsions:
REMARK  status: ('A' for Active; 'I' for Inactive)
REMARK    1  A    between atoms: C_11  and  N_4 
REMARK    2  A    between atoms: C_12  and  N_10 
REMARK    3  A    between atoms: C_14  and  C_11 
REMARK    4  A    between atoms: O_26  and  C_13 
REMARK    5  A    between atoms: O_28  and  C_24 
ROOT
ATOM      1  C   UNL d   1      56.974  -1.479  31.394  0.00  0.00     0.191 A 
ATOM      2  C   UNL d   1      57.181  -0.689  31.270  0.00  0.00     0.173 A 
ATOM      3  C   UNL d   1      58.000  -1.500  30.318  0.00  0.00     0.722 A 
ATOM      4  N   UNL d   1      56.265  -0.290  32.276  0.00  0.00    -0.224 N 
ATOM      5  N   UNL d   1      57.407  -1.947  30.886  0.00  0.00    -0.042 NA
ATOM      6  N   UNL d   1      57.739  -0.683  30.687  0.00  0.00    -0.132 N 
ATOM      7  N   UNL d   1      56.413  -1.690  31.956  0.00  0.00    -0.240 N 
ATOM      8  C   UNL d   1      56.057  -1.080  32.400  0.00  0.00     0.343 A 
ATOM      9  C   UNL d   1      56.828  -0.110  31.708  0.00  0.00     0.288 A 
ATOM     10  N   UNL d   1      58.561  -1.480  29.733  0.00  0.00    -0.138 N 
ATOM     11  C   UNL d   1      58.093  -0.015  30.396  0.00  0.00     0.100 A 
ATOM     12  C   UNL d   1      58.903  -0.778  29.457  0.00  0.00     0.100 A 
ATOM     13  O   UNL d   1      55.487  -1.287  32.972  0.00  0.00    -0.245 OA
ATOM     14  O   UNL d   1      57.035   0.681  31.584  0.00  0.00    -0.265 OA
ATOM     15  C   UNL d   1      58.664  -0.028  29.796  0.00  0.00     0.036 A 
ATOM     16  C   UNL d   1      56.205  -2.480  32.080  0.00  0.00     0.105 C 
ATOM     17  C   UNL d   1      59.000   0.682  29.529  0.00  0.00     0.003 C 
ENDROOT
BRANCH  10  18
ATOM     18  C   UNL d   1      58.785  -2.209  29.412  0.00  0.00     0.104 A 
ATOM     19  C   UNL d   1      59.577  -2.440  29.434  0.00  0.00     0.113 A 
ATOM     20  C   UNL d   1      59.834  -3.144  29.130  0.00  0.00     0.050 A 
ATOM     21  C   UNL d   1      59.284  -3.666  28.779  0.00  0.00     0.096 A 
ATOM     22  C   UNL d   1      58.475  -3.439  28.752  0.00  0.00     0.026 A 
ATOM     23  C   UNL d   1      58.243  -2.720  29.067  0.00  0.00     0.022 A 
BRANCH  19  24
ATOM     24  O   UNL d   1      60.131  -1.935  29.778  0.00  0.00    -0.327 OA
ATOM     25  C   UNL d   1      60.920  -2.044  29.619  0.00  0.00     0.181 C 
ENDBRANCH  19  24
BRANCH  21  26
ATOM     26  O   UNL d   1      59.521  -4.401  28.456  0.00  0.00    -0.328 OA
ATOM     27  C   UNL d   1      59.015  -5.053  28.490  0.00  0.00     0.181 C 
ENDBRANCH  21  26
ENDBRANCH  10  18
BRANCH   4  28
ATOM     28  C   UNL d   1      55.731  -0.058  32.862  0.00  0.00     0.090 C 
BRANCH  28  29
ATOM     29  C   UNL d   1      56.009   0.188  33.600  0.00  0.00     0.045 A 
ATOM     30  C   UNL d   1      55.474   0.428  34.171  0.00  0.00     0.141 A 
ATOM     31  F   UNL d   1      54.666   0.425  34.010  0.00  0.00    -0.204 F 
ATOM     32  C   UNL d   1      55.749   0.674  34.906  0.00  0.00     0.030 A 
ATOM     33  C   UNL d   1      56.555   0.679  35.069  0.00  0.00     0.002 A 
ATOM     34  C   UNL d   1      57.089   0.434  34.487  0.00  0.00     0.000 A 
ATOM     35  C   UNL d   1      56.814   0.188  33.751  0.00  0.00     0.004 A 
ENDBRANCH  28  29
ENDBRANCH   4  28
TORSDOF 5
ENDMDL
MODEL 2
REMARK VINA RESULT:       2.3      2.432      5.768
REMARK  5 active torsions:
REMARK  status: ('A' for Active; 'I' for Inactive)
REMARK    1  A    between atoms: C_11  and  N_4 
REMARK    2  A    between atoms: C_12  and  N_10 
REMARK    3  A    between atoms: C_14  and  C_11 
REMARK    4  A    between atoms: O_26  and  C_13 
REMARK    5  A    between atoms: O_28  and  C_24 
ROOT
ATOM      1  C   UNL d   1      56.997   0.571  31.421  0.00  0.00     0.191 A 
ATOM      2  C   UNL d   1      57.716   0.562  31.828  0.00  0.00     0.173 A 
ATOM      3  C   UNL d   1      56.638   0.595  32.864  0.00  0.00     0.722 A 
ATOM      4  N   UNL d   1      58.414   0.533  30.594  0.00  0.00    -0.224 N 
ATOM      5  N   UNL d   1      56.389   0.590  31.963  0.00  0.00    -0.042 NA
ATOM      6  N   UNL d   1      57.539   0.575  32.615  0.00  0.00    -0.132 N 
ATOM      7  N   UNL d   1      56.971   0.562  30.599  0.00  0.00    -0.240 N 
ATOM      8  C   UNL d   1      57.695   0.543  30.187  0.00  0.00     0.343 A 
ATOM      9  C   UNL d   1      58.409   0.543  31.413  0.00  0.00     0.288 A 
ATOM     10  N   UNL d   1      56.474   0.608  33.657  0.00  0.00    -0.138 N 
ATOM     11  C   UNL d   1      58.088   0.571  33.210  0.00  0.00     0.100 A 
ATOM     12  C   UNL d   1      57.061   0.603  34.242  0.00  0.00     0.100 A 
ATOM     13  O   UNL d   1      57.676   0.533  29.353  0.00  0.00    -0.245 OA
ATOM     14  O   UNL d   1      59.128   0.534  31.821  0.00  0.00    -0.265 OA
ATOM     15  C   UNL d   1      57.887   0.584  34.014  0.00  0.00     0.036 A 
ATOM     16  C   UNL d   1      56.253   0.571  30.192  0.00  0.00     0.105 C 
ATOM     17  C   UNL d   1      58.484   0.579  34.589  0.00  0.00     0.003 C 
ENDROOT
BRANCH  10  18
ATOM     18  C   UNL d   1      55.675   0.626  33.868  0.00  0.00     0.104 A 
ATOM     19  C   UNL d   1      55.460   0.622  34.665  0.00  0.00     0.113 A 
ATOM     20  C   UNL d   1      54.690   0.639  34.909  0.00  0.00     0.050 A 
ATOM     21  C   UNL d   1      54.078   0.662  34.340  0.00  0.00     0.096 A 
ATOM     22  C   UNL d   1      54.287   0.668  33.525  0.00  0.00     0.026 A 
ATOM     23  C   UNL d   1      55.075   0.650  33.307  0.00  0.00     0.022 A 
BRANCH  19  24
ATOM     24  O   UNL d   1      56.053   0.598  35.238  0.00  0.00    -0.327 OA
ATOM     25  C   UNL d   1      55.876   0.323  35.981  0.00  0.00     0.181 C 
ENDBRANCH  19  24
BRANCH  21  26
ATOM     26  O   UNL d   1      53.271   0.681  34.564  0.00  0.00    -0.328 OA
ATOM     27  C   UNL d   1      52.681   0.549  34.001  0.00  0.00     0.181 C 
ENDBRANCH  21  26
ENDBRANCH  10  18
BRANCH   4  28
ATOM     28  C   UNL d   1      58.821   0.517  29.875  0.00  0.00     0.090 C 
BRANCH  28  29
ATOM     29  C   UNL d   1      59.587   0.208  29.841  0.00  0.00     0.045 A 
ATOM     30  C   UNL d   1      59.697  -0.564  29.594  0.00  0.00     0.141 A 
ATOM     31  F   UNL d   1      59.051  -1.029  29.382  0.00  0.00    -0.204 F 
ATOM     32  C   UNL d   1      60.458  -0.874  29.560  0.00  0.00     0.030 A 
ATOM     33  C   UNL d   1      61.106  -0.412  29.772  0.00  0.00     0.002 A 
ATOM     34  C   UNL d   1      60.985   0.367  30.020  0.00  0.00     0.000 A 
ATOM     35  C   UNL d   1      60.223   0.677  30.054  0.00  0.00     0.004 A 
ENDBRANCH  28  29
ENDBRANCH   4  28
TORSDOF 5
ENDMDL
