MODEL 1
REMARK VINA RESULT:      -1.8      0.000      0.000
REMARK  5 active torsions:
REMARK  status: ('A' for Active; 'I' for Inactive)
REMARK    1  A    between atoms: N_3  and  C_1 
REMARK    2  A    between atoms: C_12  and  N_2 
REMARK       I    between atoms: C_5  and  N_3 
REMARK    3  A    between atoms: C_8  and  C_5 
REMARK    4  A    between atoms: C_15  and  C_12 
REMARK    5  A    between atoms: O_22  and  C_15 
ROOT
ATOM      1  C   UNL d   1     -41.418-122.997 -51.507  0.00  0.00     0.183 A 
ATOM      2  N   UNL d   1     -41.294-122.339 -51.985  0.00  0.00    -0.280 N 
ATOM      3  S   UNL d   1     -41.511-123.655 -51.998  0.00  0.00    -0.048 SA
ATOM      4  C   UNL d   1     -41.308-122.583 -52.777  0.00  0.00     0.072 A 
ATOM      5  C   UNL d   1     -41.443-123.400 -52.785  0.00  0.00     0.048 A 
ATOM      6  C   UNL d   1     -41.216-122.172 -53.488  0.00  0.00     0.018 A 
ATOM      7  C   UNL d   1     -41.486-123.806 -53.503  0.00  0.00     0.008 A 
ATOM      8  C   UNL d   1     -41.260-122.578 -54.206  0.00  0.00     0.002 A 
ATOM      9  C   UNL d   1     -41.394-123.395 -54.214  0.00  0.00     0.001 A 
ATOM     10  C   UNL d   1     -41.438-123.801 -54.924  0.00  0.00     0.000 C 
ENDROOT
BRANCH   1  11
ATOM     11  N   UNL d   1     -41.445-122.992 -50.679  0.00  0.00    -0.183 NA
ATOM     12  C   UNL d   1     -42.046-123.403 -50.289  0.00  0.00     0.287 C 
ATOM     13  O   UNL d   1     -42.613-123.815 -50.726  0.00  0.00    -0.265 OA
BRANCH  12  14
ATOM     14  C   UNL d   1     -42.078-123.403 -49.473  0.00  0.00     0.088 A 
ATOM     15  S   UNL d   1     -41.476-123.650 -48.956  0.00  0.00    -0.071 SA
ATOM     16  C   UNL d   1     -41.744-123.556 -48.192  0.00  0.00     0.087 A 
ATOM     17 CL   UNL d   1     -41.340-123.727 -47.498  0.00  0.00    -0.075 Cl
ATOM     18  C   UNL d   1     -42.501-123.255 -48.231  0.00  0.00     0.019 A 
ATOM     19  C   UNL d   1     -42.703-123.162 -49.017  0.00  0.00     0.013 A 
ENDBRANCH  12  14
ENDBRANCH   1  11
BRANCH   2  20
ATOM     20  C   UNL d   1     -41.157-121.533 -52.095  0.00  0.00     0.151 C 
BRANCH  20  21
ATOM     21  C   UNL d   1     -41.570-120.988 -51.646  0.00  0.00     0.314 C 
ATOM     22  O   UNL d   1     -42.389-120.979 -51.675  0.00  0.00    -0.257 OA
BRANCH  21  23
ATOM     23  O   UNL d   1     -41.172-120.459 -51.174  0.00  0.00    -0.295 OA
ATOM     24  C   UNL d   1     -41.123-119.675 -51.388  0.00  0.00     0.185 C 
ENDBRANCH  21  23
ENDBRANCH  20  21
ENDBRANCH   2  20
TORSDOF 5
ENDMDL
