MODEL 1
REMARK VINA RESULT:      33.9      0.000      0.000
REMARK  3 active torsions:
REMARK  status: ('A' for Active; 'I' for Inactive)
REMARK    1  A    between atoms: N_3  and  S_1 
REMARK    2  A    between atoms: C_8  and  S_1 
REMARK    3  A    between atoms: C_2  and  N_3 
ROOT
ATOM      1  S   UNL d   1      58.845  49.679  50.602  0.00  0.00     0.287 S 
ATOM      2  O   UNL d   1      59.258  49.704  49.888  0.00  0.00    -0.198 OA
ATOM      3  O   UNL d   1      58.440  49.655  51.323  0.00  0.00    -0.198 OA
ENDROOT
BRANCH   1   4
ATOM      4  N   UNL d   1      58.127  49.691  50.194  0.00  0.00    -0.131 NA
BRANCH   4   5
ATOM      5  C   UNL d   1      57.393  49.324  50.291  0.00  0.00     0.219 A 
ATOM      6  C   UNL d   1      57.243  48.517  50.215  0.00  0.00     0.064 A 
ATOM      7  C   UNL d   1      56.436  48.395  50.359  0.00  0.00     0.112 A 
ATOM      8  C   UNL d   1      57.799  47.930  50.028  0.00  0.00     0.005 C 
ATOM      9  C   UNL d   1      56.047  47.665  50.340  0.00  0.00     0.023 C 
ATOM     10  N   UNL d   1      56.093  49.129  50.524  0.00  0.00    -0.125 NA
ATOM     11  O   UNL d   1      56.686  49.706  50.482  0.00  0.00    -0.191 OA
ENDBRANCH   4   5
ENDBRANCH   1   4
BRANCH   1  12
ATOM     12  C   UNL d   1      59.564  49.668  51.012  0.00  0.00     0.105 A 
ATOM     13  C   UNL d   1      60.275  49.619  50.596  0.00  0.00     0.015 A 
ATOM     14  C   UNL d   1      60.983  49.608  50.999  0.00  0.00     0.022 A 
ATOM     15  C   UNL d   1      60.996  49.645  51.812  0.00  0.00     0.103 A 
ATOM     16  C   UNL d   1      60.289  49.694  52.229  0.00  0.00     0.022 A 
ATOM     17  N   UNL d   1      61.714  49.634  52.221  0.00  0.00    -0.148 N 
ATOM     18  C   UNL d   1      59.577  49.705  51.824  0.00  0.00     0.015 A 
ENDBRANCH   1  12
TORSDOF 3
ENDMDL
