MODEL 1
REMARK VINA RESULT:      -4.1      0.000      0.000
REMARK  5 active torsions:
REMARK  status: ('A' for Active; 'I' for Inactive)
REMARK    1  A    between atoms: C_9  and  S_1 
REMARK    2  A    between atoms: C_14  and  S_1 
REMARK    3  A    between atoms: C_7  and  C_10 
REMARK       I    between atoms: N_11  and  C_7 
REMARK    4  A    between atoms: C_10  and  C_9 
REMARK    5  A    between atoms: C_15  and  N_11 
ROOT
ATOM      1  C   UNL d   1      57.321   0.118  31.344  0.00  0.00     0.280 C 
ATOM      2  N   UNL d   1      57.655   0.622  30.777  0.00  0.00    -0.208 NA
ATOM      3  O   UNL d   1      57.475  -0.701  31.304  0.00  0.00    -0.265 OA
ENDROOT
BRANCH   1   4
ATOM      4  C   UNL d   1      56.848   0.412  31.936  0.00  0.00     0.075 C 
BRANCH   4   5
ATOM      5  C   UNL d   1      56.585  -0.043  32.461  0.00  0.00     0.104 C 
BRANCH   5   6
ATOM      6  S   UNL d   1      56.109   0.138  33.125  0.00  0.00     0.211 S 
ATOM      7  O   UNL d   1      55.423  -0.061  32.699  0.00  0.00    -0.217 OA
ATOM      8  O   UNL d   1      56.808   0.340  33.556  0.00  0.00    -0.217 OA
BRANCH   6   9
ATOM      9  C   UNL d   1      55.646   0.319  33.786  0.00  0.00     0.088 A 
ATOM     10  C   UNL d   1      55.998   0.420  34.525  0.00  0.00     0.011 A 
ATOM     11  C   UNL d   1      55.535   0.602  35.188  0.00  0.00     0.001 A 
ATOM     12  C   UNL d   1      54.719   0.681  35.105  0.00  0.00     0.000 A 
ATOM     13  C   UNL d   1      54.355   0.583  34.370  0.00  0.00     0.001 A 
ATOM     14  C   UNL d   1      54.823   0.400  33.707  0.00  0.00     0.011 A 
ENDBRANCH   6   9
ENDBRANCH   5   6
ENDBRANCH   4   5
ENDBRANCH   1   4
BRANCH   2  15
ATOM     15  C   UNL d   1      58.134   0.329  30.178  0.00  0.00     0.085 A 
ATOM     16  C   UNL d   1      58.939   0.259  30.294  0.00  0.00     0.027 A 
ATOM     17  C   UNL d   1      59.407  -0.034  29.691  0.00  0.00     0.050 A 
ATOM     18  S   UNL d   1      60.222  -0.169  29.636  0.00  0.00    -0.066 SA
ATOM     19  C   UNL d   1      59.065  -0.259  28.964  0.00  0.00     0.088 A 
ATOM     20  C   UNL d   1      60.391  -0.474  28.889  0.00  0.00     0.111 A 
ATOM     21  C   UNL d   1      61.133  -0.685  28.606  0.00  0.00     0.028 C 
ATOM     22  N   UNL d   1      59.662  -0.528  28.473  0.00  0.00    -0.239 NA
ATOM     23  C   UNL d   1      58.262  -0.187  28.854  0.00  0.00     0.021 A 
ATOM     24  C   UNL d   1      57.795   0.105  29.458  0.00  0.00     0.021 A 
ENDBRANCH   2  15
TORSDOF 5
ENDMDL
MODEL 2
REMARK VINA RESULT:      -3.2      1.434      5.728
REMARK  5 active torsions:
REMARK  status: ('A' for Active; 'I' for Inactive)
REMARK    1  A    between atoms: C_9  and  S_1 
REMARK    2  A    between atoms: C_14  and  S_1 
REMARK    3  A    between atoms: C_7  and  C_10 
REMARK       I    between atoms: N_11  and  C_7 
REMARK    4  A    between atoms: C_10  and  C_9 
REMARK    5  A    between atoms: C_15  and  N_11 
ROOT
ATOM      1  C   UNL d   1      57.303  -0.082  31.275  0.00  0.00     0.280 C 
ATOM      2  N   UNL d   1      57.276   0.583  31.770  0.00  0.00    -0.208 NA
ATOM      3  O   UNL d   1      56.894  -0.774  31.499  0.00  0.00    -0.265 OA
ENDROOT
BRANCH   1   4
ATOM      4  C   UNL d   1      57.722  -0.066  30.579  0.00  0.00     0.075 C 
BRANCH   4   5
ATOM      5  C   UNL d   1      57.833  -0.696  30.200  0.00  0.00     0.104 C 
BRANCH   5   6
ATOM      6  S   UNL d   1      58.504  -0.933  29.759  0.00  0.00     0.211 S 
ATOM      7  O   UNL d   1      58.540  -0.184  29.397  0.00  0.00    -0.217 OA
ATOM      8  O   UNL d   1      58.464  -1.691  30.127  0.00  0.00    -0.217 OA
BRANCH   6   9
ATOM      9  C   UNL d   1      59.166  -1.173  29.326  0.00  0.00     0.088 A 
ATOM     10  C   UNL d   1      59.809  -0.664  29.234  0.00  0.00     0.011 A 
ATOM     11  C   UNL d   1      60.474  -0.904  28.800  0.00  0.00     0.001 A 
ATOM     12  C   UNL d   1      60.489  -1.655  28.462  0.00  0.00     0.000 A 
ATOM     13  C   UNL d   1      59.852  -2.173  28.547  0.00  0.00     0.001 A 
ATOM     14  C   UNL d   1      59.186  -1.929  28.982  0.00  0.00     0.011 A 
ENDBRANCH   6   9
ENDBRANCH   5   6
ENDBRANCH   4   5
ENDBRANCH   1   4
BRANCH   2  15
ATOM     15  C   UNL d   1      56.855   0.571  32.474  0.00  0.00     0.085 A 
ATOM     16  C   UNL d   1      56.040   0.639  32.465  0.00  0.00     0.027 A 
ATOM     17  C   UNL d   1      55.630   0.627  33.172  0.00  0.00     0.050 A 
ATOM     18  S   UNL d   1      54.822   0.682  33.346  0.00  0.00    -0.066 SA
ATOM     19  C   UNL d   1      56.039   0.546  33.896  0.00  0.00     0.088 A 
ATOM     20  C   UNL d   1      54.723   0.637  34.164  0.00  0.00     0.111 A 
ATOM     21  C   UNL d   1      54.009   0.669  34.570  0.00  0.00     0.028 C 
ATOM     22  N   UNL d   1      55.489   0.552  34.501  0.00  0.00    -0.239 NA
ATOM     23  C   UNL d   1      56.850   0.479  33.898  0.00  0.00     0.021 A 
ATOM     24  C   UNL d   1      57.260   0.491  33.191  0.00  0.00     0.021 A 
ENDBRANCH   2  15
TORSDOF 5
ENDMDL
MODEL 3
REMARK VINA RESULT:      -2.5      1.910      5.872
REMARK  5 active torsions:
REMARK  status: ('A' for Active; 'I' for Inactive)
REMARK    1  A    between atoms: C_9  and  S_1 
REMARK    2  A    between atoms: C_14  and  S_1 
REMARK    3  A    between atoms: C_7  and  C_10 
REMARK       I    between atoms: N_11  and  C_7 
REMARK    4  A    between atoms: C_10  and  C_9 
REMARK    5  A    between atoms: C_15  and  N_11 
ROOT
ATOM      1  C   UNL d   1      57.948  -0.735  30.368  0.00  0.00     0.280 C 
ATOM      2  N   UNL d   1      57.337  -0.993  30.864  0.00  0.00    -0.208 NA
ATOM      3  O   UNL d   1      58.332  -0.012  30.534  0.00  0.00    -0.265 OA
ENDROOT
BRANCH   1   4
ATOM      4  C   UNL d   1      58.177  -1.176  29.724  0.00  0.00     0.075 C 
BRANCH   4   5
ATOM      5  C   UNL d   1      58.892  -1.194  29.522  0.00  0.00     0.104 C 
BRANCH   5   6
ATOM      6  S   UNL d   1      59.347  -1.844  29.257  0.00  0.00     0.211 S 
ATOM      7  O   UNL d   1      59.826  -1.795  29.936  0.00  0.00    -0.217 OA
ATOM      8  O   UNL d   1      58.860  -1.891  28.569  0.00  0.00    -0.217 OA
BRANCH   6   9
ATOM      9  C   UNL d   1      59.794  -2.487  28.990  0.00  0.00     0.088 A 
ATOM     10  C   UNL d   1      59.424  -3.202  28.811  0.00  0.00     0.011 A 
ATOM     11  C   UNL d   1      59.870  -3.848  28.542  0.00  0.00     0.001 A 
ATOM     12  C   UNL d   1      60.685  -3.771  28.455  0.00  0.00     0.000 A 
ATOM     13  C   UNL d   1      61.066  -3.060  28.631  0.00  0.00     0.001 A 
ATOM     14  C   UNL d   1      60.616  -2.414  28.900  0.00  0.00     0.011 A 
ENDBRANCH   6   9
ENDBRANCH   5   6
ENDBRANCH   4   5
ENDBRANCH   1   4
BRANCH   2  15
ATOM     15  C   UNL d   1      57.104  -0.550  31.515  0.00  0.00     0.085 A 
ATOM     16  C   UNL d   1      56.449  -0.776  31.950  0.00  0.00     0.027 A 
ATOM     17  C   UNL d   1      56.225  -0.328  32.597  0.00  0.00     0.050 A 
ATOM     18  S   UNL d   1      55.603  -0.407  33.137  0.00  0.00    -0.066 SA
ATOM     19  C   UNL d   1      56.660   0.352  32.810  0.00  0.00     0.088 A 
ATOM     20  C   UNL d   1      55.645   0.211  33.682  0.00  0.00     0.111 A 
ATOM     21  C   UNL d   1      55.133   0.340  34.312  0.00  0.00     0.028 C 
ATOM     22  N   UNL d   1      56.309   0.682  33.471  0.00  0.00    -0.239 NA
ATOM     23  C   UNL d   1      57.311   0.570  32.373  0.00  0.00     0.021 A 
ATOM     24  C   UNL d   1      57.535   0.123  31.727  0.00  0.00     0.021 A 
ENDBRANCH   2  15
TORSDOF 5
ENDMDL
