MODEL 1
REMARK VINA RESULT:      -7.6      0.000      0.000
REMARK  9 active torsions:
REMARK  status: ('A' for Active; 'I' for Inactive)
REMARK    1  A    between atoms: C_7  and  N_1 
REMARK    2  A    between atoms: C_8  and  C_3 
REMARK    3  A    between atoms: O_9  and  C_6 
REMARK    4  A    between atoms: O_19  and  C_8 
REMARK    5  A    between atoms: C_18  and  O_9 
REMARK    6  A    between atoms: C_10  and  C_18 
REMARK       I    between atoms: N_11  and  C_10 
REMARK    7  A    between atoms: C_14  and  N_11 
REMARK    8  A    between atoms: C_28  and  O_19 
REMARK    9  A    between atoms: O_23  and  C_20 
ROOT
ATOM      1  N   UNL d   1      53.475  33.677  54.196  0.00  0.00    -0.194 N 
ATOM      2  N   UNL d   1      53.273  32.997  53.771  0.00  0.00    -0.155 NA
ATOM      3  C   UNL d   1      52.589  32.993  53.316  0.00  0.00     0.187 A 
ATOM      4  C   UNL d   1      52.991  34.345  54.162  0.00  0.00     0.282 A 
ATOM      5  C   UNL d   1      52.306  34.333  53.703  0.00  0.00     0.089 A 
ATOM      6  C   UNL d   1      52.106  33.660  53.282  0.00  0.00     0.130 A 
ATOM      7  O   UNL d   1      53.192  35.021  54.586  0.00  0.00    -0.265 OA
ENDROOT
BRANCH   6   8
ATOM      8  O   UNL d   1      51.421  33.649  52.823  0.00  0.00    -0.298 OA
BRANCH   8   9
ATOM      9  C   UNL d   1      50.777  34.115  53.027  0.00  0.00     0.185 C 
BRANCH   9  10
ATOM     10  C   UNL d   1      50.245  34.354  52.441  0.00  0.00     0.304 C 
ATOM     11  N   UNL d   1      49.456  34.489  52.634  0.00  0.00    -0.206 NA
ATOM     12  O   UNL d   1      50.504  34.457  51.670  0.00  0.00    -0.263 OA
BRANCH  11  13
ATOM     13  C   UNL d   1      48.924  34.728  52.048  0.00  0.00     0.087 A 
ATOM     14  C   UNL d   1      48.419  35.352  52.179  0.00  0.00     0.043 A 
ATOM     15  C   UNL d   1      47.888  35.599  51.607  0.00  0.00     0.096 A 
ATOM     16  C   UNL d   1      47.866  35.205  50.882  0.00  0.00     0.024 A 
ATOM     17  C   UNL d   1      48.376  34.571  50.744  0.00  0.00     0.004 A 
ATOM     18  C   UNL d   1      48.902  34.334  51.324  0.00  0.00     0.019 A 
BRANCH  15  19
ATOM     19  O   UNL d   1      47.386  36.229  51.755  0.00  0.00    -0.328 OA
ATOM     20  C   UNL d   1      46.592  36.081  51.932  0.00  0.00     0.181 C 
ENDBRANCH  15  19
ENDBRANCH  11  13
ENDBRANCH   9  10
ENDBRANCH   8   9
ENDBRANCH   6   8
BRANCH   3  21
ATOM     21  C   UNL d   1      52.390  32.320  52.895  0.00  0.00     0.322 C 
ATOM     22  O   UNL d   1      52.335  32.348  52.072  0.00  0.00    -0.257 OA
BRANCH  21  23
ATOM     23  O   UNL d   1      52.241  31.605  53.288  0.00  0.00    -0.270 OA
BRANCH  23  24
ATOM     24  C   UNL d   1      52.423  30.890  52.934  0.00  0.00     0.126 C 
ATOM     25  C   UNL d   1      52.394  30.192  53.373  0.00  0.00     0.029 C 
ENDBRANCH  23  24
ENDBRANCH  21  23
ENDBRANCH   3  21
BRANCH   1  26
ATOM     26  C   UNL d   1      54.159  33.685  54.653  0.00  0.00     0.097 A 
ATOM     27  C   UNL d   1      54.908  33.667  54.282  0.00  0.00     0.075 A 
ATOM     28 CL   UNL d   1      54.956  33.642  53.466  0.00  0.00    -0.081 Cl
ATOM     29  C   UNL d   1      55.584  33.676  54.743  0.00  0.00     0.013 A 
ATOM     30  C   UNL d   1      55.536  33.702  55.567  0.00  0.00     0.001 A 
ATOM     31  C   UNL d   1      54.787  33.719  55.931  0.00  0.00     0.002 A 
ATOM     32  C   UNL d   1      54.103  33.711  55.469  0.00  0.00     0.020 A 
ENDBRANCH   1  26
TORSDOF 9
ENDMDL
MODEL 2
REMARK VINA RESULT:      -7.3      1.593      2.760
REMARK  9 active torsions:
REMARK  status: ('A' for Active; 'I' for Inactive)
REMARK    1  A    between atoms: C_7  and  N_1 
REMARK    2  A    between atoms: C_8  and  C_3 
REMARK    3  A    between atoms: O_9  and  C_6 
REMARK    4  A    between atoms: O_19  and  C_8 
REMARK    5  A    between atoms: C_18  and  O_9 
REMARK    6  A    between atoms: C_10  and  C_18 
REMARK       I    between atoms: N_11  and  C_10 
REMARK    7  A    between atoms: C_14  and  N_11 
REMARK    8  A    between atoms: C_28  and  O_19 
REMARK    9  A    between atoms: O_23  and  C_20 
ROOT
ATOM      1  N   UNL d   1      52.338  32.381  53.228  0.00  0.00    -0.194 N 
ATOM      2  N   UNL d   1      52.662  33.142  53.234  0.00  0.00    -0.155 NA
ATOM      3  C   UNL d   1      52.165  33.793  53.196  0.00  0.00     0.187 A 
ATOM      4  C   UNL d   1      51.521  32.280  53.184  0.00  0.00     0.282 A 
ATOM      5  C   UNL d   1      51.027  32.939  53.146  0.00  0.00     0.089 A 
ATOM      6  C   UNL d   1      51.347  33.693  53.152  0.00  0.00     0.130 A 
ATOM      7  O   UNL d   1      51.199  31.522  53.178  0.00  0.00    -0.265 OA
ENDROOT
BRANCH   6   8
ATOM      8  O   UNL d   1      50.853  34.352  53.114  0.00  0.00    -0.298 OA
BRANCH   8   9
ATOM      9  C   UNL d   1      50.125  34.304  52.737  0.00  0.00     0.185 C 
BRANCH   9  10
ATOM     10  C   UNL d   1      49.549  34.877  52.889  0.00  0.00     0.304 C 
ATOM     11  N   UNL d   1      48.908  34.958  52.379  0.00  0.00    -0.206 NA
ATOM     12  O   UNL d   1      49.618  35.363  53.545  0.00  0.00    -0.263 OA
BRANCH  11  13
ATOM     13  C   UNL d   1      48.332  35.531  52.530  0.00  0.00     0.087 A 
ATOM     14  C   UNL d   1      47.720  35.650  52.007  0.00  0.00     0.043 A 
ATOM     15  C   UNL d   1      47.144  36.214  52.146  0.00  0.00     0.096 A 
ATOM     16  C   UNL d   1      47.185  36.672  52.831  0.00  0.00     0.024 A 
ATOM     17  C   UNL d   1      47.804  36.556  53.365  0.00  0.00     0.004 A 
ATOM     18  C   UNL d   1      48.374  35.989  53.215  0.00  0.00     0.019 A 
BRANCH  15  19
ATOM     19  O   UNL d   1      46.534  36.321  51.610  0.00  0.00    -0.328 OA
ATOM     20  C   UNL d   1      45.753  36.340  51.883  0.00  0.00     0.181 C 
ENDBRANCH  15  19
ENDBRANCH  11  13
ENDBRANCH   9  10
ENDBRANCH   8   9
ENDBRANCH   6   8
BRANCH   3  21
ATOM     21  C   UNL d   1      52.485  34.546  53.202  0.00  0.00     0.322 C 
ATOM     22  O   UNL d   1      52.693  34.913  52.492  0.00  0.00    -0.257 OA
BRANCH  21  23
ATOM     23  O   UNL d   1      52.603  34.949  53.917  0.00  0.00    -0.270 OA
BRANCH  23  24
ATOM     24  C   UNL d   1      53.178  35.529  53.978  0.00  0.00     0.126 C 
ATOM     25  C   UNL d   1      53.243  35.975  54.669  0.00  0.00     0.029 C 
ENDBRANCH  23  24
ENDBRANCH  21  23
ENDBRANCH   3  21
BRANCH   1  26
ATOM     26  C   UNL d   1      52.834  31.725  53.266  0.00  0.00     0.097 A 
ATOM     27  C   UNL d   1      53.332  31.617  53.929  0.00  0.00     0.075 A 
ATOM     28 CL   UNL d   1      53.324  32.165  54.537  0.00  0.00    -0.081 Cl
ATOM     29  C   UNL d   1      53.823  30.963  53.960  0.00  0.00     0.013 A 
ATOM     30  C   UNL d   1      53.832  30.410  53.346  0.00  0.00     0.001 A 
ATOM     31  C   UNL d   1      53.334  30.523  52.689  0.00  0.00     0.002 A 
ATOM     32  C   UNL d   1      52.838  31.182  52.655  0.00  0.00     0.020 A 
ENDBRANCH   1  26
TORSDOF 9
ENDMDL
MODEL 3
REMARK VINA RESULT:      -6.6      1.541      3.094
REMARK  9 active torsions:
REMARK  status: ('A' for Active; 'I' for Inactive)
REMARK    1  A    between atoms: C_7  and  N_1 
REMARK    2  A    between atoms: C_8  and  C_3 
REMARK    3  A    between atoms: O_9  and  C_6 
REMARK    4  A    between atoms: O_19  and  C_8 
REMARK    5  A    between atoms: C_18  and  O_9 
REMARK    6  A    between atoms: C_10  and  C_18 
REMARK       I    between atoms: N_11  and  C_10 
REMARK    7  A    between atoms: C_14  and  N_11 
REMARK    8  A    between atoms: C_28  and  O_19 
REMARK    9  A    between atoms: O_23  and  C_20 
ROOT
ATOM      1  N   UNL d   1      53.099  30.782  53.842  0.00  0.00    -0.194 N 
ATOM      2  N   UNL d   1      53.618  31.412  53.977  0.00  0.00    -0.155 NA
ATOM      3  C   UNL d   1      53.427  32.161  53.701  0.00  0.00     0.187 A 
ATOM      4  C   UNL d   1      52.394  30.909  53.432  0.00  0.00     0.282 A 
ATOM      5  C   UNL d   1      52.208  31.664  53.157  0.00  0.00     0.089 A 
ATOM      6  C   UNL d   1      52.723  32.288  53.291  0.00  0.00     0.130 A 
ATOM      7  O   UNL d   1      51.877  30.283  53.298  0.00  0.00    -0.265 OA
ENDROOT
BRANCH   6   8
ATOM      8  O   UNL d   1      52.537  33.043  53.017  0.00  0.00    -0.298 OA
BRANCH   8   9
ATOM      9  C   UNL d   1      51.970  33.144  52.431  0.00  0.00     0.185 C 
BRANCH   9  10
ATOM     10  C   UNL d   1      51.426  33.763  52.494  0.00  0.00     0.304 C 
ATOM     11  N   UNL d   1      50.623  33.597  52.563  0.00  0.00    -0.206 NA
ATOM     12  O   UNL d   1      51.687  34.540  52.486  0.00  0.00    -0.263 OA
BRANCH  11  13
ATOM     13  C   UNL d   1      50.079  34.216  52.625  0.00  0.00     0.087 A 
ATOM     14  C   UNL d   1      49.563  34.376  52.016  0.00  0.00     0.043 A 
ATOM     15  C   UNL d   1      49.020  34.986  52.066  0.00  0.00     0.096 A 
ATOM     16  C   UNL d   1      48.995  35.448  52.749  0.00  0.00     0.024 A 
ATOM     17  C   UNL d   1      49.516  35.291  53.370  0.00  0.00     0.004 A 
ATOM     18  C   UNL d   1      50.054  34.678  53.308  0.00  0.00     0.019 A 
BRANCH  15  19
ATOM     19  O   UNL d   1      48.508  35.133  51.444  0.00  0.00    -0.328 OA
ATOM     20  C   UNL d   1      47.768  35.467  51.599  0.00  0.00     0.181 C 
ENDBRANCH  15  19
ENDBRANCH  11  13
ENDBRANCH   9  10
ENDBRANCH   8   9
ENDBRANCH   6   8
BRANCH   3  21
ATOM     21  C   UNL d   1      53.941  32.783  53.834  0.00  0.00     0.322 C 
ATOM     22  O   UNL d   1      54.406  33.076  53.218  0.00  0.00    -0.257 OA
BRANCH  21  23
ATOM     23  O   UNL d   1      54.002  33.126  54.587  0.00  0.00    -0.270 OA
BRANCH  23  24
ATOM     24  C   UNL d   1      54.652  33.584  54.786  0.00  0.00     0.126 C 
ATOM     25  C   UNL d   1      54.787  33.789  55.573  0.00  0.00     0.029 C 
ENDBRANCH  23  24
ENDBRANCH  21  23
ENDBRANCH   3  21
BRANCH   1  26
ATOM     26  C   UNL d   1      53.287  30.030  54.117  0.00  0.00     0.097 A 
ATOM     27  C   UNL d   1      53.797  29.539  53.672  0.00  0.00     0.075 A 
ATOM     28 CL   UNL d   1      54.106  29.810  52.964  0.00  0.00    -0.081 Cl
ATOM     29  C   UNL d   1      53.980  28.792  53.952  0.00  0.00     0.013 A 
ATOM     30  C   UNL d   1      53.668  28.519  54.667  0.00  0.00     0.001 A 
ATOM     31  C   UNL d   1      53.161  29.013  55.105  0.00  0.00     0.002 A 
ATOM     32  C   UNL d   1      52.975  29.766  54.825  0.00  0.00     0.020 A 
ENDBRANCH   1  26
TORSDOF 9
ENDMDL
MODEL 4
REMARK VINA RESULT:      -5.7      2.031      5.813
REMARK  9 active torsions:
REMARK  status: ('A' for Active; 'I' for Inactive)
REMARK    1  A    between atoms: C_7  and  N_1 
REMARK    2  A    between atoms: C_8  and  C_3 
REMARK    3  A    between atoms: O_9  and  C_6 
REMARK    4  A    between atoms: O_19  and  C_8 
REMARK    5  A    between atoms: C_18  and  O_9 
REMARK    6  A    between atoms: C_10  and  C_18 
REMARK       I    between atoms: N_11  and  C_10 
REMARK    7  A    between atoms: C_14  and  N_11 
REMARK    8  A    between atoms: C_28  and  O_19 
REMARK    9  A    between atoms: O_23  and  C_20 
ROOT
ATOM      1  N   UNL d   1      50.128  34.495  52.839  0.00  0.00    -0.194 N 
ATOM      2  N   UNL d   1      50.845  34.883  52.978  0.00  0.00    -0.155 NA
ATOM      3  C   UNL d   1      51.528  34.442  53.094  0.00  0.00     0.187 A 
ATOM      4  C   UNL d   1      50.102  33.671  52.816  0.00  0.00     0.282 A 
ATOM      5  C   UNL d   1      50.792  33.234  52.933  0.00  0.00     0.089 A 
ATOM      6  C   UNL d   1      51.502  33.618  53.071  0.00  0.00     0.130 A 
ATOM      7  O   UNL d   1      49.388  33.285  52.677  0.00  0.00    -0.265 OA
ENDROOT
BRANCH   6   8
ATOM      8  O   UNL d   1      52.192  33.182  53.187  0.00  0.00    -0.298 OA
BRANCH   8   9
ATOM      9  C   UNL d   1      52.317  32.484  52.773  0.00  0.00     0.185 C 
BRANCH   9  10
ATOM     10  C   UNL d   1      52.761  31.878  53.118  0.00  0.00     0.304 C 
ATOM     11  N   UNL d   1      52.642  31.099  52.883  0.00  0.00    -0.206 NA
ATOM     12  O   UNL d   1      53.319  32.056  53.692  0.00  0.00    -0.263 OA
BRANCH  11  13
ATOM     13  C   UNL d   1      53.087  30.493  53.228  0.00  0.00     0.087 A 
ATOM     14  C   UNL d   1      52.753  30.001  53.784  0.00  0.00     0.043 A 
ATOM     15  C   UNL d   1      53.183  29.398  54.132  0.00  0.00     0.096 A 
ATOM     16  C   UNL d   1      53.971  29.288  53.915  0.00  0.00     0.024 A 
ATOM     17  C   UNL d   1      54.315  29.784  53.352  0.00  0.00     0.004 A 
ATOM     18  C   UNL d   1      53.875  30.383  53.010  0.00  0.00     0.019 A 
BRANCH  15  19
ATOM     19  O   UNL d   1      52.832  28.911  54.690  0.00  0.00    -0.328 OA
ATOM     20  C   UNL d   1      53.305  28.539  55.256  0.00  0.00     0.181 C 
ENDBRANCH  15  19
ENDBRANCH  11  13
ENDBRANCH   9  10
ENDBRANCH   8   9
ENDBRANCH   6   8
BRANCH   3  21
ATOM     21  C   UNL d   1      52.237  34.826  53.232  0.00  0.00     0.322 C 
ATOM     22  O   UNL d   1      52.755  34.976  52.607  0.00  0.00    -0.257 OA
BRANCH  21  23
ATOM     23  O   UNL d   1      52.444  35.068  53.997  0.00  0.00    -0.270 OA
BRANCH  23  24
ATOM     24  C   UNL d   1      53.067  35.586  54.117  0.00  0.00     0.126 C 
ATOM     25  C   UNL d   1      53.231  35.867  54.875  0.00  0.00     0.029 C 
ENDBRANCH  23  24
ENDBRANCH  21  23
ENDBRANCH   3  21
BRANCH   1  26
ATOM     26  C   UNL d   1      49.441  34.934  52.723  0.00  0.00     0.097 A 
ATOM     27  C   UNL d   1      49.134  35.031  51.951  0.00  0.00     0.075 A 
ATOM     28 CL   UNL d   1      49.519  34.688  51.315  0.00  0.00    -0.081 Cl
ATOM     29  C   UNL d   1      48.451  35.468  51.844  0.00  0.00     0.013 A 
ATOM     30  C   UNL d   1      48.063  35.814  52.486  0.00  0.00     0.001 A 
ATOM     31  C   UNL d   1      48.374  35.714  53.252  0.00  0.00     0.002 A 
ATOM     32  C   UNL d   1      49.063  35.273  53.364  0.00  0.00     0.020 A 
ENDBRANCH   1  26
TORSDOF 9
ENDMDL
