MODEL 1
REMARK VINA RESULT:       2.8      0.000      0.000
REMARK  5 active torsions:
REMARK  status: ('A' for Active; 'I' for Inactive)
REMARK    1  A    between atoms: C_10  and  C_1 
REMARK    2  A    between atoms: C_16  and  C_2 
REMARK    3  A    between atoms: C_7  and  C_14 
REMARK    4  A    between atoms: C_13  and  C_10 
REMARK    5  A    between atoms: C_14  and  C_13 
ROOT
ATOM      1  C   UNL d   1      57.522   0.305  32.609  0.00  0.00     0.097 A 
ATOM      2  C   UNL d   1      57.026   0.204  33.288  0.00  0.00     0.009 A 
ATOM      3  C   UNL d   1      58.306   0.527  32.698  0.00  0.00     0.282 A 
ATOM      4  C   UNL d   1      57.353   0.331  34.015  0.00  0.00     0.019 A 
ATOM      5  N   UNL d   1      58.628   0.655  33.471  0.00  0.00    -0.208 NA
ATOM      6  C   UNL d   1      58.138   0.553  34.105  0.00  0.00     0.085 A 
ATOM      7  C   UNL d   1      56.859   0.229  34.684  0.00  0.00     0.013 A 
ATOM      8  C   UNL d   1      58.461   0.681  34.868  0.00  0.00     0.020 A 
ATOM      9  O   UNL d   1      58.801   0.629  32.029  0.00  0.00    -0.265 OA
ATOM     10  C   UNL d   1      57.181   0.358  35.457  0.00  0.00     0.058 A 
ATOM     11  C   UNL d   1      57.965   0.579  35.547  0.00  0.00     0.013 A 
ATOM     12 CL   UNL d   1      56.687   0.255  36.127  0.00  0.00    -0.082 Cl
ENDROOT
BRANCH   1  13
ATOM     13  C   UNL d   1      57.199   0.177  31.845  0.00  0.00     0.200 C 
ATOM     14  O   UNL d   1      56.545   0.651  31.563  0.00  0.00    -0.286 OA
BRANCH  13  15
ATOM     15  C   UNL d   1      57.502  -0.404  31.352  0.00  0.00     0.045 C 
BRANCH  15  16
ATOM     16  C   UNL d   1      57.501  -0.351  30.517  0.00  0.00     0.042 C 
BRANCH  16  17
ATOM     17  C   UNL d   1      57.929  -0.893  30.042  0.00  0.00     0.163 A 
ATOM     18  N   UNL d   1      58.493  -0.778  29.467  0.00  0.00    -0.225 NA
ATOM     19  C   UNL d   1      58.710  -1.523  29.199  0.00  0.00     0.101 A 
ATOM     20  C   UNL d   1      59.256  -1.740  28.623  0.00  0.00     0.021 A 
ATOM     21  C   UNL d   1      58.300  -2.076  29.590  0.00  0.00     0.101 A 
ATOM     22  C   UNL d   1      59.367  -2.559  28.460  0.00  0.00     0.002 A 
ATOM     23  C   UNL d   1      58.927  -3.106  28.882  0.00  0.00     0.002 A 
ATOM     24  C   UNL d   1      58.395  -2.837  29.447  0.00  0.00     0.021 A 
ATOM     25  N   UNL d   1      57.779  -1.693  30.150  0.00  0.00    -0.225 NA
ENDBRANCH  16  17
ENDBRANCH  15  16
ENDBRANCH  13  15
ENDBRANCH   1  13
BRANCH   2  26
ATOM     26  C   UNL d   1      56.208  -0.028  33.194  0.00  0.00     0.000 A 
ATOM     27  C   UNL d   1      55.635   0.565  33.240  0.00  0.00     0.000 A 
ATOM     28  C   UNL d   1      54.839   0.387  33.155  0.00  0.00     0.000 A 
ATOM     29  C   UNL d   1      54.648  -0.468  33.015  0.00  0.00     0.000 A 
ATOM     30  C   UNL d   1      55.217  -1.015  32.975  0.00  0.00     0.000 A 
ATOM     31  C   UNL d   1      56.035  -0.784  33.069  0.00  0.00     0.000 A 
ENDBRANCH   2  26
TORSDOF 5
ENDMDL
