MODEL 1
REMARK VINA RESULT:       8.7      0.000      0.000
REMARK  2 active torsions:
REMARK  status: ('A' for Active; 'I' for Inactive)
REMARK    1  A    between atoms: C_6  and  C_1 
REMARK    2  A    between atoms: C_7  and  C_5 
ROOT
ATOM      1  C   UNL d   1      13.467  11.876  -4.710  0.00  0.00     0.169 A 
ATOM      2  C   UNL d   1      14.134  11.878  -4.357  0.00  0.00     0.048 A 
ATOM      3  N   UNL d   1      12.852  11.851  -3.549  0.00  0.00    -0.148 NA
ATOM      4  N   UNL d   1      12.821  11.862  -4.311  0.00  0.00    -0.142 NA
ATOM      5  C   UNL d   1      13.519  11.854  -3.196  0.00  0.00     0.105 A 
ENDROOT
BRANCH   5   6
ATOM      6  C   UNL d   1      13.764  11.846  -2.410  0.00  0.00     0.019 A 
ATOM      7  C   UNL d   1      14.570  11.894  -2.221  0.00  0.00     0.002 A 
ATOM      8  C   UNL d   1      14.817  11.886  -1.430  0.00  0.00     0.000 A 
ATOM      9  C   UNL d   1      14.255  11.829  -0.823  0.00  0.00     0.000 A 
ATOM     10  C   UNL d   1      13.442  11.780  -1.015  0.00  0.00     0.000 A 
ATOM     11  C   UNL d   1      14.493  11.820  -0.041  0.00  0.00     0.000 C 
ATOM     12  C   UNL d   1      13.205  11.789  -1.806  0.00  0.00     0.002 A 
ENDBRANCH   5   6
BRANCH   1  13
ATOM     13  C   UNL d   1      13.436  11.886  -5.473  0.00  0.00     0.231 C 
ATOM     14  O   UNL d   1      12.776  11.788  -5.829  0.00  0.00    -0.643 OA
ATOM     15  O   UNL d   1      14.074  11.996  -5.870  0.00  0.00    -0.643 OA
ENDBRANCH   1  13
TORSDOF 2
ENDMDL
MODEL 2
REMARK VINA RESULT:      11.4      2.570      3.862
REMARK  2 active torsions:
REMARK  status: ('A' for Active; 'I' for Inactive)
REMARK    1  A    between atoms: C_6  and  C_1 
REMARK    2  A    between atoms: C_7  and  C_5 
ROOT
ATOM      1  C   UNL d   1      14.883  12.675  -1.094  0.00  0.00     0.169 A 
ATOM      2  C   UNL d   1      14.872  13.127  -1.699  0.00  0.00     0.048 A 
ATOM      3  N   UNL d   1      14.179  11.781  -1.750  0.00  0.00    -0.148 NA
ATOM      4  N   UNL d   1      14.537  12.000  -1.113  0.00  0.00    -0.142 NA
ATOM      5  C   UNL d   1      14.167  12.233  -2.355  0.00  0.00     0.105 A 
ENDROOT
BRANCH   5   6
ATOM      6  C   UNL d   1      13.848  12.187  -3.112  0.00  0.00     0.019 A 
ATOM      7  C   UNL d   1      14.274  12.470  -3.765  0.00  0.00     0.002 A 
ATOM      8  C   UNL d   1      13.952  12.424  -4.527  0.00  0.00     0.000 A 
ATOM      9  C   UNL d   1      13.200  12.095  -4.639  0.00  0.00     0.000 A 
ATOM     10  C   UNL d   1      12.771  11.809  -3.979  0.00  0.00     0.000 A 
ATOM     11  C   UNL d   1      12.878  12.047  -5.389  0.00  0.00     0.000 C 
ATOM     12  C   UNL d   1      13.099  11.859  -3.222  0.00  0.00     0.002 A 
ENDBRANCH   5   6
BRANCH   1  13
ATOM     13  C   UNL d   1      15.242  12.895  -0.457  0.00  0.00     0.231 C 
ATOM     14  O   UNL d   1      15.654  12.399  -0.063  0.00  0.00    -0.643 OA
ATOM     15  O   UNL d   1      15.182  13.615  -0.224  0.00  0.00    -0.643 OA
ENDBRANCH   1  13
TORSDOF 2
ENDMDL
