MODEL 1
REMARK VINA RESULT:      -2.7      0.000      0.000
REMARK  4 active torsions:
REMARK  status: ('A' for Active; 'I' for Inactive)
REMARK    1  A    between atoms: N_10  and  C_1 
REMARK       I    between atoms: C_12  and  N_10 
REMARK    2  A    between atoms: C_17  and  C_12 
REMARK    3  A    between atoms: C_18  and  C_17 
REMARK    4  A    between atoms: C_19  and  C_18 
ROOT
ATOM      1  C   UNL d   1      33.119  19.557 -22.403  0.00  0.00     0.197 A 
ATOM      2  C   UNL d   1      32.817  18.634 -23.293  0.00  0.00     0.057 A 
ATOM      3  C   UNL d   1      32.601  17.980 -23.694  0.00  0.00     0.056 A 
ATOM      4  N   UNL d   1      33.241  19.892 -23.115  0.00  0.00    -0.221 NA
ATOM      5  S   UNL d   1      32.854  18.772 -22.473  0.00  0.00    -0.046 SA
ATOM      6  N   UNL d   1      32.366  17.250 -24.764  0.00  0.00    -0.238 NA
ATOM      7  S   UNL d   1      32.351  17.249 -23.461  0.00  0.00    -0.066 SA
ATOM      8  C   UNL d   1      33.052  19.313 -23.682  0.00  0.00     0.090 A 
ATOM      9  C   UNL d   1      32.608  17.972 -24.519  0.00  0.00     0.088 A 
ATOM     10  C   UNL d   1      32.199  16.778 -24.161  0.00  0.00     0.111 A 
ATOM     11  C   UNL d   1      32.838  18.638 -24.932  0.00  0.00     0.021 A 
ATOM     12  C   UNL d   1      33.064  19.322 -24.502  0.00  0.00     0.021 A 
ATOM     13  C   UNL d   1      31.933  15.990 -24.198  0.00  0.00     0.028 C 
ENDROOT
BRANCH   1  14
ATOM     14  N   UNL d   1      33.241  19.943 -21.655  0.00  0.00    -0.183 NA
ATOM     15  C   UNL d   1      32.744  20.553 -21.448  0.00  0.00     0.281 C 
ATOM     16  O   UNL d   1      32.138  20.752 -22.009  0.00  0.00    -0.265 OA
BRANCH  15  17
ATOM     17  C   UNL d   1      32.856  20.909 -20.760  0.00  0.00     0.063 C 
BRANCH  17  18
ATOM     18  C   UNL d   1      32.674  21.838 -20.684  0.00  0.00     0.005 C 
BRANCH  18  19
ATOM     19  C   UNL d   1      33.021  22.317 -19.946  0.00  0.00     0.000 C 
ATOM     20  C   UNL d   1      32.766  23.033 -19.619  0.00  0.00     0.000 C 
ENDBRANCH  18  19
ENDBRANCH  17  18
ENDBRANCH  15  17
ENDBRANCH   1  14
TORSDOF 4
ENDMDL
MODEL 2
REMARK VINA RESULT:      -2.6      1.797      5.327
REMARK  4 active torsions:
REMARK  status: ('A' for Active; 'I' for Inactive)
REMARK    1  A    between atoms: N_10  and  C_1 
REMARK       I    between atoms: C_12  and  N_10 
REMARK    2  A    between atoms: C_17  and  C_12 
REMARK    3  A    between atoms: C_18  and  C_17 
REMARK    4  A    between atoms: C_19  and  C_18 
ROOT
ATOM      1  C   UNL d   1      32.885  20.754 -21.357  0.00  0.00     0.197 A 
ATOM      2  C   UNL d   1      32.852  21.881 -20.677  0.00  0.00     0.057 A 
ATOM      3  C   UNL d   1      32.849  22.461 -20.130  0.00  0.00     0.056 A 
ATOM      4  N   UNL d   1      32.806  21.333 -21.898  0.00  0.00    -0.221 NA
ATOM      5  S   UNL d   1      32.918  21.057 -20.583  0.00  0.00    -0.046 SA
ATOM      6  N   UNL d   1      32.791  23.702 -19.696  0.00  0.00    -0.238 NA
ATOM      7  S   UNL d   1      32.906  22.458 -19.325  0.00  0.00    -0.066 SA
ATOM      8  C   UNL d   1      32.784  22.049 -21.474  0.00  0.00     0.090 A 
ATOM      9  C   UNL d   1      32.777  23.251 -20.355  0.00  0.00     0.088 A 
ATOM     10  C   UNL d   1      32.868  23.268 -19.047  0.00  0.00     0.111 A 
ATOM     11  C   UNL d   1      32.708  23.445 -21.145  0.00  0.00     0.021 A 
ATOM     12  C   UNL d   1      32.712  22.829 -21.715  0.00  0.00     0.021 A 
ATOM     13  C   UNL d   1      32.904  23.541 -18.261  0.00  0.00     0.028 C 
ENDROOT
BRANCH   1  14
ATOM     14  N   UNL d   1      32.932  19.923 -21.535  0.00  0.00    -0.183 NA
ATOM     15  C   UNL d   1      33.111  19.699 -22.296  0.00  0.00     0.281 C 
ATOM     16  O   UNL d   1      33.237  20.328 -22.854  0.00  0.00    -0.265 OA
BRANCH  15  17
ATOM     17  C   UNL d   1      33.154  18.936 -22.460  0.00  0.00     0.063 C 
BRANCH  17  18
ATOM     18  C   UNL d   1      32.796  18.618 -23.282  0.00  0.00     0.005 C 
BRANCH  18  19
ATOM     19  C   UNL d   1      32.834  17.692 -23.473  0.00  0.00     0.000 C 
ATOM     20  C   UNL d   1      32.226  17.179 -23.697  0.00  0.00     0.000 C 
ENDBRANCH  18  19
ENDBRANCH  17  18
ENDBRANCH  15  17
ENDBRANCH   1  14
TORSDOF 4
ENDMDL
MODEL 3
REMARK VINA RESULT:      -2.5      1.462      4.793
REMARK  4 active torsions:
REMARK  status: ('A' for Active; 'I' for Inactive)
REMARK    1  A    between atoms: N_10  and  C_1 
REMARK       I    between atoms: C_12  and  N_10 
REMARK    2  A    between atoms: C_17  and  C_12 
REMARK    3  A    between atoms: C_18  and  C_17 
REMARK    4  A    between atoms: C_19  and  C_18 
ROOT
ATOM      1  C   UNL d   1      33.240  19.203 -22.692  0.00  0.00     0.197 A 
ATOM      2  C   UNL d   1      33.239  20.458 -22.293  0.00  0.00     0.057 A 
ATOM      3  C   UNL d   1      33.238  21.252 -22.220  0.00  0.00     0.056 A 
ATOM      4  N   UNL d   1      33.239  19.179 -21.896  0.00  0.00    -0.221 NA
ATOM      5  S   UNL d   1      33.240  19.983 -22.978  0.00  0.00    -0.046 SA
ATOM      6  N   UNL d   1      33.237  22.398 -21.572  0.00  0.00    -0.238 NA
ATOM      7  S   UNL d   1      33.239  21.854 -22.757  0.00  0.00    -0.066 SA
ATOM      8  C   UNL d   1      33.238  19.970 -21.638  0.00  0.00     0.090 A 
ATOM      9  C   UNL d   1      33.237  21.605 -21.474  0.00  0.00     0.088 A 
ATOM     10  C   UNL d   1      33.238  22.598 -22.331  0.00  0.00     0.111 A 
ATOM     11  C   UNL d   1      33.237  21.139 -20.803  0.00  0.00     0.021 A 
ATOM     12  C   UNL d   1      33.237  20.305 -20.889  0.00  0.00     0.021 A 
ATOM     13  C   UNL d   1      33.238  23.368 -22.648  0.00  0.00     0.028 C 
ENDROOT
BRANCH   1  14
ATOM     14  N   UNL d   1      33.241  18.520 -23.200  0.00  0.00    -0.183 NA
ATOM     15  C   UNL d   1      32.529  18.170 -23.381  0.00  0.00     0.281 C 
ATOM     16  O   UNL d   1      31.837  18.526 -23.040  0.00  0.00    -0.265 OA
BRANCH  15  17
ATOM     17  C   UNL d   1      32.530  17.543 -23.848  0.00  0.00     0.063 C 
BRANCH  17  18
ATOM     18  C   UNL d   1      31.763  16.982 -23.870  0.00  0.00     0.005 C 
BRANCH  18  19
ATOM     19  C   UNL d   1      31.724  16.280 -24.503  0.00  0.00     0.000 C 
ATOM     20  C   UNL d   1      31.227  15.619 -24.524  0.00  0.00     0.000 C 
ENDBRANCH  18  19
ENDBRANCH  17  18
ENDBRANCH  15  17
ENDBRANCH   1  14
TORSDOF 4
ENDMDL
MODEL 4
REMARK VINA RESULT:      -1.8      1.412      1.921
REMARK  4 active torsions:
REMARK  status: ('A' for Active; 'I' for Inactive)
REMARK    1  A    between atoms: N_10  and  C_1 
REMARK       I    between atoms: C_12  and  N_10 
REMARK    2  A    between atoms: C_17  and  C_12 
REMARK    3  A    between atoms: C_18  and  C_17 
REMARK    4  A    between atoms: C_19  and  C_18 
ROOT
ATOM      1  C   UNL d   1      33.238  21.533 -21.866  0.00  0.00     0.197 A 
ATOM      2  C   UNL d   1      33.239  20.368 -22.481  0.00  0.00     0.057 A 
ATOM      3  C   UNL d   1      33.240  19.600 -22.694  0.00  0.00     0.056 A 
ATOM      4  N   UNL d   1      33.239  21.697 -22.645  0.00  0.00    -0.221 NA
ATOM      5  S   UNL d   1      33.238  20.714 -21.724  0.00  0.00    -0.046 SA
ATOM      6  N   UNL d   1      33.241  18.587 -23.535  0.00  0.00    -0.238 NA
ATOM      7  S   UNL d   1      33.239  18.912 -22.273  0.00  0.00    -0.066 SA
ATOM      8  C   UNL d   1      33.239  20.964 -23.040  0.00  0.00     0.090 A 
ATOM      9  C   UNL d   1      33.240  19.385 -23.491  0.00  0.00     0.088 A 
ATOM     10  C   UNL d   1      33.240  18.255 -22.824  0.00  0.00     0.111 A 
ATOM     11  C   UNL d   1      33.241  19.962 -24.069  0.00  0.00     0.021 A 
ATOM     12  C   UNL d   1      33.240  20.768 -23.836  0.00  0.00     0.021 A 
ATOM     13  C   UNL d   1      33.240  17.441 -22.649  0.00  0.00     0.028 C 
ENDROOT
BRANCH   1  14
ATOM     14  N   UNL d   1      33.238  22.114 -21.245  0.00  0.00    -0.183 NA
ATOM     15  C   UNL d   1      32.537  22.273 -20.863  0.00  0.00     0.281 C 
ATOM     16  O   UNL d   1      31.858  21.834 -21.124  0.00  0.00    -0.265 OA
BRANCH  15  17
ATOM     17  C   UNL d   1      32.537  22.807 -20.292  0.00  0.00     0.063 C 
BRANCH  17  18
ATOM     18  C   UNL d   1      32.779  22.545 -19.411  0.00  0.00     0.005 C 
BRANCH  18  19
ATOM     19  C   UNL d   1      32.697  23.170 -18.705  0.00  0.00     0.000 C 
ATOM     20  C   UNL d   1      32.912  23.093 -17.910  0.00  0.00     0.000 C 
ENDBRANCH  18  19
ENDBRANCH  17  18
ENDBRANCH  15  17
ENDBRANCH   1  14
TORSDOF 4
ENDMDL
MODEL 5
REMARK VINA RESULT:      -1.1      1.582      4.604
REMARK  4 active torsions:
REMARK  status: ('A' for Active; 'I' for Inactive)
REMARK    1  A    between atoms: N_10  and  C_1 
REMARK       I    between atoms: C_12  and  N_10 
REMARK    2  A    between atoms: C_17  and  C_12 
REMARK    3  A    between atoms: C_18  and  C_17 
REMARK    4  A    between atoms: C_19  and  C_18 
ROOT
ATOM      1  C   UNL d   1      32.269  17.689 -23.707  0.00  0.00     0.197 A 
ATOM      2  C   UNL d   1      32.639  18.880 -23.286  0.00  0.00     0.057 A 
ATOM      3  C   UNL d   1      32.824  19.539 -22.876  0.00  0.00     0.056 A 
ATOM      4  N   UNL d   1      32.486  18.093 -24.358  0.00  0.00    -0.221 NA
ATOM      5  S   UNL d   1      32.351  18.146 -23.018  0.00  0.00    -0.046 SA
ATOM      6  N   UNL d   1      33.241  20.777 -22.718  0.00  0.00    -0.238 NA
ATOM      7  S   UNL d   1      32.799  19.724 -22.091  0.00  0.00    -0.066 SA
ATOM      8  C   UNL d   1      32.721  18.848 -24.098  0.00  0.00     0.090 A 
ATOM      9  C   UNL d   1      33.104  20.210 -23.264  0.00  0.00     0.088 A 
ATOM     10  C   UNL d   1      33.071  20.531 -21.993  0.00  0.00     0.111 A 
ATOM     11  C   UNL d   1      33.195  20.203 -24.076  0.00  0.00     0.021 A 
ATOM     12  C   UNL d   1      32.999  19.506 -24.499  0.00  0.00     0.021 A 
ATOM     13  C   UNL d   1      33.142  20.963 -21.285  0.00  0.00     0.028 C 
ENDROOT
BRANCH   1  14
ATOM     14  N   UNL d   1      31.986  16.886 -23.704  0.00  0.00    -0.183 NA
ATOM     15  C   UNL d   1      31.232  16.739 -23.970  0.00  0.00     0.281 C 
ATOM     16  O   UNL d   1      30.787  17.414 -24.231  0.00  0.00    -0.265 OA
BRANCH  15  17
ATOM     17  C   UNL d   1      30.972  16.001 -23.967  0.00  0.00     0.063 C 
BRANCH  17  18
ATOM     18  C   UNL d   1      30.150  15.798 -24.398  0.00  0.00     0.005 C 
BRANCH  18  19
ATOM     19  C   UNL d   1      29.430  15.464 -23.883  0.00  0.00     0.000 C 
ATOM     20  C   UNL d   1      28.617  15.576 -23.984  0.00  0.00     0.000 C 
ENDBRANCH  18  19
ENDBRANCH  17  18
ENDBRANCH  15  17
ENDBRANCH   1  14
TORSDOF 4
ENDMDL
MODEL 6
REMARK VINA RESULT:      -0.5      2.071      4.857
REMARK  4 active torsions:
REMARK  status: ('A' for Active; 'I' for Inactive)
REMARK    1  A    between atoms: N_10  and  C_1 
REMARK       I    between atoms: C_12  and  N_10 
REMARK    2  A    between atoms: C_17  and  C_12 
REMARK    3  A    between atoms: C_18  and  C_17 
REMARK    4  A    between atoms: C_19  and  C_18 
ROOT
ATOM      1  C   UNL d   1      33.240  20.359 -23.754  0.00  0.00     0.197 A 
ATOM      2  C   UNL d   1      33.237  21.512 -23.118  0.00  0.00     0.057 A 
ATOM      3  C   UNL d   1      33.235  22.111 -22.592  0.00  0.00     0.056 A 
ATOM      4  N   UNL d   1      33.240  20.920 -24.319  0.00  0.00    -0.221 NA
ATOM      5  S   UNL d   1      33.238  20.689 -22.991  0.00  0.00    -0.046 SA
ATOM      6  N   UNL d   1      33.233  23.370 -22.206  0.00  0.00    -0.238 NA
ATOM      7  S   UNL d   1      33.234  22.136 -21.785  0.00  0.00    -0.066 SA
ATOM      8  C   UNL d   1      33.239  21.652 -23.922  0.00  0.00     0.090 A 
ATOM      9  C   UNL d   1      33.235  22.895 -22.849  0.00  0.00     0.088 A 
ATOM     10  C   UNL d   1      33.232  22.957 -21.539  0.00  0.00     0.111 A 
ATOM     11  C   UNL d   1      33.236  23.062 -23.648  0.00  0.00     0.021 A 
ATOM     12  C   UNL d   1      33.238  22.425 -24.195  0.00  0.00     0.021 A 
ATOM     13  C   UNL d   1      33.230  23.257 -20.762  0.00  0.00     0.028 C 
ENDROOT
BRANCH   1  14
ATOM     14  N   UNL d   1      33.241  19.521 -23.900  0.00  0.00    -0.183 NA
ATOM     15  C   UNL d   1      32.619  19.198 -24.314  0.00  0.00     0.281 C 
ATOM     16  O   UNL d   1      32.015  19.739 -24.567  0.00  0.00    -0.265 OA
BRANCH  15  17
ATOM     17  C   UNL d   1      32.620  18.428 -24.449  0.00  0.00     0.063 C 
BRANCH  17  18
ATOM     18  C   UNL d   1      31.921  17.894 -24.090  0.00  0.00     0.005 C 
BRANCH  18  19
ATOM     19  C   UNL d   1      31.901  16.968 -24.283  0.00  0.00     0.000 C 
ATOM     20  C   UNL d   1      31.255  16.453 -24.314  0.00  0.00     0.000 C 
ENDBRANCH  18  19
ENDBRANCH  17  18
ENDBRANCH  15  17
ENDBRANCH   1  14
TORSDOF 4
ENDMDL
MODEL 7
REMARK VINA RESULT:       0.1      2.914      6.524
REMARK  4 active torsions:
REMARK  status: ('A' for Active; 'I' for Inactive)
REMARK    1  A    between atoms: N_10  and  C_1 
REMARK       I    between atoms: C_12  and  N_10 
REMARK    2  A    between atoms: C_17  and  C_12 
REMARK    3  A    between atoms: C_18  and  C_17 
REMARK    4  A    between atoms: C_19  and  C_18 
ROOT
ATOM      1  C   UNL d   1      32.906  22.135 -19.714  0.00  0.00     0.197 A 
ATOM      2  C   UNL d   1      32.706  22.636 -18.513  0.00  0.00     0.057 A 
ATOM      3  C   UNL d   1      32.719  22.842 -17.743  0.00  0.00     0.056 A 
ATOM      4  N   UNL d   1      32.283  22.626 -19.783  0.00  0.00    -0.221 NA
ATOM      5  S   UNL d   1      33.198  22.114 -18.936  0.00  0.00    -0.046 SA
ATOM      6  N   UNL d   1      32.316  23.476 -16.662  0.00  0.00    -0.238 NA
ATOM      7  S   UNL d   1      33.191  22.628 -17.124  0.00  0.00    -0.066 SA
ATOM      8  C   UNL d   1      32.152  22.947 -19.026  0.00  0.00     0.090 A 
ATOM      9  C   UNL d   1      32.169  23.378 -17.442  0.00  0.00     0.088 A 
ATOM     10  C   UNL d   1      32.925  23.044 -16.423  0.00  0.00     0.111 A 
ATOM     11  C   UNL d   1      31.605  23.702 -17.934  0.00  0.00     0.021 A 
ATOM     12  C   UNL d   1      31.598  23.480 -18.743  0.00  0.00     0.021 A 
ATOM     13  C   UNL d   1      33.241  23.001 -15.654  0.00  0.00     0.028 C 
ENDROOT
BRANCH   1  14
ATOM     14  N   UNL d   1      33.241  21.681 -20.351  0.00  0.00    -0.183 NA
ATOM     15  C   UNL d   1      32.785  21.103 -20.698  0.00  0.00     0.281 C 
ATOM     16  O   UNL d   1      32.001  21.005 -20.386  0.00  0.00    -0.265 OA
BRANCH  15  17
ATOM     17  C   UNL d   1      33.093  20.686 -21.283  0.00  0.00     0.063 C 
BRANCH  17  18
ATOM     18  C   UNL d   1      32.543  20.067 -21.750  0.00  0.00     0.005 C 
BRANCH  18  19
ATOM     19  C   UNL d   1      32.920  19.551 -22.448  0.00  0.00     0.000 C 
ATOM     20  C   UNL d   1      32.610  18.891 -22.837  0.00  0.00     0.000 C 
ENDBRANCH  18  19
ENDBRANCH  17  18
ENDBRANCH  15  17
ENDBRANCH   1  14
TORSDOF 4
ENDMDL
