MODEL 1
REMARK VINA RESULT:      50.9      0.000      0.000
REMARK  4 active torsions:
REMARK  status: ('A' for Active; 'I' for Inactive)
REMARK    1  A    between atoms: C_4  and  C_1 
REMARK    2  A    between atoms: C_12  and  N_2 
REMARK    3  A    between atoms: C_11  and  N_5 
REMARK    4  A    between atoms: C_14  and  C_12 
ROOT
ATOM      1  C   UNL d   1      14.167  12.779  -2.592  0.00  0.00     0.149 A 
ATOM      2  N   UNL d   1      14.185  13.379  -2.006  0.00  0.00    -0.289 N 
ATOM      3  N   UNL d   1      14.523  12.101  -2.278  0.00  0.00    -0.227 NA
ATOM      4  C   UNL d   1      14.554  13.059  -1.333  0.00  0.00     0.083 A 
ATOM      5  C   UNL d   1      14.764  12.274  -1.495  0.00  0.00     0.099 A 
ATOM      6  C   UNL d   1      14.728  13.387  -0.587  0.00  0.00     0.019 A 
ATOM      7  C   UNL d   1      15.142  11.816  -0.926  0.00  0.00     0.021 A 
ATOM      8  C   UNL d   1      15.108  12.921  -0.017  0.00  0.00     0.002 A 
ATOM      9  C   UNL d   1      15.315  12.137  -0.185  0.00  0.00     0.002 A 
ENDROOT
BRANCH   1  10
ATOM     10  C   UNL d   1      13.849  12.858  -3.348  0.00  0.00     0.057 A 
ATOM     11  C   UNL d   1      13.905  12.312  -3.959  0.00  0.00     0.081 A 
ATOM     12  N   UNL d   1      13.505  12.622  -4.616  0.00  0.00    -0.298 N 
ATOM     13  C   UNL d   1      13.203  13.360  -4.407  0.00  0.00     0.261 A 
ATOM     14  C   UNL d   1      13.415  13.508  -3.623  0.00  0.00     0.065 A 
ATOM     15  O   UNL d   1      12.769  13.860  -4.893  0.00  0.00    -0.267 OA
BRANCH  12  16
ATOM     16  C   UNL d   1      13.423  12.254  -5.350  0.00  0.00     0.071 C 
ATOM     17  C   UNL d   1      13.230  11.840  -6.029  0.00  0.00     0.023 C 
ATOM     18  C   UNL d   1      12.772  11.779  -5.500  0.00  0.00     0.023 C 
ATOM     19  C   UNL d   1      14.000  12.369  -5.928  0.00  0.00     0.023 C 
ENDBRANCH  12  16
ENDBRANCH   1  10
BRANCH   2  20
ATOM     20  C   UNL d   1      13.891  14.140  -2.084  0.00  0.00     0.082 C 
BRANCH  20  21
ATOM     21  C   UNL d   1      14.369  14.791  -1.901  0.00  0.00     0.018 A 
ATOM     22  C   UNL d   1      14.513  14.981  -1.110  0.00  0.00     0.002 A 
ATOM     23  C   UNL d   1      14.987  15.626  -0.923  0.00  0.00     0.000 A 
ATOM     24  C   UNL d   1      15.317  16.081  -1.525  0.00  0.00     0.000 A 
ATOM     25  C   UNL d   1      15.170  15.886  -2.316  0.00  0.00     0.000 A 
ATOM     26  C   UNL d   1      14.699  15.244  -2.497  0.00  0.00     0.002 A 
ENDBRANCH  20  21
ENDBRANCH   2  20
TORSDOF 4
ENDMDL
MODEL 2
REMARK VINA RESULT:      53.3      1.646      4.286
REMARK  4 active torsions:
REMARK  status: ('A' for Active; 'I' for Inactive)
REMARK    1  A    between atoms: C_4  and  C_1 
REMARK    2  A    between atoms: C_12  and  N_2 
REMARK    3  A    between atoms: C_11  and  N_5 
REMARK    4  A    between atoms: C_14  and  C_12 
ROOT
ATOM      1  C   UNL d   1      14.340  14.507  -2.745  0.00  0.00     0.149 A 
ATOM      2  N   UNL d   1      13.719  14.322  -3.279  0.00  0.00    -0.289 N 
ATOM      3  N   UNL d   1      14.736  15.173  -3.033  0.00  0.00    -0.227 NA
ATOM      4  C   UNL d   1      13.743  14.882  -3.893  0.00  0.00     0.083 A 
ATOM      5  C   UNL d   1      14.366  15.408  -3.747  0.00  0.00     0.099 A 
ATOM      6  C   UNL d   1      13.271  14.980  -4.573  0.00  0.00     0.019 A 
ATOM      7  C   UNL d   1      14.523  16.026  -4.267  0.00  0.00     0.021 A 
ATOM      8  C   UNL d   1      13.433  15.604  -5.094  0.00  0.00     0.002 A 
ATOM      9  C   UNL d   1      14.058  16.126  -4.941  0.00  0.00     0.002 A 
ENDROOT
BRANCH   1  10
ATOM     10  C   UNL d   1      14.518  14.092  -2.056  0.00  0.00     0.057 A 
ATOM     11  C   UNL d   1      14.247  13.343  -1.856  0.00  0.00     0.081 A 
ATOM     12  N   UNL d   1      14.566  13.146  -1.116  0.00  0.00    -0.298 N 
ATOM     13  C   UNL d   1      15.032  13.777  -0.862  0.00  0.00     0.261 A 
ATOM     14  C   UNL d   1      15.004  14.363  -1.442  0.00  0.00     0.065 A 
ATOM     15  O   UNL d   1      15.451  13.815  -0.156  0.00  0.00    -0.267 OA
BRANCH  12  16
ATOM     16  C   UNL d   1      14.437  12.442  -0.706  0.00  0.00     0.071 C 
ATOM     17  C   UNL d   1      14.182  11.780  -0.298  0.00  0.00     0.023 C 
ATOM     18  C   UNL d   1      13.679  12.240  -0.466  0.00  0.00     0.023 C 
ATOM     19  C   UNL d   1      15.075  11.945  -0.540  0.00  0.00     0.023 C 
ENDBRANCH  12  16
ENDBRANCH   1  10
BRANCH   2  20
ATOM     20  C   UNL d   1      13.188  13.702  -3.206  0.00  0.00     0.082 C 
BRANCH  20  21
ATOM     21  C   UNL d   1      13.165  13.105  -3.779  0.00  0.00     0.018 A 
ATOM     22  C   UNL d   1      13.522  12.376  -3.624  0.00  0.00     0.002 A 
ATOM     23  C   UNL d   1      13.501  11.780  -4.190  0.00  0.00     0.000 A 
ATOM     24  C   UNL d   1      13.125  11.912  -4.910  0.00  0.00     0.000 A 
ATOM     25  C   UNL d   1      12.770  12.644  -5.061  0.00  0.00     0.000 A 
ATOM     26  C   UNL d   1      12.792  13.232  -4.496  0.00  0.00     0.002 A 
ENDBRANCH  20  21
ENDBRANCH   2  20
TORSDOF 4
ENDMDL
