MODEL 1
REMARK VINA RESULT:      67.7      0.000      0.000
REMARK  5 active torsions:
REMARK  status: ('A' for Active; 'I' for Inactive)
REMARK    1  A    between atoms: C_12  and  N_1 
REMARK    2  A    between atoms: N_7  and  C_5 
REMARK    3  A    between atoms: C_10  and  N_7 
REMARK    4  A    between atoms: O_14  and  C_13 
REMARK    5  A    between atoms: C_19  and  O_14 
ROOT
ATOM      1  N   UNL d   1     -50.338  27.412  33.652  0.00  0.00    -0.212 N 
ATOM      2  C   UNL d   1     -49.654  27.530  34.100  0.00  0.00     0.170 A 
ATOM      3  C   UNL d   1     -49.462  28.332  34.064  0.00  0.00     0.093 A 
ATOM      4  N   UNL d   1     -50.568  28.145  33.338  0.00  0.00    -0.162 NA
ATOM      5  C   UNL d   1     -48.795  28.619  34.465  0.00  0.00     0.169 A 
ATOM      6  C   UNL d   1     -50.023  28.710  33.595  0.00  0.00     0.127 A 
ATOM      7  N   UNL d   1     -49.184  27.004  34.537  0.00  0.00    -0.205 NA
ATOM      8  N   UNL d   1     -48.324  28.092  34.902  0.00  0.00    -0.205 NA
ATOM      9  C   UNL d   1     -48.523  27.292  34.934  0.00  0.00     0.202 A 
ENDROOT
BRANCH   5  10
ATOM     10  N   UNL d   1     -48.598  29.411  34.434  0.00  0.00    -0.225 NA
BRANCH  10  11
ATOM     11  C   UNL d   1     -48.094  29.731  34.991  0.00  0.00     0.106 A 
ATOM     12  C   UNL d   1     -47.827  30.512  34.919  0.00  0.00     0.118 A 
ATOM     13  C   UNL d   1     -47.325  30.834  35.474  0.00  0.00     0.026 A 
ATOM     14  C   UNL d   1     -47.077  30.368  36.123  0.00  0.00     0.002 A 
ATOM     15  C   UNL d   1     -47.333  29.604  36.200  0.00  0.00     0.002 A 
ATOM     16  C   UNL d   1     -47.845  29.278  35.634  0.00  0.00     0.021 A 
BRANCH  12  17
ATOM     17  O   UNL d   1     -48.076  30.966  34.276  0.00  0.00    -0.304 OA
BRANCH  17  18
ATOM     18  C   UNL d   1     -48.021  31.793  34.307  0.00  0.00     0.123 C 
ATOM     19  C   UNL d   1     -48.284  32.244  33.672  0.00  0.00     0.029 C 
ENDBRANCH  17  18
ENDBRANCH  12  17
ENDBRANCH  10  11
ENDBRANCH   5  10
BRANCH   1  20
ATOM     20  C   UNL d   1     -50.725  26.691  33.537  0.00  0.00     0.085 A 
ATOM     21  C   UNL d   1     -50.287  25.988  33.509  0.00  0.00     0.019 A 
ATOM     22  C   UNL d   1     -50.671  25.271  33.394  0.00  0.00     0.002 A 
ATOM     23  C   UNL d   1     -51.498  25.250  33.306  0.00  0.00     0.000 A 
ATOM     24  C   UNL d   1     -51.931  25.946  33.334  0.00  0.00     0.002 A 
ATOM     25  C   UNL d   1     -51.553  26.670  33.449  0.00  0.00     0.019 A 
ENDBRANCH   1  20
TORSDOF 5
ENDMDL
