MODEL 1
REMARK VINA RESULT:      46.4      0.000      0.000
REMARK  5 active torsions:
REMARK  status: ('A' for Active; 'I' for Inactive)
REMARK    1  A    between atoms: N_5  and  C_1 
REMARK    2  A    between atoms: N_6  and  C_1 
REMARK       I    between atoms: C_2  and  N_3 
REMARK    3  A    between atoms: C_4  and  C_2 
REMARK    4  A    between atoms: N_3  and  N_5 
REMARK    5  A    between atoms: C_11  and  N_6 
ROOT
ATOM      1  N   UNL d   1     -49.214  27.522  34.337  0.00  0.00    -0.273 N 
ATOM      2  H   UNL d   1     -49.272  27.027  34.987  0.00  0.00     0.189 HD
ENDROOT
BRANCH   1   3
ATOM      3  N   UNL d   1     -48.695  28.172  34.364  0.00  0.00    -0.264 N 
ATOM      4  C   UNL d   1     -48.473  28.508  35.082  0.00  0.00     0.272 C 
ATOM      5  O   UNL d   1     -48.766  28.200  35.781  0.00  0.00    -0.266 OA
ATOM      6  H   UNL d   1     -48.395  28.486  33.649  0.00  0.00     0.190 HD
BRANCH   4   7
ATOM      7  C   UNL d   1     -47.959  29.150  35.104  0.00  0.00     0.058 A 
ATOM      8  C   UNL d   1     -48.259  29.927  35.099  0.00  0.00     0.011 A 
ATOM      9  C   UNL d   1     -47.735  30.561  35.122  0.00  0.00     0.035 A 
ATOM     10 BR   UNL d   1     -48.025  31.330  35.118  0.00  0.00    -0.049 Br
ATOM     11  C   UNL d   1     -46.927  30.433  35.147  0.00  0.00     0.007 A 
ATOM     12  C   UNL d   1     -46.625  29.667  35.152  0.00  0.00     0.001 A 
ATOM     13  C   UNL d   1     -47.151  29.021  35.129  0.00  0.00     0.005 A 
ENDBRANCH   4   7
ENDBRANCH   1   3
BRANCH   1  14
ATOM     14  C   UNL d   1     -49.660  27.383  33.664  0.00  0.00     0.191 C 
ATOM     15  S   UNL d   1     -50.110  27.986  33.325  0.00  0.00    -0.039 SA
BRANCH  14  16
ATOM     16  N   UNL d   1     -49.651  26.627  33.329  0.00  0.00    -0.331 N 
ATOM     17  H   UNL d   1     -48.960  26.321  33.012  0.00  0.00     0.168 HD
BRANCH  16  18
ATOM     18  C   UNL d   1     -50.341  26.196  33.322  0.00  0.00     0.058 A 
ATOM     19  C   UNL d   1     -51.075  26.604  33.315  0.00  0.00     0.017 A 
ATOM     20  C   UNL d   1     -51.782  26.173  33.307  0.00  0.00     0.002 A 
ATOM     21  C   UNL d   1     -51.769  25.348  33.307  0.00  0.00     0.000 A 
ATOM     22  C   UNL d   1     -51.036  24.942  33.314  0.00  0.00     0.002 A 
ATOM     23  C   UNL d   1     -50.328  25.372  33.322  0.00  0.00     0.017 A 
ENDBRANCH  16  18
ENDBRANCH  14  16
ENDBRANCH   1  14
TORSDOF 5
ENDMDL
MODEL 2
REMARK VINA RESULT:      47.1      2.099      5.139
REMARK  5 active torsions:
REMARK  status: ('A' for Active; 'I' for Inactive)
REMARK    1  A    between atoms: N_5  and  C_1 
REMARK    2  A    between atoms: N_6  and  C_1 
REMARK       I    between atoms: C_2  and  N_3 
REMARK    3  A    between atoms: C_4  and  C_2 
REMARK    4  A    between atoms: N_3  and  N_5 
REMARK    5  A    between atoms: C_11  and  N_6 
ROOT
ATOM      1  N   UNL d   1     -49.043  27.301  34.193  0.00  0.00    -0.273 N 
ATOM      2  H   UNL d   1     -48.403  26.847  33.958  0.00  0.00     0.189 HD
ENDROOT
BRANCH   1   3
ATOM      3  N   UNL d   1     -49.814  27.030  34.034  0.00  0.00    -0.264 N 
ATOM      4  C   UNL d   1     -49.950  26.261  33.776  0.00  0.00     0.272 C 
ATOM      5  O   UNL d   1     -49.317  25.751  33.672  0.00  0.00    -0.266 OA
ATOM      6  H   UNL d   1     -50.461  27.551  34.140  0.00  0.00     0.190 HD
BRANCH   4   7
ATOM      7  C   UNL d   1     -50.714  25.998  33.620  0.00  0.00     0.058 A 
ATOM      8  C   UNL d   1     -50.873  25.183  33.563  0.00  0.00     0.011 A 
ATOM      9  C   UNL d   1     -51.641  24.932  33.407  0.00  0.00     0.035 A 
ATOM     10 BR   UNL d   1     -51.804  24.129  33.350  0.00  0.00    -0.049 Br
ATOM     11  C   UNL d   1     -52.244  25.477  33.309  0.00  0.00     0.007 A 
ATOM     12  C   UNL d   1     -52.092  26.284  33.364  0.00  0.00     0.001 A 
ATOM     13  C   UNL d   1     -51.317  26.543  33.522  0.00  0.00     0.005 A 
ENDBRANCH   4   7
ENDBRANCH   1   3
BRANCH   1  14
ATOM     14  C   UNL d   1     -48.932  28.013  34.581  0.00  0.00     0.191 C 
ATOM     15  S   UNL d   1     -49.354  28.686  34.357  0.00  0.00    -0.039 SA
BRANCH  14  16
ATOM     16  N   UNL d   1     -48.388  28.048  35.203  0.00  0.00    -0.331 N 
ATOM     17  H   UNL d   1     -48.301  27.414  35.714  0.00  0.00     0.168 HD
BRANCH  16  18
ATOM     18  C   UNL d   1     -47.944  28.723  35.294  0.00  0.00     0.058 A 
ATOM     19  C   UNL d   1     -47.112  28.680  35.197  0.00  0.00     0.017 A 
ATOM     20  C   UNL d   1     -46.652  29.363  35.288  0.00  0.00     0.002 A 
ATOM     21  C   UNL d   1     -47.008  30.083  35.474  0.00  0.00     0.000 A 
ATOM     22  C   UNL d   1     -47.839  30.127  35.571  0.00  0.00     0.002 A 
ATOM     23  C   UNL d   1     -48.300  29.444  35.480  0.00  0.00     0.017 A 
ENDBRANCH  16  18
ENDBRANCH  14  16
ENDBRANCH   1  14
TORSDOF 5
ENDMDL
MODEL 3
REMARK VINA RESULT:      47.4      1.995      4.998
REMARK  5 active torsions:
REMARK  status: ('A' for Active; 'I' for Inactive)
REMARK    1  A    between atoms: N_5  and  C_1 
REMARK    2  A    between atoms: N_6  and  C_1 
REMARK       I    between atoms: C_2  and  N_3 
REMARK    3  A    between atoms: C_4  and  C_2 
REMARK    4  A    between atoms: N_3  and  N_5 
REMARK    5  A    between atoms: C_11  and  N_6 
ROOT
ATOM      1  N   UNL d   1     -48.566  27.927  34.406  0.00  0.00    -0.273 N 
ATOM      2  H   UNL d   1     -47.997  27.777  33.837  0.00  0.00     0.189 HD
ENDROOT
BRANCH   1   3
ATOM      3  N   UNL d   1     -49.350  27.683  34.271  0.00  0.00    -0.264 N 
ATOM      4  C   UNL d   1     -49.521  27.067  33.753  0.00  0.00     0.272 C 
ATOM      5  O   UNL d   1     -48.910  26.687  33.361  0.00  0.00    -0.266 OA
ATOM      6  H   UNL d   1     -49.974  28.071  34.672  0.00  0.00     0.190 HD
BRANCH   4   7
ATOM      7  C   UNL d   1     -50.298  26.830  33.623  0.00  0.00     0.058 A 
ATOM      8  C   UNL d   1     -50.487  26.020  33.584  0.00  0.00     0.011 A 
ATOM      9  C   UNL d   1     -51.268  25.795  33.454  0.00  0.00     0.035 A 
ATOM     10 BR   UNL d   1     -51.462  24.997  33.414  0.00  0.00    -0.049 Br
ATOM     11  C   UNL d   1     -51.855  26.359  33.363  0.00  0.00     0.007 A 
ATOM     12  C   UNL d   1     -51.672  27.161  33.401  0.00  0.00     0.001 A 
ATOM     13  C   UNL d   1     -50.884  27.394  33.533  0.00  0.00     0.005 A 
ENDBRANCH   4   7
ENDBRANCH   1   3
BRANCH   1  14
ATOM     14  C   UNL d   1     -48.372  28.312  35.101  0.00  0.00     0.191 C 
ATOM     15  S   UNL d   1     -48.925  28.393  35.708  0.00  0.00    -0.039 SA
BRANCH  14  16
ATOM     16  N   UNL d   1     -47.608  28.619  35.187  0.00  0.00    -0.331 N 
ATOM     17  H   UNL d   1     -46.958  28.122  35.179  0.00  0.00     0.168 HD
BRANCH  16  18
ATOM     18  C   UNL d   1     -47.520  29.422  35.279  0.00  0.00     0.058 A 
ATOM     19  C   UNL d   1     -47.517  29.746  36.053  0.00  0.00     0.017 A 
ATOM     20  C   UNL d   1     -47.428  30.563  36.155  0.00  0.00     0.002 A 
ATOM     21  C   UNL d   1     -47.343  31.058  35.502  0.00  0.00     0.000 A 
ATOM     22  C   UNL d   1     -47.346  30.735  34.729  0.00  0.00     0.002 A 
ATOM     23  C   UNL d   1     -47.435  29.918  34.625  0.00  0.00     0.017 A 
ENDBRANCH  16  18
ENDBRANCH  14  16
ENDBRANCH   1  14
TORSDOF 5
ENDMDL
