MODEL 1
REMARK VINA RESULT:      52.1      0.000      0.000
REMARK  5 active torsions:
REMARK  status: ('A' for Active; 'I' for Inactive)
REMARK    1  A    between atoms: C_4  and  S_1 
REMARK    2  A    between atoms: N_6  and  S_1 
REMARK    3  A    between atoms: C_2  and  C_14 
REMARK    4  A    between atoms: C_7  and  C_16 
REMARK       I    between atoms: N_11  and  C_7 
REMARK    5  A    between atoms: C_26  and  N_11 
ROOT
ATOM      1  C   UNL d   1      32.466  19.948 -20.509  0.00  0.00     0.279 C 
ATOM      2  N   UNL d   1      33.177  19.697 -20.183  0.00  0.00    -0.208 NA
ATOM      3  O   UNL d   1      31.754  19.666 -20.215  0.00  0.00    -0.265 OA
ENDROOT
BRANCH   1   4
ATOM      4  C   UNL d   1      32.469  20.488 -21.134  0.00  0.00     0.061 A 
ATOM      5  C   UNL d   1      33.118  20.515 -21.659  0.00  0.00     0.025 A 
ATOM      6  C   UNL d   1      33.121  21.055 -22.286  0.00  0.00     0.092 A 
ATOM      7  N   UNL d   1      32.480  21.569 -22.392  0.00  0.00    -0.229 N 
ATOM      8  C   UNL d   1      31.838  21.539 -21.871  0.00  0.00     0.092 A 
ATOM      9  C   UNL d   1      31.828  21.005 -21.245  0.00  0.00     0.025 A 
BRANCH   7  10
ATOM     10  S   UNL d   1      32.478  22.111 -23.018  0.00  0.00     0.277 S 
ATOM     11  O   UNL d   1      31.900  22.534 -22.619  0.00  0.00    -0.199 OA
ATOM     12  O   UNL d   1      33.062  21.678 -23.416  0.00  0.00    -0.199 OA
BRANCH  10  13
ATOM     13  C   UNL d   1      32.448  22.667 -23.616  0.00  0.00     0.133 A 
ATOM     14  S   UNL d   1      33.083  23.112 -23.911  0.00  0.00    -0.074 SA
ATOM     15  C   UNL d   1      32.802  23.599 -24.506  0.00  0.00     0.036 A 
ATOM     16  C   UNL d   1      31.991  23.466 -24.592  0.00  0.00     0.008 A 
ATOM     17  C   UNL d   1      31.773  22.891 -24.042  0.00  0.00     0.020 A 
ENDBRANCH  10  13
ENDBRANCH   7  10
ENDBRANCH   1   4
BRANCH   2  18
ATOM     18  C   UNL d   1      33.178  19.159 -19.558  0.00  0.00     0.085 A 
ATOM     19  C   UNL d   1      33.211  19.439 -18.777  0.00  0.00     0.019 A 
ATOM     20  C   UNL d   1      33.211  18.890 -18.166  0.00  0.00     0.004 A 
ATOM     21  C   UNL d   1      33.181  18.095 -18.334  0.00  0.00     0.024 A 
ATOM     22  C   UNL d   1      33.149  17.833 -19.106  0.00  0.00     0.004 A 
ATOM     23  C   UNL d   1      33.148  18.358 -19.713  0.00  0.00     0.019 A 
BRANCH  21  24
ATOM     24  C   UNL d   1      33.182  17.556 -17.709  0.00  0.00     0.111 A 
ATOM     25  N   UNL d   1      33.138  17.746 -16.899  0.00  0.00    -0.239 NA
ATOM     26  C   UNL d   1      33.156  17.038 -16.465  0.00  0.00     0.088 A 
ATOM     27  C   UNL d   1      33.129  16.885 -15.658  0.00  0.00     0.020 A 
ATOM     28  C   UNL d   1      33.210  16.418 -17.004  0.00  0.00     0.049 A 
ATOM     29  C   UNL d   1      33.158  16.105 -15.387  0.00  0.00     0.002 A 
ATOM     30  C   UNL d   1      33.213  15.482 -15.924  0.00  0.00     0.001 A 
ATOM     31  C   UNL d   1      33.239  15.633 -16.734  0.00  0.00     0.008 A 
ATOM     32  S   UNL d   1      33.228  16.721 -17.779  0.00  0.00    -0.066 SA
ENDBRANCH  21  24
ENDBRANCH   2  18
TORSDOF 5
ENDMDL
