MODEL 1
REMARK VINA RESULT:       1.6      0.000      0.000
REMARK  6 active torsions:
REMARK  status: ('A' for Active; 'I' for Inactive)
REMARK    1  A    between atoms: C_22  and  C_3 
REMARK    2  A    between atoms: S_17  and  C_5 
REMARK    3  A    between atoms: C_11  and  C_16 
REMARK       I    between atoms: N_14  and  C_11 
REMARK    4  A    between atoms: C_19  and  N_14 
REMARK    5  A    between atoms: C_16  and  C_20 
REMARK    6  A    between atoms: C_20  and  S_17 
ROOT
ATOM      1  C   UNL d   1     -41.610-121.820 -52.699  0.00  0.00     0.092 A 
ATOM      2  C   UNL d   1     -41.980-122.002 -54.063  0.00  0.00     0.057 A 
ATOM      3  C   UNL d   1     -41.895-121.511 -53.407  0.00  0.00     0.016 A 
ATOM      4  N   UNL d   1     -41.496-123.109 -53.302  0.00  0.00    -0.239 NA
ATOM      5  C   UNL d   1     -41.411-122.619 -52.647  0.00  0.00     0.120 A 
ATOM      6  C   UNL d   1     -41.781-122.801 -54.011  0.00  0.00     0.081 A 
ATOM      7  C   UNL d   1     -42.265-121.693 -54.771  0.00  0.00     0.193 A 
ATOM      8  C   UNL d   1     -41.523-121.324 -52.032  0.00  0.00     0.103 C 
ATOM      9  N   UNL d   1     -41.439-120.821 -51.373  0.00  0.00    -0.191 NA
ATOM     10  C   UNL d   1     -42.153-122.984 -55.383  0.00  0.00     0.042 A 
ATOM     11  C   UNL d   1     -42.352-122.185 -55.435  0.00  0.00     0.019 A 
ATOM     12  C   UNL d   1     -41.866-123.291 -54.666  0.00  0.00    -0.003 A 
ATOM     13  O   UNL d   1     -42.464-120.896 -54.824  0.00  0.00    -0.287 OA
ATOM     14  C   UNL d   1     -42.036-123.778 -55.600  0.00  0.00     0.009 C 
ATOM     15  C   UNL d   1     -42.436-122.685 -56.095  0.00  0.00     0.009 C 
ENDROOT
BRANCH   3  16
ATOM     16  C   UNL d   1     -42.094-120.714 -53.460  0.00  0.00     0.001 C 
ATOM     17  C   UNL d   1     -41.507-120.149 -53.585  0.00  0.00     0.000 C 
ENDBRANCH   3  16
BRANCH   5  18
ATOM     18  S   UNL d   1     -41.123-122.926 -51.927  0.00  0.00    -0.067 SA
BRANCH  18  19
ATOM     19  C   UNL d   1     -41.537-123.523 -51.535  0.00  0.00     0.042 C 
BRANCH  19  20
ATOM     20  C   UNL d   1     -41.253-123.817 -50.817  0.00  0.00     0.070 C 
BRANCH  20  21
ATOM     21  C   UNL d   1     -41.733-123.771 -50.134  0.00  0.00     0.280 C 
ATOM     22  N   UNL d   1     -41.378-123.703 -49.390  0.00  0.00    -0.208 NA
ATOM     23  O   UNL d   1     -42.555-123.794 -50.209  0.00  0.00    -0.265 OA
BRANCH  22  24
ATOM     24  C   UNL d   1     -41.858-123.656 -48.706  0.00  0.00     0.085 A 
ATOM     25  C   UNL d   1     -42.665-123.519 -48.787  0.00  0.00     0.021 A 
ATOM     26  C   UNL d   1     -43.143-123.473 -48.118  0.00  0.00     0.031 A 
ATOM     27  C   UNL d   1     -42.813-123.563 -47.367  0.00  0.00     0.140 A 
ATOM     28  C   UNL d   1     -41.997-123.701 -47.289  0.00  0.00     0.031 A 
ATOM     29  F   UNL d   1     -43.289-123.517 -46.685  0.00  0.00    -0.204 F 
ATOM     30  C   UNL d   1     -41.521-123.748 -47.958  0.00  0.00     0.021 A 
ENDBRANCH  22  24
ENDBRANCH  20  21
ENDBRANCH  19  20
ENDBRANCH  18  19
ENDBRANCH   5  18
TORSDOF 6
ENDMDL
