MODEL 1
REMARK VINA RESULT:      -8.1      0.000      0.000
REMARK  5 active torsions:
REMARK  status: ('A' for Active; 'I' for Inactive)
REMARK    1  A    between atoms: C_2  and  C_1 
REMARK       I    between atoms: N_4  and  C_2 
REMARK    2  A    between atoms: C_7  and  N_4 
REMARK    3  A    between atoms: C_12  and  C_6 
REMARK    4  A    between atoms: S_11  and  C_12 
REMARK    5  A    between atoms: C_14  and  S_11 
ROOT
ATOM      1  C   UNL d   1     -49.850  14.541  22.454  0.00  0.00     0.158 A 
ATOM      2  O   UNL d   1     -49.146  14.345  22.073  0.00  0.00    -0.302 OA
ATOM      3  C   UNL d   1     -49.657  14.781  23.224  0.00  0.00     0.032 A 
ATOM      4  C   UNL d   1     -48.527  14.459  22.593  0.00  0.00     0.107 A 
ATOM      5  C   UNL d   1     -48.838  14.730  23.310  0.00  0.00     0.027 A 
ENDROOT
BRANCH   1   6
ATOM      6  C   UNL d   1     -50.613  14.509  22.136  0.00  0.00     0.302 C 
ATOM      7  N   UNL d   1     -51.050  13.812  22.170  0.00  0.00    -0.204 NA
ATOM      8  O   UNL d   1     -50.930  15.180  21.785  0.00  0.00    -0.263 OA
BRANCH   7   9
ATOM      9  C   UNL d   1     -50.715  13.139  22.529  0.00  0.00     0.112 A 
ATOM     10  C   UNL d   1     -50.465  12.515  22.047  0.00  0.00     0.158 A 
ATOM     11  F   UNL d   1     -50.548  12.564  21.232  0.00  0.00    -0.203 F 
ATOM     12  C   UNL d   1     -50.134  11.848  22.397  0.00  0.00     0.031 A 
ATOM     13  C   UNL d   1     -50.053  11.802  23.220  0.00  0.00     0.002 A 
ATOM     14  C   UNL d   1     -50.304  12.428  23.694  0.00  0.00     0.002 A 
ATOM     15  C   UNL d   1     -50.637  13.098  23.343  0.00  0.00     0.021 A 
ENDBRANCH   7   9
ENDBRANCH   1   6
BRANCH   4  16
ATOM     16  C   UNL d   1     -47.725  14.329  22.440  0.00  0.00     0.060 C 
BRANCH  16  17
ATOM     17  S   UNL d   1     -47.227  14.080  23.046  0.00  0.00    -0.084 SA
BRANCH  17  18
ATOM     18  C   UNL d   1     -46.582  13.599  22.885  0.00  0.00     0.029 A 
ATOM     19  C   UNL d   1     -45.972  13.870  22.405  0.00  0.00     0.006 A 
ATOM     20  C   UNL d   1     -45.326  13.390  22.243  0.00  0.00     0.001 A 
ATOM     21  C   UNL d   1     -45.295  12.629  22.569  0.00  0.00     0.000 A 
ATOM     22  C   UNL d   1     -45.908  12.361  23.050  0.00  0.00     0.001 A 
ATOM     23  C   UNL d   1     -46.554  12.842  23.211  0.00  0.00     0.006 A 
ENDBRANCH  17  18
ENDBRANCH  16  17
ENDBRANCH   4  16
TORSDOF 5
ENDMDL
MODEL 2
REMARK VINA RESULT:      -6.9      1.181      1.948
REMARK  5 active torsions:
REMARK  status: ('A' for Active; 'I' for Inactive)
REMARK    1  A    between atoms: C_2  and  C_1 
REMARK       I    between atoms: N_4  and  C_2 
REMARK    2  A    between atoms: C_7  and  N_4 
REMARK    3  A    between atoms: C_12  and  C_6 
REMARK    4  A    between atoms: S_11  and  C_12 
REMARK    5  A    between atoms: C_14  and  S_11 
ROOT
ATOM      1  C   UNL d   1     -49.822  12.520  22.911  0.00  0.00     0.158 A 
ATOM      2  O   UNL d   1     -49.155  12.473  22.429  0.00  0.00    -0.302 OA
ATOM      3  C   UNL d   1     -49.560  12.514  23.698  0.00  0.00     0.032 A 
ATOM      4  C   UNL d   1     -48.491  12.437  22.905  0.00  0.00     0.107 A 
ATOM      5  C   UNL d   1     -48.736  12.463  23.694  0.00  0.00     0.027 A 
ENDROOT
BRANCH   1   6
ATOM      6  C   UNL d   1     -50.610  12.566  22.665  0.00  0.00     0.302 C 
ATOM      7  N   UNL d   1     -50.980  13.297  22.587  0.00  0.00    -0.204 NA
ATOM      8  O   UNL d   1     -51.019  11.875  22.499  0.00  0.00    -0.263 OA
BRANCH   7   9
ATOM      9  C   UNL d   1     -50.552  13.991  22.760  0.00  0.00     0.112 A 
ATOM     10  C   UNL d   1     -50.350  14.496  22.137  0.00  0.00     0.158 A 
ATOM     11  F   UNL d   1     -50.568  14.313  21.367  0.00  0.00    -0.203 F 
ATOM     12  C   UNL d   1     -49.927  15.183  22.302  0.00  0.00     0.031 A 
ATOM     13  C   UNL d   1     -49.709  15.365  23.081  0.00  0.00     0.002 A 
ATOM     14  C   UNL d   1     -49.914  14.857  23.695  0.00  0.00     0.002 A 
ATOM     15  C   UNL d   1     -50.339  14.166  23.530  0.00  0.00     0.021 A 
ENDBRANCH   7   9
ENDBRANCH   1   6
BRANCH   4  16
ATOM     16  C   UNL d   1     -47.706  12.385  22.651  0.00  0.00     0.060 C 
BRANCH  16  17
ATOM     17  S   UNL d   1     -47.102  12.682  23.124  0.00  0.00    -0.084 SA
BRANCH  17  18
ATOM     18  C   UNL d   1     -46.353  12.809  22.814  0.00  0.00     0.029 A 
ATOM     19  C   UNL d   1     -46.162  13.534  22.476  0.00  0.00     0.006 A 
ATOM     20  C   UNL d   1     -45.413  13.662  22.165  0.00  0.00     0.001 A 
ATOM     21  C   UNL d   1     -44.851  13.054  22.196  0.00  0.00     0.000 A 
ATOM     22  C   UNL d   1     -45.046  12.329  22.536  0.00  0.00     0.001 A 
ATOM     23  C   UNL d   1     -45.796  12.201  22.846  0.00  0.00     0.006 A 
ENDBRANCH  17  18
ENDBRANCH  16  17
ENDBRANCH   4  16
TORSDOF 5
ENDMDL
MODEL 3
REMARK VINA RESULT:      -6.1      9.553     10.485
REMARK  5 active torsions:
REMARK  status: ('A' for Active; 'I' for Inactive)
REMARK    1  A    between atoms: C_2  and  C_1 
REMARK       I    between atoms: N_4  and  C_2 
REMARK    2  A    between atoms: C_7  and  N_4 
REMARK    3  A    between atoms: C_12  and  C_6 
REMARK    4  A    between atoms: S_11  and  C_12 
REMARK    5  A    between atoms: C_14  and  S_11 
ROOT
ATOM      1  C   UNL d   1     -40.558  15.245  18.071  0.00  0.00     0.158 A 
ATOM      2  O   UNL d   1     -40.457  14.608  18.585  0.00  0.00    -0.302 OA
ATOM      3  C   UNL d   1     -40.274  15.922  18.457  0.00  0.00     0.032 A 
ATOM      4  C   UNL d   1     -40.117  14.882  19.275  0.00  0.00     0.107 A 
ATOM      5  C   UNL d   1     -40.001  15.697  19.202  0.00  0.00     0.027 A 
ENDROOT
BRANCH   1   6
ATOM      6  C   UNL d   1     -40.882  15.223  17.311  0.00  0.00     0.302 C 
ATOM      7  N   UNL d   1     -40.394  15.163  16.651  0.00  0.00    -0.204 NA
ATOM      8  O   UNL d   1     -41.697  15.261  17.221  0.00  0.00    -0.263 OA
BRANCH   7   9
ATOM      9  C   UNL d   1     -39.568  15.125  16.758  0.00  0.00     0.112 A 
ATOM     10  C   UNL d   1     -39.183  14.407  16.618  0.00  0.00     0.158 A 
ATOM     11  F   UNL d   1     -39.610  13.748  16.379  0.00  0.00    -0.203 F 
ATOM     12  C   UNL d   1     -38.368  14.364  16.721  0.00  0.00     0.031 A 
ATOM     13  C   UNL d   1     -37.940  15.032  16.962  0.00  0.00     0.002 A 
ATOM     14  C   UNL d   1     -38.330  15.744  17.099  0.00  0.00     0.002 A 
ATOM     15  C   UNL d   1     -39.150  15.787  16.995  0.00  0.00     0.021 A 
ENDBRANCH   7   9
ENDBRANCH   1   6
BRANCH   4  16
ATOM     16  C   UNL d   1     -39.919  14.430  19.939  0.00  0.00     0.060 C 
BRANCH  16  17
ATOM     17  S   UNL d   1     -39.447  14.754  20.530  0.00  0.00    -0.084 SA
BRANCH  17  18
ATOM     18  C   UNL d   1     -39.097  14.274  21.095  0.00  0.00     0.029 A 
ATOM     19  C   UNL d   1     -38.321  14.019  21.002  0.00  0.00     0.006 A 
ATOM     20  C   UNL d   1     -37.970  13.539  21.567  0.00  0.00     0.001 A 
ATOM     21  C   UNL d   1     -38.407  13.312  22.234  0.00  0.00     0.000 A 
ATOM     22  C   UNL d   1     -39.184  13.569  22.325  0.00  0.00     0.001 A 
ATOM     23  C   UNL d   1     -39.534  14.050  21.759  0.00  0.00     0.006 A 
ENDBRANCH  17  18
ENDBRANCH  16  17
ENDBRANCH   4  16
TORSDOF 5
ENDMDL
MODEL 4
REMARK VINA RESULT:      -6.0      8.571     10.289
REMARK  5 active torsions:
REMARK  status: ('A' for Active; 'I' for Inactive)
REMARK    1  A    between atoms: C_2  and  C_1 
REMARK       I    between atoms: N_4  and  C_2 
REMARK    2  A    between atoms: C_7  and  N_4 
REMARK    3  A    between atoms: C_12  and  C_6 
REMARK    4  A    between atoms: S_11  and  C_12 
REMARK    5  A    between atoms: C_14  and  S_11 
ROOT
ATOM      1  C   UNL d   1     -40.619  14.786  20.074  0.00  0.00     0.158 A 
ATOM      2  O   UNL d   1     -40.170  14.422  19.486  0.00  0.00    -0.302 OA
ATOM      3  C   UNL d   1     -40.696  15.585  19.869  0.00  0.00     0.032 A 
ATOM      4  C   UNL d   1     -39.972  14.983  18.926  0.00  0.00     0.107 A 
ATOM      5  C   UNL d   1     -40.295  15.707  19.158  0.00  0.00     0.027 A 
ENDROOT
BRANCH   1   6
ATOM      6  C   UNL d   1     -40.938  14.428  20.748  0.00  0.00     0.302 C 
ATOM      7  N   UNL d   1     -40.514  14.414  21.453  0.00  0.00    -0.204 NA
ATOM      8  O   UNL d   1     -41.683  14.085  20.706  0.00  0.00    -0.263 OA
BRANCH   7   9
ATOM      9  C   UNL d   1     -39.758  14.765  21.481  0.00  0.00     0.112 A 
ATOM     10  C   UNL d   1     -39.096  14.276  21.553  0.00  0.00     0.158 A 
ATOM     11  F   UNL d   1     -39.186  13.461  21.596  0.00  0.00    -0.203 F 
ATOM     12  C   UNL d   1     -38.348  14.617  21.581  0.00  0.00     0.031 A 
ATOM     13  C   UNL d   1     -38.261  15.441  21.538  0.00  0.00     0.002 A 
ATOM     14  C   UNL d   1     -38.925  15.922  21.466  0.00  0.00     0.002 A 
ATOM     15  C   UNL d   1     -39.677  15.578  21.438  0.00  0.00     0.021 A 
ENDBRANCH   7   9
ENDBRANCH   1   6
BRANCH   4  16
ATOM     16  C   UNL d   1     -39.525  14.858  18.242  0.00  0.00     0.060 C 
BRANCH  16  17
ATOM     17  S   UNL d   1     -39.610  14.157  17.819  0.00  0.00    -0.084 SA
BRANCH  17  18
ATOM     18  C   UNL d   1     -39.089  13.968  17.214  0.00  0.00     0.029 A 
ATOM     19  C   UNL d   1     -39.090  14.400  16.515  0.00  0.00     0.006 A 
ATOM     20  C   UNL d   1     -38.568  14.211  15.909  0.00  0.00     0.001 A 
ATOM     21  C   UNL d   1     -38.040  13.580  16.010  0.00  0.00     0.000 A 
ATOM     22  C   UNL d   1     -38.042  13.150  16.713  0.00  0.00     0.001 A 
ATOM     23  C   UNL d   1     -38.564  13.339  17.318  0.00  0.00     0.006 A 
ENDBRANCH  17  18
ENDBRANCH  16  17
ENDBRANCH   4  16
TORSDOF 5
ENDMDL
MODEL 5
REMARK VINA RESULT:      -5.7      9.751     10.629
REMARK  5 active torsions:
REMARK  status: ('A' for Active; 'I' for Inactive)
REMARK    1  A    between atoms: C_2  and  C_1 
REMARK       I    between atoms: N_4  and  C_2 
REMARK    2  A    between atoms: C_7  and  N_4 
REMARK    3  A    between atoms: C_12  and  C_6 
REMARK    4  A    between atoms: S_11  and  C_12 
REMARK    5  A    between atoms: C_14  and  S_11 
ROOT
ATOM      1  C   UNL d   1     -38.739  13.690  18.392  0.00  0.00     0.158 A 
ATOM      2  O   UNL d   1     -38.960  13.642  19.184  0.00  0.00    -0.302 OA
ATOM      3  C   UNL d   1     -38.104  14.221  18.343  0.00  0.00     0.032 A 
ATOM      4  C   UNL d   1     -38.473  14.133  19.621  0.00  0.00     0.107 A 
ATOM      5  C   UNL d   1     -37.940  14.495  19.104  0.00  0.00     0.027 A 
ENDROOT
BRANCH   1   6
ATOM      6  C   UNL d   1     -39.080  13.287  17.756  0.00  0.00     0.302 C 
ATOM      7  N   UNL d   1     -39.673  13.640  17.308  0.00  0.00    -0.204 NA
ATOM      8  O   UNL d   1     -38.822  12.529  17.576  0.00  0.00    -0.263 OA
BRANCH   7   9
ATOM      9  C   UNL d   1     -39.926  14.410  17.502  0.00  0.00     0.112 A 
ATOM     10  C   UNL d   1     -40.676  14.509  17.837  0.00  0.00     0.158 A 
ATOM     11  F   UNL d   1     -41.157  13.858  17.973  0.00  0.00    -0.203 F 
ATOM     12  C   UNL d   1     -40.931  15.267  18.031  0.00  0.00     0.031 A 
ATOM     13  C   UNL d   1     -40.442  15.922  17.892  0.00  0.00     0.002 A 
ATOM     14  C   UNL d   1     -39.696  15.816  17.559  0.00  0.00     0.002 A 
ATOM     15  C   UNL d   1     -39.440  15.054  17.364  0.00  0.00     0.021 A 
ENDBRANCH   7   9
ENDBRANCH   1   6
BRANCH   4  16
ATOM     16  C   UNL d   1     -38.502  14.253  20.438  0.00  0.00     0.060 C 
BRANCH  16  17
ATOM     17  S   UNL d   1     -38.267  13.653  20.949  0.00  0.00    -0.084 SA
BRANCH  17  18
ATOM     18  C   UNL d   1     -38.377  13.727  21.759  0.00  0.00     0.029 A 
ATOM     19  C   UNL d   1     -38.092  13.151  22.271  0.00  0.00     0.006 A 
ATOM     20  C   UNL d   1     -38.202  13.224  23.082  0.00  0.00     0.001 A 
ATOM     21  C   UNL d   1     -38.603  13.886  23.378  0.00  0.00     0.000 A 
ATOM     22  C   UNL d   1     -38.887  14.462  22.862  0.00  0.00     0.001 A 
ATOM     23  C   UNL d   1     -38.777  14.387  22.052  0.00  0.00     0.006 A 
ENDBRANCH  17  18
ENDBRANCH  16  17
ENDBRANCH   4  16
TORSDOF 5
ENDMDL
MODEL 6
REMARK VINA RESULT:      -5.2      1.339      2.303
REMARK  5 active torsions:
REMARK  status: ('A' for Active; 'I' for Inactive)
REMARK    1  A    between atoms: C_2  and  C_1 
REMARK       I    between atoms: N_4  and  C_2 
REMARK    2  A    between atoms: C_7  and  N_4 
REMARK    3  A    between atoms: C_12  and  C_6 
REMARK    4  A    between atoms: S_11  and  C_12 
REMARK    5  A    between atoms: C_14  and  S_11 
ROOT
ATOM      1  C   UNL d   1     -50.409  12.908  22.121  0.00  0.00     0.158 A 
ATOM      2  O   UNL d   1     -49.639  12.614  22.115  0.00  0.00    -0.302 OA
ATOM      3  C   UNL d   1     -50.761  12.668  22.832  0.00  0.00     0.032 A 
ATOM      4  C   UNL d   1     -49.513  12.199  22.808  0.00  0.00     0.107 A 
ATOM      5  C   UNL d   1     -50.207  12.229  23.257  0.00  0.00     0.027 A 
ENDROOT
BRANCH   1   6
ATOM      6  C   UNL d   1     -50.771  13.360  21.531  0.00  0.00     0.302 C 
ATOM      7  N   UNL d   1     -50.842  14.176  21.615  0.00  0.00    -0.204 NA
ATOM      8  O   UNL d   1     -51.061  12.987  20.860  0.00  0.00    -0.263 OA
BRANCH   7   9
ATOM      9  C   UNL d   1     -50.544  14.542  22.302  0.00  0.00     0.112 A 
ATOM     10  C   UNL d   1     -49.855  14.996  22.242  0.00  0.00     0.158 A 
ATOM     11  F   UNL d   1     -49.477  15.081  21.518  0.00  0.00    -0.203 F 
ATOM     12  C   UNL d   1     -49.556  15.360  22.916  0.00  0.00     0.031 A 
ATOM     13  C   UNL d   1     -49.940  15.272  23.646  0.00  0.00     0.002 A 
ATOM     14  C   UNL d   1     -50.625  14.818  23.698  0.00  0.00     0.002 A 
ATOM     15  C   UNL d   1     -50.926  14.452  23.020  0.00  0.00     0.021 A 
ENDBRANCH   7   9
ENDBRANCH   1   6
BRANCH   4  16
ATOM     16  C   UNL d   1     -48.817  11.812  23.031  0.00  0.00     0.060 C 
BRANCH  16  17
ATOM     17  S   UNL d   1     -48.286  12.184  23.538  0.00  0.00    -0.084 SA
BRANCH  17  18
ATOM     18  C   UNL d   1     -47.489  11.990  23.523  0.00  0.00     0.029 A 
ATOM     19  C   UNL d   1     -47.245  11.224  23.698  0.00  0.00     0.006 A 
ATOM     20  C   UNL d   1     -46.448  11.029  23.684  0.00  0.00     0.001 A 
ATOM     21  C   UNL d   1     -45.891  11.612  23.491  0.00  0.00     0.000 A 
ATOM     22  C   UNL d   1     -46.139  12.378  23.316  0.00  0.00     0.001 A 
ATOM     23  C   UNL d   1     -46.937  12.572  23.331  0.00  0.00     0.006 A 
ENDBRANCH  17  18
ENDBRANCH  16  17
ENDBRANCH   4  16
TORSDOF 5
ENDMDL
