MODEL 1
REMARK VINA RESULT:      26.8      0.000      0.000
REMARK  3 active torsions:
REMARK  status: ('A' for Active; 'I' for Inactive)
REMARK    1  A    between atoms: C_9  and  C_5 
REMARK    2  A    between atoms: C_10  and  C_6 
REMARK    3  A    between atoms: O_16  and  C_13 
ROOT
ATOM      1  N   UNL d   1     -54.816-101.650 -37.384  0.00  0.00    -0.205 N 
ATOM      2  C   UNL d   1     -54.848-102.475 -37.360  0.00  0.00     0.197 A 
ATOM      3  N   UNL d   1     -54.852-102.754 -38.142  0.00  0.00    -0.200 NA
ATOM      4  N   UNL d   1     -54.799-101.419 -38.176  0.00  0.00    -0.144 NA
ATOM      5  C   UNL d   1     -54.822-102.097 -38.642  0.00  0.00     0.184 A 
ATOM      6  C   UNL d   1     -54.811-101.366 -36.605  0.00  0.00     0.092 A 
ATOM      7  S   UNL d   1     -54.865-102.704 -36.559  0.00  0.00    -0.046 SA
ATOM      8  C   UNL d   1     -54.842-102.013 -36.097  0.00  0.00     0.058 A 
ENDROOT
BRANCH   5   9
ATOM      9  C   UNL d   1     -54.815-102.123 -39.460  0.00  0.00     0.038 A 
ATOM     10  C   UNL d   1     -54.723-101.432 -39.894  0.00  0.00     0.005 A 
ATOM     11  C   UNL d   1     -54.716-101.457 -40.719  0.00  0.00     0.024 A 
ATOM     12  C   UNL d   1     -54.802-102.172 -41.108  0.00  0.00     0.094 A 
ATOM     13  C   UNL d   1     -54.896-102.875 -40.675  0.00  0.00     0.024 A 
ATOM     14  C   UNL d   1     -54.902-102.846 -39.852  0.00  0.00     0.005 A 
BRANCH  12  15
ATOM     15  O   UNL d   1     -54.795-102.196 -41.934  0.00  0.00    -0.328 OA
ATOM     16  C   UNL d   1     -54.721-101.491 -42.367  0.00  0.00     0.181 C 
ENDBRANCH  12  15
ENDBRANCH   5   9
BRANCH   6  17
ATOM     17  C   UNL d   1     -54.782-100.567 -36.385  0.00  0.00     0.018 A 
ATOM     18  C   UNL d   1     -54.769 -99.974 -36.957  0.00  0.00     0.002 A 
ATOM     19  C   UNL d   1     -54.739 -99.181 -36.734  0.00  0.00     0.000 A 
ATOM     20  C   UNL d   1     -54.723 -98.974 -35.929  0.00  0.00     0.000 A 
ATOM     21  C   UNL d   1     -54.736 -99.566 -35.357  0.00  0.00     0.000 A 
ATOM     22  C   UNL d   1     -54.766-100.361 -35.576  0.00  0.00     0.002 A 
ENDBRANCH   6  17
TORSDOF 3
ENDMDL
