MODEL 1
REMARK VINA RESULT:      37.6      0.000      0.000
REMARK  9 active torsions:
REMARK  status: ('A' for Active; 'I' for Inactive)
REMARK    1  A    between atoms: C_2  and  N_11 
REMARK    2  A    between atoms: S_3  and  N_22 
REMARK    3  A    between atoms: C_16  and  S_3 
REMARK    4  A    between atoms: C_21  and  C_5 
REMARK       I    between atoms: N_11  and  C_17 
REMARK    5  A    between atoms: S_23  and  C_12 
REMARK    6  A    between atoms: C_17  and  C_27 
REMARK    7  A    between atoms: C_28  and  C_21 
REMARK    8  A    between atoms: N_22  and  C_28 
REMARK    9  A    between atoms: C_27  and  S_23 
ROOT
ATOM      1  N   UNL d   1     -42.760-123.220 -49.543  0.00  0.00    -0.191 N 
ATOM      2  C   UNL d   1     -42.325-123.588 -48.942  0.00  0.00     0.187 A 
ATOM      3  C   UNL d   1     -43.554-123.225 -49.326  0.00  0.00     0.188 A 
ATOM      4  N   UNL d   1     -42.365-122.930 -50.208  0.00  0.00    -0.156 NA
ATOM      5  N   UNL d   1     -42.863-123.818 -48.357  0.00  0.00    -0.127 NA
ATOM      6  N   UNL d   1     -43.609-123.597 -48.590  0.00  0.00    -0.127 NA
ATOM      7  C   UNL d   1     -41.553-123.008 -50.270  0.00  0.00     0.131 A 
ATOM      8  C   UNL d   1     -41.513-123.665 -49.005  0.00  0.00     0.043 A 
ATOM      9  C   UNL d   1     -41.123-123.374 -49.672  0.00  0.00     0.031 A 
ENDROOT
BRANCH   7  10
ATOM     10  S   UNL d   1     -41.168-122.715 -50.940  0.00  0.00    -0.061 SA
BRANCH  10  11
ATOM     11  C   UNL d   1     -41.143-123.164 -51.635  0.00  0.00     0.099 C 
BRANCH  11  12
ATOM     12  C   UNL d   1     -41.287-122.794 -52.359  0.00  0.00     0.288 C 
ATOM     13  N   UNL d   1     -41.489-123.242 -53.007  0.00  0.00    -0.182 NA
ATOM     14  O   UNL d   1     -41.227-121.978 -52.429  0.00  0.00    -0.265 OA
BRANCH  13  15
ATOM     15  C   UNL d   1     -41.634-122.891 -53.731  0.00  0.00     0.197 A 
ATOM     16  N   UNL d   1     -42.273-122.392 -53.901  0.00  0.00    -0.221 NA
ATOM     17  C   UNL d   1     -42.202-122.165 -54.693  0.00  0.00     0.090 A 
ATOM     18  C   UNL d   1     -42.670-121.681 -55.157  0.00  0.00     0.020 A 
ATOM     19  C   UNL d   1     -41.524-122.523 -55.008  0.00  0.00     0.050 A 
ATOM     20  C   UNL d   1     -42.470-121.543 -55.949  0.00  0.00     0.002 A 
ATOM     21  C   UNL d   1     -41.782-121.908 -56.264  0.00  0.00     0.001 A 
ATOM     22  C   UNL d   1     -41.320-122.390 -55.793  0.00  0.00     0.008 A 
ATOM     23  S   UNL d   1     -41.175-122.964 -54.428  0.00  0.00    -0.047 SA
ENDBRANCH  13  15
ENDBRANCH  11  12
ENDBRANCH  10  11
ENDBRANCH   7  10
BRANCH   3  24
ATOM     24  C   UNL d   1     -44.174-122.913 -49.769  0.00  0.00     0.062 C 
BRANCH  24  25
ATOM     25  C   UNL d   1     -44.173-122.116 -49.985  0.00  0.00     0.115 C 
BRANCH  25  26
ATOM     26  N   UNL d   1     -44.804-121.807 -50.424  0.00  0.00    -0.157 NA
BRANCH  26  27
ATOM     27  S   UNL d   1     -45.250-121.178 -50.120  0.00  0.00     0.285 S 
ATOM     28  O   UNL d   1     -45.920-121.667 -50.094  0.00  0.00    -0.198 OA
ATOM     29  O   UNL d   1     -44.582-120.690 -50.145  0.00  0.00    -0.198 OA
BRANCH  27  30
ATOM     30  C   UNL d   1     -45.684-120.554 -49.820  0.00  0.00     0.105 A 
ATOM     31  C   UNL d   1     -46.242-120.168 -50.289  0.00  0.00     0.013 A 
ATOM     32  C   UNL d   1     -46.683-119.534 -49.983  0.00  0.00     0.001 A 
ATOM     33  C   UNL d   1     -46.563-119.287 -49.206  0.00  0.00     0.000 A 
ATOM     34  C   UNL d   1     -45.999-119.677 -48.732  0.00  0.00     0.001 A 
ATOM     35  C   UNL d   1     -46.993-118.664 -48.899  0.00  0.00     0.000 C 
ATOM     36  C   UNL d   1     -45.563-120.310 -49.044  0.00  0.00     0.013 A 
ENDBRANCH  27  30
ENDBRANCH  26  27
ENDBRANCH  25  26
ENDBRANCH  24  25
ENDBRANCH   3  24
TORSDOF 9
ENDMDL
MODEL 2
REMARK VINA RESULT:      38.4      2.841      3.634
REMARK  9 active torsions:
REMARK  status: ('A' for Active; 'I' for Inactive)
REMARK    1  A    between atoms: C_2  and  N_11 
REMARK    2  A    between atoms: S_3  and  N_22 
REMARK    3  A    between atoms: C_16  and  S_3 
REMARK    4  A    between atoms: C_21  and  C_5 
REMARK       I    between atoms: N_11  and  C_17 
REMARK    5  A    between atoms: S_23  and  C_12 
REMARK    6  A    between atoms: C_17  and  C_27 
REMARK    7  A    between atoms: C_28  and  C_21 
REMARK    8  A    between atoms: N_22  and  C_28 
REMARK    9  A    between atoms: C_27  and  S_23 
ROOT
ATOM      1  N   UNL d   1     -41.583-121.724 -51.169  0.00  0.00    -0.191 N 
ATOM      2  C   UNL d   1     -41.527-120.898 -51.174  0.00  0.00     0.187 A 
ATOM      3  C   UNL d   1     -41.757-121.965 -50.400  0.00  0.00     0.188 A 
ATOM      4  N   UNL d   1     -41.466-122.141 -51.871  0.00  0.00    -0.156 NA
ATOM      5  N   UNL d   1     -41.668-120.638 -50.401  0.00  0.00    -0.127 NA
ATOM      6  N   UNL d   1     -41.808-121.287 -49.932  0.00  0.00    -0.127 NA
ATOM      7  C   UNL d   1     -41.297-121.741 -52.564  0.00  0.00     0.131 A 
ATOM      8  C   UNL d   1     -41.357-120.497 -51.867  0.00  0.00     0.043 A 
ATOM      9  C   UNL d   1     -41.242-120.919 -52.567  0.00  0.00     0.031 A 
ENDROOT
BRANCH   7  10
ATOM     10  S   UNL d   1     -41.182-122.168 -53.262  0.00  0.00    -0.061 SA
BRANCH  10  11
ATOM     11  C   UNL d   1     -41.792-122.638 -53.567  0.00  0.00     0.099 C 
BRANCH  11  12
ATOM     12  C   UNL d   1     -41.997-122.566 -54.363  0.00  0.00     0.288 C 
ATOM     13  N   UNL d   1     -42.266-121.853 -54.647  0.00  0.00    -0.182 NA
ATOM     14  O   UNL d   1     -41.930-123.209 -54.870  0.00  0.00    -0.265 OA
BRANCH  13  15
ATOM     15  C   UNL d   1     -42.473-121.767 -55.434  0.00  0.00     0.197 A 
ATOM     16  N   UNL d   1     -43.201-121.983 -55.764  0.00  0.00    -0.221 NA
ATOM     17  C   UNL d   1     -43.170-121.799 -56.569  0.00  0.00     0.090 A 
ATOM     18  C   UNL d   1     -43.723-121.890 -57.163  0.00  0.00     0.020 A 
ATOM     19  C   UNL d   1     -42.426-121.471 -56.733  0.00  0.00     0.050 A 
ATOM     20  C   UNL d   1     -43.547-121.656 -57.938  0.00  0.00     0.002 A 
ATOM     21  C   UNL d   1     -42.792-121.324 -58.100  0.00  0.00     0.001 A 
ATOM     22  C   UNL d   1     -42.245-121.237 -57.500  0.00  0.00     0.008 A 
ATOM     23  S   UNL d   1     -41.999-121.450 -56.048  0.00  0.00    -0.047 SA
ENDBRANCH  13  15
ENDBRANCH  11  12
ENDBRANCH  10  11
ENDBRANCH   7  10
BRANCH   3  24
ATOM     24  C   UNL d   1     -41.860-122.744 -50.154  0.00  0.00     0.062 C 
BRANCH  24  25
ATOM     25  C   UNL d   1     -41.205-123.229 -50.020  0.00  0.00     0.115 C 
BRANCH  25  26
ATOM     26  N   UNL d   1     -41.123-123.622 -49.296  0.00  0.00    -0.157 NA
BRANCH  26  27
ATOM     27  S   UNL d   1     -41.765-123.661 -48.772  0.00  0.00     0.285 S 
ATOM     28  O   UNL d   1     -42.290-123.641 -49.414  0.00  0.00    -0.198 OA
ATOM     29  O   UNL d   1     -41.241-123.681 -48.130  0.00  0.00    -0.198 OA
BRANCH  27  30
ATOM     30  C   UNL d   1     -42.392-123.699 -48.249  0.00  0.00     0.105 A 
ATOM     31  C   UNL d   1     -42.258-123.732 -47.437  0.00  0.00     0.013 A 
ATOM     32  C   UNL d   1     -42.896-123.771 -46.906  0.00  0.00     0.001 A 
ATOM     33  C   UNL d   1     -43.669-123.777 -47.192  0.00  0.00     0.000 A 
ATOM     34  C   UNL d   1     -43.804-123.744 -48.013  0.00  0.00     0.001 A 
ATOM     35  C   UNL d   1     -44.300-123.815 -46.676  0.00  0.00     0.000 C 
ATOM     36  C   UNL d   1     -43.162-123.705 -48.537  0.00  0.00     0.013 A 
ENDBRANCH  27  30
ENDBRANCH  26  27
ENDBRANCH  25  26
ENDBRANCH  24  25
ENDBRANCH   3  24
TORSDOF 9
ENDMDL
