MODEL 1
REMARK VINA RESULT:      49.3      0.000      0.000
REMARK  7 active torsions:
REMARK  status: ('A' for Active; 'I' for Inactive)
REMARK    1  A    between atoms: C_2  and  S_1 
REMARK    2  A    between atoms: N_4  and  S_1 
REMARK    3  A    between atoms: C_13  and  N_4 
REMARK    4  A    between atoms: C_14  and  N_4 
REMARK    5  A    between atoms: O_12  and  C_7 
REMARK    6  A    between atoms: C_16  and  C_13 
REMARK    7  A    between atoms: C_17  and  C_14 
ROOT
ATOM      1  S   UNL d   1      60.998  48.208  50.713  0.00  0.00     0.271 S 
ATOM      2  O   UNL d   1      60.790  47.787  51.390  0.00  0.00    -0.200 OA
ATOM      3  O   UNL d   1      61.207  48.630  50.035  0.00  0.00    -0.200 OA
ENDROOT
BRANCH   1   4
ATOM      4  C   UNL d   1      61.276  47.521  50.370  0.00  0.00     0.106 A 
ATOM      5  C   UNL d   1      61.077  46.789  50.692  0.00  0.00     0.038 A 
ATOM      6  C   UNL d   1      61.358  46.096  50.347  0.00  0.00     0.105 A 
ATOM      7  C   UNL d   1      61.836  46.135  49.680  0.00  0.00     0.080 A 
ATOM      8  C   UNL d   1      62.036  46.863  49.356  0.00  0.00     0.014 A 
ATOM      9 CL   UNL d   1      62.116  45.440  49.335  0.00  0.00    -0.080 Cl
ATOM     10  C   UNL d   1      61.756  47.557  49.701  0.00  0.00     0.014 A 
BRANCH   6  11
ATOM     11  O   UNL d   1      61.157  45.368  50.671  0.00  0.00    -0.327 OA
ATOM     12  C   UNL d   1      60.412  45.260  51.008  0.00  0.00     0.181 C 
ENDBRANCH   6  11
ENDBRANCH   1   4
BRANCH   1  13
ATOM     13  N   UNL d   1      60.718  48.903  51.058  0.00  0.00    -0.229 N 
BRANCH  13  14
ATOM     14  C   UNL d   1      60.309  49.454  50.603  0.00  0.00     0.092 C 
BRANCH  14  15
ATOM     15  C   UNL d   1      59.559  49.708  50.837  0.00  0.00     0.020 C 
ATOM     16  C   UNL d   1      58.934  49.696  50.302  0.00  0.00     0.002 C 
ENDBRANCH  14  15
ENDBRANCH  13  14
BRANCH  13  17
ATOM     17  C   UNL d   1      60.847  49.046  51.858  0.00  0.00     0.092 C 
BRANCH  17  18
ATOM     18  C   UNL d   1      61.284  49.704  52.095  0.00  0.00     0.020 C 
ATOM     19  C   UNL d   1      61.743  49.669  52.782  0.00  0.00     0.002 C 
ENDBRANCH  17  18
ENDBRANCH  13  17
ENDBRANCH   1  13
TORSDOF 7
ENDMDL
