MODEL 1
REMARK VINA RESULT:      19.6      0.000      0.000
REMARK  4 active torsions:
REMARK  status: ('A' for Active; 'I' for Inactive)
REMARK    1  A    between atoms: N_2  and  S_1 
REMARK    2  A    between atoms: C_3  and  S_1 
REMARK    3  A    between atoms: C_4  and  N_2 
REMARK    4  A    between atoms: O_14  and  C_7 
ROOT
ATOM      1  S   UNL d   1      13.537  12.265  -2.769  0.00  0.00     0.285 S 
ATOM      2  O   UNL d   1      12.951  12.739  -2.431  0.00  0.00    -0.198 OA
ATOM      3  O   UNL d   1      14.135  11.780  -3.116  0.00  0.00    -0.198 OA
ENDROOT
BRANCH   1   4
ATOM      4  N   UNL d   1      13.108  12.233  -3.472  0.00  0.00    -0.156 NA
BRANCH   4   5
ATOM      5  C   UNL d   1      13.113  12.871  -3.990  0.00  0.00     0.116 A 
ATOM      6  C   UNL d   1      13.217  12.758  -4.800  0.00  0.00     0.112 A 
ATOM      7  C   UNL d   1      13.222  13.397  -5.318  0.00  0.00     0.026 A 
ATOM      8  C   UNL d   1      13.122  14.163  -5.037  0.00  0.00     0.002 A 
ATOM      9  C   UNL d   1      13.017  14.282  -4.227  0.00  0.00     0.002 A 
ATOM     10  C   UNL d   1      13.013  13.644  -3.709  0.00  0.00     0.022 A 
BRANCH   6  11
ATOM     11  O   UNL d   1      13.320  11.962  -5.086  0.00  0.00    -0.327 OA
ATOM     12  C   UNL d   1      13.207  11.780  -5.880  0.00  0.00     0.181 C 
ENDBRANCH   6  11
ENDBRANCH   4   5
ENDBRANCH   1   4
BRANCH   1  13
ATOM     13  C   UNL d   1      13.978  12.296  -2.051  0.00  0.00     0.105 A 
ATOM     14  C   UNL d   1      13.763  11.803  -1.418  0.00  0.00     0.014 A 
ATOM     15  C   UNL d   1      14.202  11.840  -0.717  0.00  0.00     0.012 A 
ATOM     16  C   UNL d   1      14.853  12.367  -0.646  0.00  0.00     0.058 A 
ATOM     17  C   UNL d   1      15.054  12.847  -1.277  0.00  0.00     0.012 A 
ATOM     18 CL   UNL d   1      15.282  12.432  -0.016  0.00  0.00    -0.082 Cl
ATOM     19  C   UNL d   1      14.630  12.823  -1.980  0.00  0.00     0.014 A 
ENDBRANCH   1  13
TORSDOF 4
ENDMDL
MODEL 2
REMARK VINA RESULT:      21.9      1.819      3.895
REMARK  4 active torsions:
REMARK  status: ('A' for Active; 'I' for Inactive)
REMARK    1  A    between atoms: N_2  and  S_1 
REMARK    2  A    between atoms: C_3  and  S_1 
REMARK    3  A    between atoms: C_4  and  N_2 
REMARK    4  A    between atoms: O_14  and  C_7 
ROOT
ATOM      1  S   UNL d   1      13.813  12.993  -2.789  0.00  0.00     0.285 S 
ATOM      2  O   UNL d   1      13.802  13.778  -3.047  0.00  0.00    -0.198 OA
ATOM      3  O   UNL d   1      13.825  12.192  -2.522  0.00  0.00    -0.198 OA
ENDROOT
BRANCH   1   4
ATOM      4  N   UNL d   1      14.073  13.240  -2.047  0.00  0.00    -0.156 NA
BRANCH   4   5
ATOM      5  C   UNL d   1      13.969  12.757  -1.390  0.00  0.00     0.116 A 
ATOM      6  C   UNL d   1      14.573  12.661  -0.835  0.00  0.00     0.112 A 
ATOM      7  C   UNL d   1      14.469  12.178  -0.178  0.00  0.00     0.026 A 
ATOM      8  C   UNL d   1      13.759  11.779  -0.061  0.00  0.00     0.002 A 
ATOM      9  C   UNL d   1      13.152  11.871  -0.612  0.00  0.00     0.002 A 
ATOM     10  C   UNL d   1      13.256  12.354  -1.269  0.00  0.00     0.022 A 
BRANCH   6  11
ATOM     11  O   UNL d   1      15.306  13.076  -0.962  0.00  0.00    -0.327 OA
ATOM     12  C   UNL d   1      15.716  13.411  -0.333  0.00  0.00     0.181 C 
ENDBRANCH   6  11
ENDBRANCH   4   5
ENDBRANCH   1   4
BRANCH   1  13
ATOM     13  C   UNL d   1      13.547  12.738  -3.547  0.00  0.00     0.105 A 
ATOM     14  C   UNL d   1      13.129  12.022  -3.614  0.00  0.00     0.014 A 
ATOM     15  C   UNL d   1      12.871  11.779  -4.361  0.00  0.00     0.012 A 
ATOM     16  C   UNL d   1      13.029  12.247  -5.042  0.00  0.00     0.058 A 
ATOM     17  C   UNL d   1      13.441  12.949  -4.963  0.00  0.00     0.012 A 
ATOM     18 CL   UNL d   1      12.808  12.057  -5.750  0.00  0.00    -0.082 Cl
ATOM     19  C   UNL d   1      13.705  13.205  -4.228  0.00  0.00     0.014 A 
ENDBRANCH   1  13
TORSDOF 4
ENDMDL
