MODEL 1
REMARK VINA RESULT:      55.6      0.000      0.000
REMARK  3 active torsions:
REMARK  status: ('A' for Active; 'I' for Inactive)
REMARK    1  A    between atoms: N_4  and  C_1 
REMARK       I    between atoms: C_7  and  N_4 
REMARK    2  A    between atoms: C_10  and  C_7 
REMARK    3  A    between atoms: O_16  and  C_15 
ROOT
ATOM      1  N   UNL d   1     -49.884  27.364  33.702  0.00  0.00    -0.183 NA
ATOM      2  C   UNL d   1     -49.374  27.515  34.336  0.00  0.00     0.281 C 
ATOM      3  O   UNL d   1     -49.217  26.912  34.893  0.00  0.00    -0.265 OA
ENDROOT
BRANCH   1   4
ATOM      4  C   UNL d   1     -50.240  26.618  33.616  0.00  0.00     0.197 A 
ATOM      5  N   UNL d   1     -49.836  25.897  33.519  0.00  0.00    -0.221 NA
ATOM      6  C   UNL d   1     -50.403  25.294  33.455  0.00  0.00     0.092 A 
ATOM      7  C   UNL d   1     -50.328  24.479  33.352  0.00  0.00     0.039 A 
ATOM      8  C   UNL d   1     -51.158  25.641  33.511  0.00  0.00     0.068 A 
ATOM      9  C   UNL d   1     -51.014  24.004  33.306  0.00  0.00     0.082 A 
ATOM     10  N   UNL d   1     -51.758  24.351  33.362  0.00  0.00    -0.301 N 
ATOM     11  C   UNL d   1     -51.827  25.167  33.464  0.00  0.00     0.088 A 
ATOM     12  C   UNL d   1     -52.441  23.873  33.315  0.00  0.00     0.100 C 
ATOM     13  S   UNL d   1     -51.051  26.456  33.610  0.00  0.00    -0.045 SA
ENDBRANCH   1   4
BRANCH   2  14
ATOM     14  C   UNL d   1     -49.020  28.256  34.421  0.00  0.00     0.060 A 
ATOM     15  C   UNL d   1     -48.431  28.369  34.983  0.00  0.00     0.029 A 
ATOM     16  C   UNL d   1     -48.082  29.105  35.066  0.00  0.00     0.094 A 
ATOM     17  C   UNL d   1     -48.319  29.732  34.587  0.00  0.00     0.024 A 
ATOM     18  C   UNL d   1     -48.911  29.611  34.025  0.00  0.00     0.002 A 
ATOM     19  C   UNL d   1     -49.260  28.875  33.942  0.00  0.00     0.005 A 
BRANCH  16  20
ATOM     20  O   UNL d   1     -47.478  29.228  35.640  0.00  0.00    -0.328 OA
ATOM     21  C   UNL d   1     -47.066  29.943  35.670  0.00  0.00     0.181 C 
ENDBRANCH  16  20
ENDBRANCH   2  14
TORSDOF 3
ENDMDL
MODEL 2
REMARK VINA RESULT:      56.0      1.999      5.405
REMARK  3 active torsions:
REMARK  status: ('A' for Active; 'I' for Inactive)
REMARK    1  A    between atoms: N_4  and  C_1 
REMARK       I    between atoms: C_7  and  N_4 
REMARK    2  A    between atoms: C_10  and  C_7 
REMARK    3  A    between atoms: O_16  and  C_15 
ROOT
ATOM      1  N   UNL d   1     -51.370  25.298  33.461  0.00  0.00    -0.183 NA
ATOM      2  C   UNL d   1     -52.182  25.301  33.622  0.00  0.00     0.281 C 
ATOM      3  O   UNL d   1     -52.559  26.016  33.836  0.00  0.00    -0.265 OA
ENDROOT
BRANCH   1   4
ATOM      4  C   UNL d   1     -50.929  26.000  33.511  0.00  0.00     0.197 A 
ATOM      5  N   UNL d   1     -50.143  26.060  33.780  0.00  0.00    -0.221 NA
ATOM      6  C   UNL d   1     -49.919  26.858  33.739  0.00  0.00     0.092 A 
ATOM      7  C   UNL d   1     -49.214  27.241  33.931  0.00  0.00     0.039 A 
ATOM      8  C   UNL d   1     -50.565  27.294  33.444  0.00  0.00     0.068 A 
ATOM      9  C   UNL d   1     -49.153  28.068  33.827  0.00  0.00     0.082 A 
ATOM     10  N   UNL d   1     -49.793  28.494  33.536  0.00  0.00    -0.301 N 
ATOM     11  C   UNL d   1     -50.496  28.106  33.346  0.00  0.00     0.088 A 
ATOM     12  C   UNL d   1     -49.728  29.320  33.435  0.00  0.00     0.100 C 
ATOM     13  S   UNL d   1     -51.183  26.759  33.306  0.00  0.00    -0.045 SA
ENDBRANCH   1   4
BRANCH   2  14
ATOM     14  C   UNL d   1     -52.621  24.603  33.572  0.00  0.00     0.060 A 
ATOM     15  C   UNL d   1     -53.435  24.636  33.465  0.00  0.00     0.029 A 
ATOM     16  C   UNL d   1     -53.868  23.943  33.416  0.00  0.00     0.094 A 
ATOM     17  C   UNL d   1     -53.490  23.213  33.472  0.00  0.00     0.024 A 
ATOM     18  C   UNL d   1     -52.672  23.189  33.579  0.00  0.00     0.002 A 
ATOM     19  C   UNL d   1     -52.239  23.882  33.629  0.00  0.00     0.005 A 
BRANCH  16  20
ATOM     20  O   UNL d   1     -54.703  23.969  33.306  0.00  0.00    -0.328 OA
ATOM     21  C   UNL d   1     -55.169  24.490  33.746  0.00  0.00     0.181 C 
ENDBRANCH  16  20
ENDBRANCH   2  14
TORSDOF 3
ENDMDL
MODEL 3
REMARK VINA RESULT:      58.5      1.613      4.998
REMARK  3 active torsions:
REMARK  status: ('A' for Active; 'I' for Inactive)
REMARK    1  A    between atoms: N_4  and  C_1 
REMARK       I    between atoms: C_7  and  N_4 
REMARK    2  A    between atoms: C_10  and  C_7 
REMARK    3  A    between atoms: O_16  and  C_15 
ROOT
ATOM      1  N   UNL d   1     -49.590  27.401  34.704  0.00  0.00    -0.183 NA
ATOM      2  C   UNL d   1     -49.726  27.201  33.912  0.00  0.00     0.281 C 
ATOM      3  O   UNL d   1     -49.276  27.568  33.310  0.00  0.00    -0.265 OA
ENDROOT
BRANCH   1   4
ATOM      4  C   UNL d   1     -49.011  27.962  34.904  0.00  0.00     0.197 A 
ATOM      5  N   UNL d   1     -48.237  27.789  35.159  0.00  0.00    -0.221 NA
ATOM      6  C   UNL d   1     -47.847  28.509  35.298  0.00  0.00     0.092 A 
ATOM      7  C   UNL d   1     -47.083  28.678  35.555  0.00  0.00     0.039 A 
ATOM      8  C   UNL d   1     -48.379  29.128  35.128  0.00  0.00     0.068 A 
ATOM      9  C   UNL d   1     -46.844  29.474  35.644  0.00  0.00     0.082 A 
ATOM     10  N   UNL d   1     -47.371  30.082  35.475  0.00  0.00    -0.301 N 
ATOM     11  C   UNL d   1     -48.136  29.907  35.219  0.00  0.00     0.088 A 
ATOM     12  C   UNL d   1     -47.129  30.876  35.565  0.00  0.00     0.100 C 
ATOM     13  S   UNL d   1     -49.093  28.784  34.887  0.00  0.00    -0.045 SA
ENDBRANCH   1   4
BRANCH   2  14
ATOM     14  C   UNL d   1     -50.302  26.644  33.714  0.00  0.00     0.060 A 
ATOM     15  C   UNL d   1     -50.106  25.847  33.672  0.00  0.00     0.029 A 
ATOM     16  C   UNL d   1     -50.678  25.296  33.476  0.00  0.00     0.094 A 
ATOM     17  C   UNL d   1     -51.451  25.539  33.320  0.00  0.00     0.024 A 
ATOM     18  C   UNL d   1     -51.640  26.341  33.365  0.00  0.00     0.002 A 
ATOM     19  C   UNL d   1     -51.067  26.891  33.561  0.00  0.00     0.005 A 
BRANCH  16  20
ATOM     20  O   UNL d   1     -50.485  24.477  33.431  0.00  0.00    -0.328 OA
ATOM     21  C   UNL d   1     -51.075  23.912  33.306  0.00  0.00     0.181 C 
ENDBRANCH  16  20
ENDBRANCH   2  14
TORSDOF 3
ENDMDL
