MODEL 1
REMARK VINA RESULT:      -6.2      0.000      0.000
REMARK  7 active torsions:
REMARK  status: ('A' for Active; 'I' for Inactive)
REMARK    1  A    between atoms: C_10  and  C_4 
REMARK    2  A    between atoms: N_12  and  C_5 
REMARK    3  A    between atoms: C_11  and  C_8 
REMARK    4  A    between atoms: C_21  and  N_12 
REMARK    5  A    between atoms: N_16  and  C_25 
REMARK    6  A    between atoms: C_20  and  C_21 
REMARK    7  A    between atoms: C_25  and  C_20 
ROOT
ATOM      1  C   UNL d   1     -47.738  13.164  23.109  0.00  0.00     0.168 A 
ATOM      2  N   UNL d   1     -47.088  12.669  23.275  0.00  0.00    -0.184 N 
ATOM      3  N   UNL d   1     -48.479  12.837  23.024  0.00  0.00    -0.231 NA
ATOM      4  C   UNL d   1     -47.628  13.959  23.036  0.00  0.00     0.057 A 
ATOM      5  C   UNL d   1     -47.209  11.871  23.347  0.00  0.00     0.217 A 
ATOM      6  N   UNL d   1     -46.246  13.786  23.286  0.00  0.00    -0.160 NA
ATOM      7  C   UNL d   1     -47.949  11.539  23.262  0.00  0.00     0.067 A 
ATOM      8  C   UNL d   1     -48.597  12.031  23.097  0.00  0.00     0.064 A 
ATOM      9  C   UNL d   1     -46.883  14.271  23.124  0.00  0.00     0.124 A 
ENDROOT
BRANCH   4  10
ATOM     10  C   UNL d   1     -48.266  14.444  22.873  0.00  0.00     0.005 A 
ATOM     11  C   UNL d   1     -48.750  14.705  23.471  0.00  0.00     0.001 A 
ATOM     12  C   UNL d   1     -49.394  15.195  23.307  0.00  0.00     0.011 A 
ATOM     13  C   UNL d   1     -49.546  15.418  22.547  0.00  0.00     0.058 A 
ATOM     14  C   UNL d   1     -49.052  15.151  21.942  0.00  0.00     0.011 A 
ATOM     15 CL   UNL d   1     -50.206  15.920  22.379  0.00  0.00    -0.082 Cl
ATOM     16  C   UNL d   1     -48.425  14.674  22.101  0.00  0.00     0.001 A 
ENDBRANCH   4  10
BRANCH   5  17
ATOM     17  N   UNL d   1     -46.545  11.366  23.516  0.00  0.00    -0.380 NA
BRANCH  17  18
ATOM     18  C   UNL d   1     -45.934  10.812  23.697  0.00  0.00     0.164 C 
BRANCH  18  19
ATOM     19  C   UNL d   1     -45.170  10.920  23.357  0.00  0.00     0.054 C 
BRANCH  19  20
ATOM     20  C   UNL d   1     -44.552  10.349  23.524  0.00  0.00     0.083 C 
BRANCH  20  21
ATOM     21  N   UNL d   1     -43.779  10.460  23.203  0.00  0.00    -0.300 N 
ATOM     22  C   UNL d   1     -43.652   9.620  23.148  0.00  0.00     0.100 C 
ATOM     23  C   UNL d   1     -43.164  10.980  22.947  0.00  0.00     0.100 C 
ENDBRANCH  20  21
ENDBRANCH  19  20
ENDBRANCH  18  19
ENDBRANCH  17  18
ENDBRANCH   5  17
BRANCH   8  24
ATOM     24  C   UNL d   1     -49.376  11.697  23.006  0.00  0.00     0.036 C 
ATOM     25  C   UNL d   1     -50.149  11.364  22.920  0.00  0.00     0.006 C 
ATOM     26  C   UNL d   1     -49.717  11.618  22.228  0.00  0.00     0.006 C 
ATOM     27  C   UNL d   1     -49.808  11.441  23.698  0.00  0.00     0.006 C 
ENDBRANCH   8  24
TORSDOF 7
ENDMDL
MODEL 2
REMARK VINA RESULT:      -3.9      1.757      3.121
REMARK  7 active torsions:
REMARK  status: ('A' for Active; 'I' for Inactive)
REMARK    1  A    between atoms: C_10  and  C_4 
REMARK    2  A    between atoms: N_12  and  C_5 
REMARK    3  A    between atoms: C_11  and  C_8 
REMARK    4  A    between atoms: C_21  and  N_12 
REMARK    5  A    between atoms: N_16  and  C_25 
REMARK    6  A    between atoms: C_20  and  C_21 
REMARK    7  A    between atoms: C_25  and  C_20 
ROOT
ATOM      1  C   UNL d   1     -47.314  12.441  22.797  0.00  0.00     0.168 A 
ATOM      2  N   UNL d   1     -46.484  12.364  22.773  0.00  0.00    -0.184 N 
ATOM      3  N   UNL d   1     -47.654  13.167  22.657  0.00  0.00    -0.231 NA
ATOM      4  C   UNL d   1     -47.772  11.797  22.958  0.00  0.00     0.057 A 
ATOM      5  C   UNL d   1     -46.033  13.016  22.610  0.00  0.00     0.217 A 
ATOM      6  N   UNL d   1     -46.606  11.003  23.072  0.00  0.00    -0.160 NA
ATOM      7  C   UNL d   1     -46.368  13.747  22.469  0.00  0.00     0.067 A 
ATOM      8  C   UNL d   1     -47.194  13.824  22.493  0.00  0.00     0.064 A 
ATOM      9  C   UNL d   1     -47.419  11.078  23.096  0.00  0.00     0.124 A 
ENDROOT
BRANCH   4  10
ATOM     10  C   UNL d   1     -48.585  11.872  22.981  0.00  0.00     0.005 A 
ATOM     11  C   UNL d   1     -48.964  12.062  23.674  0.00  0.00     0.001 A 
ATOM     12  C   UNL d   1     -49.785  12.138  23.698  0.00  0.00     0.011 A 
ATOM     13  C   UNL d   1     -50.219  12.023  23.028  0.00  0.00     0.058 A 
ATOM     14  C   UNL d   1     -49.832  11.831  22.324  0.00  0.00     0.011 A 
ATOM     15 CL   UNL d   1     -51.061  12.102  23.052  0.00  0.00    -0.082 Cl
ATOM     16  C   UNL d   1     -49.031  11.757  22.301  0.00  0.00     0.001 A 
ENDBRANCH   4  10
BRANCH   5  17
ATOM     17  N   UNL d   1     -45.186  12.938  22.586  0.00  0.00    -0.380 NA
BRANCH  17  18
ATOM     18  C   UNL d   1     -44.348  12.885  22.494  0.00  0.00     0.164 C 
BRANCH  18  19
ATOM     19  C   UNL d   1     -44.009  13.052  21.739  0.00  0.00     0.054 C 
BRANCH  19  20
ATOM     20  C   UNL d   1     -43.216  12.772  21.565  0.00  0.00     0.083 C 
BRANCH  20  21
ATOM     21  N   UNL d   1     -42.646  13.302  21.240  0.00  0.00    -0.300 N 
ATOM     22  C   UNL d   1     -42.768  12.997  20.456  0.00  0.00     0.100 C 
ATOM     23  C   UNL d   1     -42.082  13.923  21.351  0.00  0.00     0.100 C 
ENDBRANCH  20  21
ENDBRANCH  19  20
ENDBRANCH  18  19
ENDBRANCH  17  18
ENDBRANCH   5  17
BRANCH   8  24
ATOM     24  C   UNL d   1     -47.557  14.581  22.347  0.00  0.00     0.036 C 
ATOM     25  C   UNL d   1     -47.918  15.332  22.198  0.00  0.00     0.006 C 
ATOM     26  C   UNL d   1     -47.604  15.159  22.974  0.00  0.00     0.006 C 
ATOM     27  C   UNL d   1     -47.872  14.755  21.571  0.00  0.00     0.006 C 
ENDBRANCH   8  24
TORSDOF 7
ENDMDL
MODEL 3
REMARK VINA RESULT:      -3.4      8.480      9.629
REMARK  7 active torsions:
REMARK  status: ('A' for Active; 'I' for Inactive)
REMARK    1  A    between atoms: C_10  and  C_4 
REMARK    2  A    between atoms: N_12  and  C_5 
REMARK    3  A    between atoms: C_11  and  C_8 
REMARK    4  A    between atoms: C_21  and  N_12 
REMARK    5  A    between atoms: N_16  and  C_25 
REMARK    6  A    between atoms: C_20  and  C_21 
REMARK    7  A    between atoms: C_25  and  C_20 
ROOT
ATOM      1  C   UNL d   1     -39.609  14.853  18.859  0.00  0.00     0.168 A 
ATOM      2  N   UNL d   1     -39.261  14.776  19.613  0.00  0.00    -0.184 N 
ATOM      3  N   UNL d   1     -39.378  14.354  18.259  0.00  0.00    -0.231 NA
ATOM      4  C   UNL d   1     -40.170  15.418  18.732  0.00  0.00     0.057 A 
ATOM      5  C   UNL d   1     -38.699  14.205  19.731  0.00  0.00     0.217 A 
ATOM      6  N   UNL d   1     -40.050  15.834  20.079  0.00  0.00    -0.160 NA
ATOM      7  C   UNL d   1     -38.464  13.703  19.133  0.00  0.00     0.067 A 
ATOM      8  C   UNL d   1     -38.810  13.779  18.382  0.00  0.00     0.064 A 
ATOM      9  C   UNL d   1     -40.390  15.909  19.341  0.00  0.00     0.124 A 
ENDROOT
BRANCH   4  10
ATOM     10  C   UNL d   1     -40.510  15.493  17.993  0.00  0.00     0.005 A 
ATOM     11  C   UNL d   1     -40.105  15.846  17.384  0.00  0.00     0.001 A 
ATOM     12  C   UNL d   1     -40.449  15.922  16.638  0.00  0.00     0.011 A 
ATOM     13  C   UNL d   1     -41.195  15.643  16.509  0.00  0.00     0.058 A 
ATOM     14  C   UNL d   1     -41.605  15.285  17.129  0.00  0.00     0.011 A 
ATOM     15 CL   UNL d   1     -41.547  15.721  15.744  0.00  0.00    -0.082 Cl
ATOM     16  C   UNL d   1     -41.269  15.211  17.856  0.00  0.00     0.001 A 
ENDBRANCH   4  10
BRANCH   5  17
ATOM     17  N   UNL d   1     -38.344  14.128  20.501  0.00  0.00    -0.380 NA
BRANCH  17  18
ATOM     18  C   UNL d   1     -37.940  14.096  21.242  0.00  0.00     0.164 C 
BRANCH  18  19
ATOM     19  C   UNL d   1     -38.392  14.087  21.954  0.00  0.00     0.054 C 
BRANCH  19  20
ATOM     20  C   UNL d   1     -38.203  13.514  22.564  0.00  0.00     0.083 C 
BRANCH  20  21
ATOM     21  N   UNL d   1     -38.738  13.390  23.205  0.00  0.00    -0.300 N 
ATOM     22  C   UNL d   1     -38.317  13.942  23.697  0.00  0.00     0.100 C 
ATOM     23  C   UNL d   1     -39.420  13.003  23.521  0.00  0.00     0.100 C 
ENDBRANCH  20  21
ENDBRANCH  19  20
ENDBRANCH  18  19
ENDBRANCH  17  18
ENDBRANCH   5  17
BRANCH   8  24
ATOM     24  C   UNL d   1     -38.573  13.260  17.748  0.00  0.00     0.036 C 
ATOM     25  C   UNL d   1     -38.336  12.750  17.116  0.00  0.00     0.006 C 
ATOM     26  C   UNL d   1     -38.683  12.417  17.824  0.00  0.00     0.006 C 
ATOM     27  C   UNL d   1     -38.226  13.592  17.040  0.00  0.00     0.006 C 
ENDBRANCH   8  24
TORSDOF 7
ENDMDL
