MODEL 1
REMARK VINA RESULT:      -1.7      0.000      0.000
REMARK  7 active torsions:
REMARK  status: ('A' for Active; 'I' for Inactive)
REMARK    1  A    between atoms: C_3  and  C_1 
REMARK    2  A    between atoms: C_6  and  C_2 
REMARK       I    between atoms: N_5  and  C_3 
REMARK    3  A    between atoms: C_9  and  N_5 
REMARK    4  A    between atoms: N_10  and  C_9 
REMARK    5  A    between atoms: C_15  and  N_10 
REMARK    6  A    between atoms: C_13  and  C_15 
REMARK    7  A    between atoms: C_17  and  C_13 
ROOT
ATOM      1  C   UNL d   1     -42.541-122.415 -50.524  0.00  0.00     0.285 C 
ATOM      2  N   UNL d   1     -42.200-122.903 -51.093  0.00  0.00    -0.179 NA
ATOM      3  O   UNL d   1     -42.247-121.654 -50.397  0.00  0.00    -0.265 OA
ENDROOT
BRANCH   1   4
ATOM      4  C   UNL d   1     -43.185-122.698 -50.076  0.00  0.00     0.103 A 
ATOM      5  C   UNL d   1     -43.138-123.108 -49.369  0.00  0.00     0.116 A 
ATOM      6  N   UNL d   1     -43.901-123.280 -49.120  0.00  0.00    -0.126 NA
ATOM      7  O   UNL d   1     -44.422-122.971 -49.681  0.00  0.00    -0.211 OA
ATOM      8  C   UNL d   1     -43.978-122.613 -50.269  0.00  0.00     0.131 A 
ATOM      9  C   UNL d   1     -44.288-122.235 -50.936  0.00  0.00     0.029 C 
BRANCH   5  10
ATOM     10  C   UNL d   1     -42.465-123.330 -48.948  0.00  0.00     0.031 A 
ATOM     11  C   UNL d   1     -42.456-123.291 -48.127  0.00  0.00     0.059 A 
ATOM     12 CL   UNL d   1     -43.130-123.025 -47.711  0.00  0.00    -0.082 Cl
ATOM     13  C   UNL d   1     -41.791-123.510 -47.710  0.00  0.00     0.011 A 
ATOM     14  C   UNL d   1     -41.123-123.772 -48.117  0.00  0.00     0.001 A 
ATOM     15  C   UNL d   1     -41.126-123.814 -48.931  0.00  0.00     0.000 A 
ATOM     16  C   UNL d   1     -41.796-123.593 -49.355  0.00  0.00     0.002 A 
ENDBRANCH   5  10
ENDBRANCH   1   4
BRANCH   2  17
ATOM     17  C   UNL d   1     -41.564-122.630 -51.539  0.00  0.00     0.224 C 
ATOM     18  S   UNL d   1     -41.123-121.984 -51.273  0.00  0.00    -0.037 SA
BRANCH  17  19
ATOM     19  N   UNL d   1     -41.370-123.002 -52.248  0.00  0.00    -0.212 NA
BRANCH  19  20
ATOM     20  C   UNL d   1     -41.427-122.583 -52.958  0.00  0.00     0.143 C 
BRANCH  20  21
ATOM     21  C   UNL d   1     -41.432-122.984 -53.682  0.00  0.00     0.215 C 
ATOM     22  O   UNL d   1     -41.133-123.746 -53.737  0.00  0.00    -0.285 OA
BRANCH  21  23
ATOM     23  C   UNL d   1     -41.741-122.614 -54.352  0.00  0.00     0.041 A 
ATOM     24  C   UNL d   1     -42.549-122.617 -54.494  0.00  0.00     0.003 A 
ATOM     25  C   UNL d   1     -42.859-122.247 -55.164  0.00  0.00     0.000 A 
ATOM     26  C   UNL d   1     -42.348-121.869 -55.694  0.00  0.00     0.000 A 
ATOM     27  C   UNL d   1     -41.541-121.866 -55.552  0.00  0.00     0.000 A 
ATOM     28  C   UNL d   1     -41.231-122.236 -54.882  0.00  0.00     0.003 A 
ENDBRANCH  21  23
ENDBRANCH  20  21
ENDBRANCH  19  20
ENDBRANCH  17  19
ENDBRANCH   2  17
TORSDOF 7
ENDMDL
