MODEL 1
REMARK VINA RESULT:       5.2      0.000      0.000
REMARK  3 active torsions:
REMARK  status: ('A' for Active; 'I' for Inactive)
REMARK    1  A    between atoms: C_16  and  N_3 
REMARK    2  A    between atoms: C_10  and  C_5 
REMARK    3  A    between atoms: C_26  and  C_16 
ROOT
ATOM      1  C   UNL d   1     -41.757-122.222 -51.501  0.00  0.00     0.083 A 
ATOM      2  C   UNL d   1     -41.875-123.011 -51.702  0.00  0.00     0.161 A 
ATOM      3  N   UNL d   1     -41.434-122.378 -52.795  0.00  0.00    -0.268 N 
ATOM      4  C   UNL d   1     -41.677-123.113 -52.502  0.00  0.00     0.288 A 
ATOM      5  C   UNL d   1     -41.484-121.826 -52.175  0.00  0.00     0.072 A 
ATOM      6  C   UNL d   1     -41.910-121.958 -50.736  0.00  0.00     0.201 A 
ATOM      7  O   UNL d   1     -42.151-123.545 -51.128  0.00  0.00    -0.302 OA
ATOM      8  C   UNL d   1     -42.184-122.491 -50.168  0.00  0.00     0.062 A 
ATOM      9  C   UNL d   1     -42.303-123.281 -50.365  0.00  0.00     0.103 A 
ATOM     10  O   UNL d   1     -41.714-123.812 -52.926  0.00  0.00    -0.264 OA
ATOM     11  O   UNL d   1     -41.792-121.169 -50.534  0.00  0.00    -0.286 OA
ATOM     12  C   UNL d   1     -42.338-122.228 -49.398  0.00  0.00     0.012 A 
ATOM     13  C   UNL d   1     -42.580-123.812 -49.786  0.00  0.00     0.025 A 
ATOM     14  C   UNL d   1     -42.611-122.753 -48.829  0.00  0.00     0.035 A 
ATOM     15  C   UNL d   1     -42.732-123.548 -49.023  0.00  0.00     0.009 A 
ATOM     16 BR   UNL d   1     -42.763-122.492 -48.068  0.00  0.00    -0.049 Br
ENDROOT
BRANCH   5  17
ATOM     17  C   UNL d   1     -41.364-121.036 -51.978  0.00  0.00     0.019 A 
ATOM     18  C   UNL d   1     -41.322-120.457 -52.568  0.00  0.00     0.031 A 
ATOM     19  C   UNL d   1     -41.203-119.669 -52.367  0.00  0.00     0.140 A 
ATOM     20  F   UNL d   1     -41.162-119.098 -52.958  0.00  0.00    -0.204 F 
ATOM     21  C   UNL d   1     -41.123-119.447 -51.569  0.00  0.00     0.030 A 
ATOM     22  C   UNL d   1     -41.165-120.026 -50.978  0.00  0.00     0.002 A 
ATOM     23  C   UNL d   1     -41.286-120.822 -51.186  0.00  0.00     0.002 A 
ENDBRANCH   5  17
BRANCH   3  24
ATOM     24  C   UNL d   1     -41.187-122.219 -53.564  0.00  0.00     0.129 C 
BRANCH  24  25
ATOM     25  C   UNL d   1     -41.522-122.629 -54.194  0.00  0.00     0.253 C 
ATOM     26  O   UNL d   1     -41.401-122.371 -54.965  0.00  0.00    -0.281 OA
ENDBRANCH  24  25
ENDBRANCH   3  24
TORSDOF 3
ENDMDL
MODEL 2
REMARK VINA RESULT:       7.0      1.549      2.768
REMARK  3 active torsions:
REMARK  status: ('A' for Active; 'I' for Inactive)
REMARK    1  A    between atoms: C_16  and  N_3 
REMARK    2  A    between atoms: C_10  and  C_5 
REMARK    3  A    between atoms: C_26  and  C_16 
ROOT
ATOM      1  C   UNL d   1     -41.428-121.783 -52.264  0.00  0.00     0.083 A 
ATOM      2  C   UNL d   1     -41.308-121.061 -51.888  0.00  0.00     0.161 A 
ATOM      3  N   UNL d   1     -41.389-120.823 -53.202  0.00  0.00    -0.268 N 
ATOM      4  C   UNL d   1     -41.283-120.463 -52.464  0.00  0.00     0.288 A 
ATOM      5  C   UNL d   1     -41.479-121.640 -53.078  0.00  0.00     0.072 A 
ATOM      6  C   UNL d   1     -41.476-122.480 -51.826  0.00  0.00     0.201 A 
ATOM      7  O   UNL d   1     -41.235-121.035 -51.060  0.00  0.00    -0.302 OA
ATOM      8  C   UNL d   1     -41.404-122.450 -51.005  0.00  0.00     0.062 A 
ATOM      9  C   UNL d   1     -41.284-121.730 -50.625  0.00  0.00     0.103 A 
ATOM     10  O   UNL d   1     -41.174-119.663 -52.329  0.00  0.00    -0.264 OA
ATOM     11  O   UNL d   1     -41.596-123.202 -52.202  0.00  0.00    -0.286 OA
ATOM     12  C   UNL d   1     -41.452-123.149 -50.563  0.00  0.00     0.012 A 
ATOM     13  C   UNL d   1     -41.211-121.710 -49.795  0.00  0.00     0.025 A 
ATOM     14  C   UNL d   1     -41.380-123.126 -49.745  0.00  0.00     0.035 A 
ATOM     15  C   UNL d   1     -41.260-122.405 -49.360  0.00  0.00     0.009 A 
ATOM     16 BR   UNL d   1     -41.428-123.817 -49.309  0.00  0.00    -0.049 Br
ENDROOT
BRANCH   5  17
ATOM     17  C   UNL d   1     -41.599-122.360 -53.458  0.00  0.00     0.019 A 
ATOM     18  C   UNL d   1     -42.183-122.438 -54.038  0.00  0.00     0.031 A 
ATOM     19  C   UNL d   1     -42.300-123.159 -54.415  0.00  0.00     0.140 A 
ATOM     20  F   UNL d   1     -42.884-123.229 -54.991  0.00  0.00    -0.204 F 
ATOM     21  C   UNL d   1     -41.831-123.817 -54.217  0.00  0.00     0.030 A 
ATOM     22  C   UNL d   1     -41.245-123.740 -53.636  0.00  0.00     0.002 A 
ATOM     23  C   UNL d   1     -41.131-123.009 -53.258  0.00  0.00     0.002 A 
ENDBRANCH   5  17
BRANCH   3  24
ATOM     24  C   UNL d   1     -41.404-120.440 -53.931  0.00  0.00     0.129 C 
BRANCH  24  25
ATOM     25  C   UNL d   1     -42.121-120.195 -54.250  0.00  0.00     0.253 C 
ATOM     26  O   UNL d   1     -42.198-120.093 -55.062  0.00  0.00    -0.281 OA
ENDBRANCH  24  25
ENDBRANCH   3  24
TORSDOF 3
ENDMDL
