MODEL 1
REMARK VINA RESULT:      -9.0      0.000      0.000
REMARK  4 active torsions:
REMARK  status: ('A' for Active; 'I' for Inactive)
REMARK    1  A    between atoms: C_2  and  S_1 
REMARK    2  A    between atoms: N_3  and  S_1 
REMARK    3  A    between atoms: C_7  and  N_4 
REMARK    4  A    between atoms: O_16  and  C_13 
ROOT
ATOM      1  N   UNL d   1      54.357  33.209  54.581  0.00  0.00    -0.226 N 
ATOM      2  N   UNL d   1      53.771  31.793  53.957  0.00  0.00    -0.300 N 
ATOM      3  C   UNL d   1      54.563  32.989  53.801  0.00  0.00     0.111 A 
ATOM      4  C   UNL d   1      53.871  32.732  55.035  0.00  0.00     0.111 A 
ATOM      5  C   UNL d   1      53.577  32.022  54.722  0.00  0.00     0.100 A 
ATOM      6  C   UNL d   1      54.256  32.274  53.510  0.00  0.00     0.100 A 
ENDROOT
BRANCH   1   7
ATOM      7  S   UNL d   1      54.650  33.915  54.892  0.00  0.00     0.274 S 
ATOM      8  O   UNL d   1      55.303  33.494  55.236  0.00  0.00    -0.200 OA
ATOM      9  O   UNL d   1      54.944  34.626  55.205  0.00  0.00    -0.200 OA
BRANCH   7  10
ATOM     10  C   UNL d   1      54.013  34.328  54.556  0.00  0.00     0.131 A 
ATOM     11  C   UNL d   1      53.402  34.595  55.030  0.00  0.00     0.152 A 
ATOM     12  F   UNL d   1      53.411  34.457  55.855  0.00  0.00    -0.203 F 
ATOM     13  C   UNL d   1      52.768  35.004  54.696  0.00  0.00     0.030 A 
ATOM     14  C   UNL d   1      52.742  35.149  53.886  0.00  0.00     0.002 A 
ATOM     15  C   UNL d   1      53.359  34.877  53.419  0.00  0.00     0.001 A 
ATOM     16  C   UNL d   1      53.992  34.468  53.754  0.00  0.00     0.015 A 
ENDBRANCH   7  10
ENDBRANCH   1   7
BRANCH   2  17
ATOM     17  C   UNL d   1      53.468  31.087  53.670  0.00  0.00     0.086 A 
ATOM     18  C   UNL d   1      52.756  31.112  53.224  0.00  0.00     0.110 A 
ATOM     19  C   UNL d   1      52.455  30.399  52.937  0.00  0.00     0.026 A 
ATOM     20  C   UNL d   1      52.819  29.688  53.069  0.00  0.00     0.002 A 
ATOM     21  C   UNL d   1      53.509  29.667  53.502  0.00  0.00     0.002 A 
ATOM     22  C   UNL d   1      53.833  30.365  53.801  0.00  0.00     0.019 A 
BRANCH  18  23
ATOM     23  O   UNL d   1      52.372  31.847  53.083  0.00  0.00    -0.327 OA
ATOM     24  C   UNL d   1      51.629  31.848  52.748  0.00  0.00     0.181 C 
ENDBRANCH  18  23
ENDBRANCH   2  17
TORSDOF 4
ENDMDL
MODEL 2
REMARK VINA RESULT:      -7.7      1.747      4.150
REMARK  4 active torsions:
REMARK  status: ('A' for Active; 'I' for Inactive)
REMARK    1  A    between atoms: C_2  and  S_1 
REMARK    2  A    between atoms: N_3  and  S_1 
REMARK    3  A    between atoms: C_7  and  N_4 
REMARK    4  A    between atoms: O_16  and  C_13 
ROOT
ATOM      1  N   UNL d   1      53.167  31.314  53.159  0.00  0.00    -0.226 N 
ATOM      2  N   UNL d   1      53.683  32.569  54.106  0.00  0.00    -0.300 N 
ATOM      3  C   UNL d   1      52.621  31.699  53.662  0.00  0.00     0.111 A 
ATOM      4  C   UNL d   1      53.950  31.553  53.133  0.00  0.00     0.111 A 
ATOM      5  C   UNL d   1      54.209  32.183  53.608  0.00  0.00     0.100 A 
ATOM      6  C   UNL d   1      52.904  32.326  54.128  0.00  0.00     0.100 A 
ENDROOT
BRANCH   1   7
ATOM      7  S   UNL d   1      52.910  30.688  52.687  0.00  0.00     0.274 S 
ATOM      8  O   UNL d   1      52.740  31.234  52.057  0.00  0.00    -0.200 OA
ATOM      9  O   UNL d   1      52.651  30.059  52.212  0.00  0.00    -0.200 OA
BRANCH   7  10
ATOM     10  C   UNL d   1      53.076  30.156  53.302  0.00  0.00     0.131 A 
ATOM     11  C   UNL d   1      52.465  29.779  53.693  0.00  0.00     0.152 A 
ATOM     12  F   UNL d   1      51.669  29.924  53.480  0.00  0.00    -0.203 F 
ATOM     13  C   UNL d   1      52.630  29.250  54.305  0.00  0.00     0.030 A 
ATOM     14  C   UNL d   1      53.407  29.095  54.528  0.00  0.00     0.002 A 
ATOM     15  C   UNL d   1      54.012  29.478  54.129  0.00  0.00     0.001 A 
ATOM     16  C   UNL d   1      53.847  30.007  53.518  0.00  0.00     0.015 A 
ENDBRANCH   7  10
ENDBRANCH   1   7
BRANCH   2  17
ATOM     17  C   UNL d   1      53.961  33.189  54.567  0.00  0.00     0.086 A 
ATOM     18  C   UNL d   1      53.679  33.964  54.403  0.00  0.00     0.110 A 
ATOM     19  C   UNL d   1      53.962  34.584  54.869  0.00  0.00     0.026 A 
ATOM     20  C   UNL d   1      54.495  34.470  55.468  0.00  0.00     0.002 A 
ATOM     21  C   UNL d   1      54.766  33.718  55.624  0.00  0.00     0.002 A 
ATOM     22  C   UNL d   1      54.501  33.079  55.174  0.00  0.00     0.019 A 
BRANCH  18  23
ATOM     23  O   UNL d   1      53.126  34.089  53.782  0.00  0.00    -0.327 OA
ATOM     24  C   UNL d   1      52.868  34.847  53.628  0.00  0.00     0.181 C 
ENDBRANCH  18  23
ENDBRANCH   2  17
TORSDOF 4
ENDMDL
MODEL 3
REMARK VINA RESULT:      -7.6      1.927      3.437
REMARK  4 active torsions:
REMARK  status: ('A' for Active; 'I' for Inactive)
REMARK    1  A    between atoms: C_2  and  S_1 
REMARK    2  A    between atoms: N_3  and  S_1 
REMARK    3  A    between atoms: C_7  and  N_4 
REMARK    4  A    between atoms: O_16  and  C_13 
ROOT
ATOM      1  N   UNL d   1      53.165  32.269  53.326  0.00  0.00    -0.226 N 
ATOM      2  N   UNL d   1      51.883  33.281  53.060  0.00  0.00    -0.300 N 
ATOM      3  C   UNL d   1      53.223  32.858  52.735  0.00  0.00     0.111 A 
ATOM      4  C   UNL d   1      52.481  32.190  53.770  0.00  0.00     0.111 A 
ATOM      5  C   UNL d   1      51.838  32.698  53.637  0.00  0.00     0.100 A 
ATOM      6  C   UNL d   1      52.567  33.353  52.620  0.00  0.00     0.100 A 
ENDROOT
BRANCH   1   7
ATOM      7  S   UNL d   1      53.804  31.764  53.459  0.00  0.00     0.274 S 
ATOM      8  O   UNL d   1      53.490  31.216  52.890  0.00  0.00    -0.200 OA
ATOM      9  O   UNL d   1      54.447  31.257  53.592  0.00  0.00    -0.200 OA
BRANCH   7  10
ATOM     10  C   UNL d   1      54.111  32.299  54.014  0.00  0.00     0.131 A 
ATOM     11  C   UNL d   1      54.743  32.779  53.815  0.00  0.00     0.152 A 
ATOM     12  F   UNL d   1      55.087  32.736  53.053  0.00  0.00    -0.203 F 
ATOM     13  C   UNL d   1      55.049  33.311  54.366  0.00  0.00     0.030 A 
ATOM     14  C   UNL d   1      54.724  33.367  55.121  0.00  0.00     0.002 A 
ATOM     15  C   UNL d   1      54.090  32.882  55.310  0.00  0.00     0.001 A 
ATOM     16  C   UNL d   1      53.785  32.350  54.759  0.00  0.00     0.015 A 
ENDBRANCH   7  10
ENDBRANCH   1   7
BRANCH   2  17
ATOM     17  C   UNL d   1      51.234  33.770  52.946  0.00  0.00     0.086 A 
ATOM     18  C   UNL d   1      51.247  34.535  53.295  0.00  0.00     0.110 A 
ATOM     19  C   UNL d   1      50.593  35.024  53.178  0.00  0.00     0.026 A 
ATOM     20  C   UNL d   1      49.950  34.794  52.743  0.00  0.00     0.002 A 
ATOM     21  C   UNL d   1      49.940  34.052  52.406  0.00  0.00     0.002 A 
ATOM     22  C   UNL d   1      50.581  33.542  52.507  0.00  0.00     0.019 A 
BRANCH  18  23
ATOM     23  O   UNL d   1      51.913  34.780  53.748  0.00  0.00    -0.327 OA
ATOM     24  C   UNL d   1      51.895  35.508  54.115  0.00  0.00     0.181 C 
ENDBRANCH  18  23
ENDBRANCH   2  17
TORSDOF 4
ENDMDL
MODEL 4
REMARK VINA RESULT:      -7.3      2.110      3.400
REMARK  4 active torsions:
REMARK  status: ('A' for Active; 'I' for Inactive)
REMARK    1  A    between atoms: C_2  and  S_1 
REMARK    2  A    between atoms: N_3  and  S_1 
REMARK    3  A    between atoms: C_7  and  N_4 
REMARK    4  A    between atoms: O_16  and  C_13 
ROOT
ATOM      1  N   UNL d   1      52.880  34.286  54.171  0.00  0.00    -0.226 N 
ATOM      2  N   UNL d   1      51.635  34.275  53.081  0.00  0.00    -0.300 N 
ATOM      3  C   UNL d   1      52.252  33.743  54.271  0.00  0.00     0.111 A 
ATOM      4  C   UNL d   1      52.882  34.809  53.541  0.00  0.00     0.111 A 
ATOM      5  C   UNL d   1      52.258  34.804  52.994  0.00  0.00     0.100 A 
ATOM      6  C   UNL d   1      51.639  33.756  53.711  0.00  0.00     0.100 A 
ENDROOT
BRANCH   1   7
ATOM      7  S   UNL d   1      53.500  34.292  54.715  0.00  0.00     0.274 S 
ATOM      8  O   UNL d   1      53.173  34.985  55.082  0.00  0.00    -0.200 OA
ATOM      9  O   UNL d   1      54.125  34.297  55.262  0.00  0.00    -0.200 OA
BRANCH   7  10
ATOM     10  C   UNL d   1      53.821  33.615  54.356  0.00  0.00     0.131 A 
ATOM     11  C   UNL d   1      53.833  32.904  54.760  0.00  0.00     0.152 A 
ATOM     12  F   UNL d   1      53.524  32.850  55.536  0.00  0.00    -0.203 F 
ATOM     13  C   UNL d   1      54.151  32.231  54.404  0.00  0.00     0.030 A 
ATOM     14  C   UNL d   1      54.459  32.266  53.641  0.00  0.00     0.002 A 
ATOM     15  C   UNL d   1      54.442  32.983  53.245  0.00  0.00     0.001 A 
ATOM     16  C   UNL d   1      54.124  33.656  53.601  0.00  0.00     0.015 A 
ENDBRANCH   7  10
ENDBRANCH   1   7
BRANCH   2  17
ATOM     17  C   UNL d   1      51.029  34.288  52.528  0.00  0.00     0.086 A 
ATOM     18  C   UNL d   1      50.289  34.614  52.756  0.00  0.00     0.110 A 
ATOM     19  C   UNL d   1      49.683  34.625  52.197  0.00  0.00     0.026 A 
ATOM     20  C   UNL d   1      49.777  34.336  51.446  0.00  0.00     0.002 A 
ATOM     21  C   UNL d   1      50.496  34.021  51.228  0.00  0.00     0.002 A 
ATOM     22  C   UNL d   1      51.120  33.997  51.767  0.00  0.00     0.019 A 
BRANCH  18  23
ATOM     23  O   UNL d   1      50.184  34.916  53.534  0.00  0.00    -0.327 OA
ATOM     24  C   UNL d   1      49.482  35.285  53.724  0.00  0.00     0.181 C 
ENDBRANCH  18  23
ENDBRANCH   2  17
TORSDOF 4
ENDMDL
MODEL 5
REMARK VINA RESULT:      -7.3      1.726      2.562
REMARK  4 active torsions:
REMARK  status: ('A' for Active; 'I' for Inactive)
REMARK    1  A    between atoms: C_2  and  S_1 
REMARK    2  A    between atoms: N_3  and  S_1 
REMARK    3  A    between atoms: C_7  and  N_4 
REMARK    4  A    between atoms: O_16  and  C_13 
ROOT
ATOM      1  N   UNL d   1      51.881  33.538  52.864  0.00  0.00    -0.226 N 
ATOM      2  N   UNL d   1      52.480  32.019  53.140  0.00  0.00    -0.300 N 
ATOM      3  C   UNL d   1      51.477  33.026  53.388  0.00  0.00     0.111 A 
ATOM      4  C   UNL d   1      52.567  33.293  52.490  0.00  0.00     0.111 A 
ATOM      5  C   UNL d   1      52.867  32.532  52.628  0.00  0.00     0.100 A 
ATOM      6  C   UNL d   1      51.797  32.270  53.510  0.00  0.00     0.100 A 
ENDROOT
BRANCH   1   7
ATOM      7  S   UNL d   1      51.582  34.294  52.727  0.00  0.00     0.274 S 
ATOM      8  O   UNL d   1      51.063  33.981  52.132  0.00  0.00    -0.200 OA
ATOM      9  O   UNL d   1      51.282  35.056  52.589  0.00  0.00    -0.200 OA
BRANCH   7  10
ATOM     10  C   UNL d   1      52.090  34.600  53.308  0.00  0.00     0.131 A 
ATOM     11  C   UNL d   1      52.762  35.013  53.090  0.00  0.00     0.152 A 
ATOM     12  F   UNL d   1      52.945  35.131  52.283  0.00  0.00    -0.203 F 
ATOM     13  C   UNL d   1      53.266  35.316  53.668  0.00  0.00     0.030 A 
ATOM     14  C   UNL d   1      53.102  35.210  54.467  0.00  0.00     0.002 A 
ATOM     15  C   UNL d   1      52.426  34.795  54.676  0.00  0.00     0.001 A 
ATOM     16  C   UNL d   1      51.922  34.491  54.098  0.00  0.00     0.015 A 
ENDBRANCH   7  10
ENDBRANCH   1   7
BRANCH   2  17
ATOM     17  C   UNL d   1      52.795  31.272  53.261  0.00  0.00     0.086 A 
ATOM     18  C   UNL d   1      53.380  31.179  53.857  0.00  0.00     0.110 A 
ATOM     19  C   UNL d   1      53.695  30.425  53.975  0.00  0.00     0.026 A 
ATOM     20  C   UNL d   1      53.461  29.783  53.541  0.00  0.00     0.002 A 
ATOM     21  C   UNL d   1      52.894  29.876  52.964  0.00  0.00     0.002 A 
ATOM     22  C   UNL d   1      52.562  30.619  52.824  0.00  0.00     0.019 A 
BRANCH  18  23
ATOM     23  O   UNL d   1      53.628  31.842  54.312  0.00  0.00    -0.327 OA
ATOM     24  C   UNL d   1      54.107  31.721  54.960  0.00  0.00     0.181 C 
ENDBRANCH  18  23
ENDBRANCH   2  17
TORSDOF 4
ENDMDL
MODEL 6
REMARK VINA RESULT:      -7.3      2.898      4.217
REMARK  4 active torsions:
REMARK  status: ('A' for Active; 'I' for Inactive)
REMARK    1  A    between atoms: C_2  and  S_1 
REMARK    2  A    between atoms: N_3  and  S_1 
REMARK    3  A    between atoms: C_7  and  N_4 
REMARK    4  A    between atoms: O_16  and  C_13 
ROOT
ATOM      1  N   UNL d   1      51.787  33.589  52.887  0.00  0.00    -0.226 N 
ATOM      2  N   UNL d   1      50.353  34.406  52.764  0.00  0.00    -0.300 N 
ATOM      3  C   UNL d   1      51.728  34.237  52.362  0.00  0.00     0.111 A 
ATOM      4  C   UNL d   1      51.143  33.358  53.338  0.00  0.00     0.111 A 
ATOM      5  C   UNL d   1      50.424  33.767  53.276  0.00  0.00     0.100 A 
ATOM      6  C   UNL d   1      50.999  34.631  52.318  0.00  0.00     0.100 A 
ENDROOT
BRANCH   1   7
ATOM      7  S   UNL d   1      52.502  33.182  52.949  0.00  0.00     0.274 S 
ATOM      8  O   UNL d   1      52.224  32.609  52.386  0.00  0.00    -0.200 OA
ATOM      9  O   UNL d   1      53.221  32.772  53.010  0.00  0.00    -0.200 OA
BRANCH   7  10
ATOM     10  C   UNL d   1      52.773  33.741  53.499  0.00  0.00     0.131 A 
ATOM     11  C   UNL d   1      52.915  33.519  54.273  0.00  0.00     0.152 A 
ATOM     12  F   UNL d   1      52.788  32.730  54.520  0.00  0.00    -0.203 F 
ATOM     13  C   UNL d   1      53.184  34.075  54.820  0.00  0.00     0.030 A 
ATOM     14  C   UNL d   1      53.315  34.856  54.595  0.00  0.00     0.002 A 
ATOM     15  C   UNL d   1      53.170  35.068  53.816  0.00  0.00     0.001 A 
ATOM     16  C   UNL d   1      52.900  34.512  53.270  0.00  0.00     0.015 A 
ENDBRANCH   7  10
ENDBRANCH   1   7
BRANCH   2  17
ATOM     17  C   UNL d   1      49.632  34.796  52.720  0.00  0.00     0.086 A 
ATOM     18  C   UNL d   1      49.189  34.733  52.009  0.00  0.00     0.110 A 
ATOM     19  C   UNL d   1      48.465  35.127  51.969  0.00  0.00     0.026 A 
ATOM     20  C   UNL d   1      48.173  35.564  52.584  0.00  0.00     0.002 A 
ATOM     21  C   UNL d   1      48.605  35.623  53.273  0.00  0.00     0.002 A 
ATOM     22  C   UNL d   1      49.332  35.240  53.340  0.00  0.00     0.019 A 
BRANCH  18  23
ATOM     23  O   UNL d   1      49.487  34.280  51.365  0.00  0.00    -0.327 OA
ATOM     24  C   UNL d   1      49.059  34.248  50.672  0.00  0.00     0.181 C 
ENDBRANCH  18  23
ENDBRANCH   2  17
TORSDOF 4
ENDMDL
