MODEL 1
REMARK VINA RESULT:      67.0      0.000      0.000
REMARK  4 active torsions:
REMARK  status: ('A' for Active; 'I' for Inactive)
REMARK    1  A    between atoms: C_4  and  C_1 
REMARK    2  A    between atoms: N_7  and  C_4 
REMARK    3  A    between atoms: C_10  and  C_4 
REMARK    4  A    between atoms: C_8  and  N_7 
ROOT
ATOM      1  C   UNL d   1     -55.372 -99.410 -43.895  0.00  0.00     0.085 C 
ENDROOT
BRANCH   1   2
ATOM      2  C   UNL d   1     -55.153 -99.945 -44.486  0.00  0.00     0.037 A 
ATOM      3  C   UNL d   1     -54.858 -99.785 -45.240  0.00  0.00     0.083 A 
ATOM      4  N   UNL d   1     -54.720-100.429 -45.628  0.00  0.00    -0.245 NA
ATOM      5  C   UNL d   1     -54.729 -99.025 -45.535  0.00  0.00     0.021 C 
ATOM      6  C   UNL d   1     -54.919-101.089 -45.146  0.00  0.00     0.081 A 
ATOM      7  C   UNL d   1     -55.191-100.785 -44.429  0.00  0.00     0.021 A 
ATOM      8  C   UNL d   1     -54.886-101.912 -45.272  0.00  0.00     0.019 A 
ATOM      9  C   UNL d   1     -55.431-101.303 -43.834  0.00  0.00     0.002 A 
ATOM     10  C   UNL d   1     -55.403-102.115 -43.946  0.00  0.00     0.000 A 
ATOM     11  C   UNL d   1     -55.131-102.419 -44.663  0.00  0.00     0.002 A 
ENDBRANCH   1   2
BRANCH   1  12
ATOM     12  N   UNL d   1     -55.810 -98.757 -44.104  0.00  0.00    -0.227 NA
BRANCH  12  13
ATOM     13  C   UNL d   1     -56.608 -98.812 -44.237  0.00  0.00     0.162 A 
ATOM     14  N   UNL d   1     -56.914 -98.758 -44.994  0.00  0.00    -0.225 NA
ATOM     15  C   UNL d   1     -57.756 -98.818 -45.116  0.00  0.00     0.101 A 
ATOM     16  C   UNL d   1     -58.227 -98.928 -44.469  0.00  0.00     0.021 A 
ATOM     17  C   UNL d   1     -57.931 -98.982 -43.714  0.00  0.00     0.005 A 
ATOM     18  C   UNL d   1     -57.124 -98.926 -43.584  0.00  0.00     0.039 A 
ATOM     19  C   UNL d   1     -58.451 -99.095 -43.080  0.00  0.00     0.000 C 
ENDBRANCH  12  13
ENDBRANCH   1  12
BRANCH   1  20
ATOM     20  C   UNL d   1     -55.149 -99.537 -43.107  0.00  0.00     0.021 A 
ATOM     21  C   UNL d   1     -54.981 -98.878 -42.644  0.00  0.00     0.022 A 
ATOM     22  C   UNL d   1     -54.759 -99.005 -41.855  0.00  0.00     0.099 A 
ATOM     23  N   UNL d   1     -54.711 -99.778 -41.557  0.00  0.00    -0.242 NA
ATOM     24  C   UNL d   1     -54.883-100.415 -42.037  0.00  0.00     0.099 A 
ATOM     25  C   UNL d   1     -55.102-100.310 -42.808  0.00  0.00     0.022 A 
ENDBRANCH   1  20
TORSDOF 4
ENDMDL
MODEL 2
REMARK VINA RESULT:      69.0      1.347      3.678
REMARK  4 active torsions:
REMARK  status: ('A' for Active; 'I' for Inactive)
REMARK    1  A    between atoms: C_4  and  C_1 
REMARK    2  A    between atoms: N_7  and  C_4 
REMARK    3  A    between atoms: C_10  and  C_4 
REMARK    4  A    between atoms: C_8  and  N_7 
ROOT
ATOM      1  C   UNL d   1     -56.681 -99.924 -44.271  0.00  0.00     0.085 C 
ENDROOT
BRANCH   1   2
ATOM      2  C   UNL d   1     -57.311 -99.499 -43.946  0.00  0.00     0.037 A 
ATOM      3  C   UNL d   1     -57.334 -99.076 -43.237  0.00  0.00     0.083 A 
ATOM      4  N   UNL d   1     -58.019 -98.756 -43.125  0.00  0.00    -0.245 NA
ATOM      5  C   UNL d   1     -56.697 -99.009 -42.717  0.00  0.00     0.021 C 
ATOM      6  C   UNL d   1     -58.521 -98.948 -43.772  0.00  0.00     0.081 A 
ATOM      7  C   UNL d   1     -58.077 -99.414 -44.288  0.00  0.00     0.021 A 
ATOM      8  C   UNL d   1     -59.313 -98.757 -43.950  0.00  0.00     0.019 A 
ATOM      9  C   UNL d   1     -58.421 -99.693 -44.983  0.00  0.00     0.002 A 
ATOM     10  C   UNL d   1     -59.200 -99.512 -45.169  0.00  0.00     0.000 A 
ATOM     11  C   UNL d   1     -59.645 -99.046 -44.653  0.00  0.00     0.002 A 
ENDBRANCH   1   2
BRANCH   1  12
ATOM     12  N   UNL d   1     -56.724-100.737 -44.284  0.00  0.00    -0.227 NA
BRANCH  12  13
ATOM     13  C   UNL d   1     -56.055-101.192 -44.252  0.00  0.00     0.162 A 
ATOM     14  N   UNL d   1     -55.515-101.194 -44.867  0.00  0.00    -0.225 NA
ATOM     15  C   UNL d   1     -54.815-101.680 -44.817  0.00  0.00     0.101 A 
ATOM     16  C   UNL d   1     -54.711-102.128 -44.153  0.00  0.00     0.021 A 
ATOM     17  C   UNL d   1     -55.242-102.132 -43.538  0.00  0.00     0.005 A 
ATOM     18  C   UNL d   1     -55.918-101.670 -43.574  0.00  0.00     0.039 A 
ATOM     19  C   UNL d   1     -55.095-102.607 -42.876  0.00  0.00     0.000 C 
ENDBRANCH  12  13
ENDBRANCH   1  12
BRANCH   1  20
ATOM     20  C   UNL d   1     -56.020 -99.529 -44.579  0.00  0.00     0.021 A 
ATOM     21  C   UNL d   1     -55.953 -99.471 -45.396  0.00  0.00     0.022 A 
ATOM     22  C   UNL d   1     -55.291 -99.077 -45.704  0.00  0.00     0.099 A 
ATOM     23  N   UNL d   1     -54.723 -98.756 -45.190  0.00  0.00    -0.242 NA
ATOM     24  C   UNL d   1     -54.813 -98.828 -44.383  0.00  0.00     0.099 A 
ATOM     25  C   UNL d   1     -55.452 -99.209 -44.065  0.00  0.00     0.022 A 
ENDBRANCH   1  20
TORSDOF 4
ENDMDL
