MODEL 1
REMARK VINA RESULT:      -2.5      0.000      0.000
REMARK  5 active torsions:
REMARK  status: ('A' for Active; 'I' for Inactive)
REMARK    1  A    between atoms: N_7  and  C_1 
REMARK    2  A    between atoms: S_6  and  C_2 
REMARK    3  A    between atoms: C_3  and  S_6 
REMARK    4  A    between atoms: C_13  and  N_5 
REMARK    5  A    between atoms: C_18  and  C_13 
ROOT
ATOM      1  C   UNL d   1      56.590  -0.822  32.264  0.00  0.00     0.232 A 
ATOM      2  C   UNL d   1      56.897  -0.066  32.193  0.00  0.00     0.139 A 
ATOM      3  N   UNL d   1      56.738  -1.235  31.561  0.00  0.00    -0.204 NA
ATOM      4  N   UNL d   1      57.239  -0.000  31.446  0.00  0.00    -0.282 N 
ATOM      5  C   UNL d   1      57.143  -0.719  31.052  0.00  0.00     0.150 A 
ATOM      6  C   UNL d   1      57.400  -0.898  30.293  0.00  0.00     0.041 C 
ENDROOT
BRANCH   2   7
ATOM      7  S   UNL d   1      56.870   0.525  32.766  0.00  0.00    -0.029 SA
BRANCH   7   8
ATOM      8  C   UNL d   1      56.239   0.559  33.296  0.00  0.00     0.181 A 
ATOM      9  N   UNL d   1      55.434   0.559  33.096  0.00  0.00    -0.221 NA
ATOM     10  C   UNL d   1      54.999   0.598  33.788  0.00  0.00     0.100 A 
ATOM     11  C   UNL d   1      54.188   0.616  33.943  0.00  0.00     0.021 A 
ATOM     12  C   UNL d   1      55.525   0.623  34.425  0.00  0.00     0.084 A 
ATOM     13  C   UNL d   1      53.909   0.657  34.704  0.00  0.00     0.002 A 
ATOM     14  C   UNL d   1      54.441   0.682  35.335  0.00  0.00     0.002 A 
ATOM     15  C   UNL d   1      55.250   0.665  35.204  0.00  0.00     0.019 A 
ATOM     16  N   UNL d   1      56.293   0.599  34.116  0.00  0.00    -0.282 N 
ATOM     17  C   UNL d   1      56.992   0.612  34.557  0.00  0.00     0.101 C 
ENDBRANCH   7   8
ENDBRANCH   2   7
BRANCH   1  18
ATOM     18  N   UNL d   1      56.243  -1.552  32.452  0.00  0.00    -0.093 N 
ATOM     19  O   UNL d   1      56.616  -2.061  32.985  0.00  0.00    -0.530 OA
ATOM     20  O   UNL d   1      55.527  -1.775  32.110  0.00  0.00    -0.530 OA
ENDBRANCH   1  18
BRANCH   4  21
ATOM     21  C   UNL d   1      57.614   0.673  31.143  0.00  0.00     0.082 C 
BRANCH  21  22
ATOM     22  C   UNL d   1      58.433   0.670  31.047  0.00  0.00     0.018 A 
ATOM     23  C   UNL d   1      58.936   0.682  31.707  0.00  0.00     0.002 A 
ATOM     24  C   UNL d   1      59.748   0.679  31.609  0.00  0.00     0.000 A 
ATOM     25  C   UNL d   1      60.067   0.664  30.843  0.00  0.00     0.000 A 
ATOM     26  C   UNL d   1      59.574   0.652  30.189  0.00  0.00     0.000 A 
ATOM     27  C   UNL d   1      58.754   0.655  30.289  0.00  0.00     0.002 A 
ENDBRANCH  21  22
ENDBRANCH   4  21
TORSDOF 5
ENDMDL
MODEL 2
REMARK VINA RESULT:      -2.4      1.949      4.814
REMARK  5 active torsions:
REMARK  status: ('A' for Active; 'I' for Inactive)
REMARK    1  A    between atoms: N_7  and  C_1 
REMARK    2  A    between atoms: S_6  and  C_2 
REMARK    3  A    between atoms: C_3  and  S_6 
REMARK    4  A    between atoms: C_13  and  N_5 
REMARK    5  A    between atoms: C_18  and  C_13 
ROOT
ATOM      1  C   UNL d   1      58.899   0.679  31.893  0.00  0.00     0.232 A 
ATOM      2  C   UNL d   1      58.169   0.679  31.523  0.00  0.00     0.139 A 
ATOM      3  N   UNL d   1      58.780   0.680  32.713  0.00  0.00    -0.204 NA
ATOM      4  N   UNL d   1      57.588   0.680  32.107  0.00  0.00    -0.282 N 
ATOM      5  C   UNL d   1      57.959   0.681  32.844  0.00  0.00     0.150 A 
ATOM      6  C   UNL d   1      57.591   0.682  33.577  0.00  0.00     0.041 C 
ENDROOT
BRANCH   2   7
ATOM      7  S   UNL d   1      58.036   0.678  30.710  0.00  0.00    -0.029 SA
BRANCH   7   8
ATOM      8  C   UNL d   1      58.230   0.015  30.260  0.00  0.00     0.181 A 
ATOM      9  N   UNL d   1      58.342  -0.754  30.549  0.00  0.00    -0.221 NA
ATOM     10  C   UNL d   1      58.527  -1.240  29.917  0.00  0.00     0.100 A 
ATOM     11  C   UNL d   1      58.695  -2.047  29.857  0.00  0.00     0.021 A 
ATOM     12  C   UNL d   1      58.533  -0.782  29.229  0.00  0.00     0.084 A 
ATOM     13  C   UNL d   1      58.862  -2.386  29.139  0.00  0.00     0.002 A 
ATOM     14  C   UNL d   1      58.866  -1.921  28.456  0.00  0.00     0.002 A 
ATOM     15  C   UNL d   1      58.702  -1.119  28.493  0.00  0.00     0.019 A 
ATOM     16  N   UNL d   1      58.348  -0.004  29.446  0.00  0.00    -0.282 N 
ATOM     17  C   UNL d   1      58.293   0.640  28.932  0.00  0.00     0.101 C 
ENDBRANCH   7   8
ENDBRANCH   2   7
BRANCH   1  18
ATOM     18  N   UNL d   1      59.688   0.680  32.151  0.00  0.00    -0.093 N 
ATOM     19  O   UNL d   1      59.857   0.678  32.960  0.00  0.00    -0.530 OA
ATOM     20  O   UNL d   1      60.305   0.682  31.605  0.00  0.00    -0.530 OA
ENDBRANCH   1  18
BRANCH   4  21
ATOM     21  C   UNL d   1      56.769   0.680  31.977  0.00  0.00     0.082 C 
BRANCH  21  22
ATOM     22  C   UNL d   1      56.280   0.251  32.483  0.00  0.00     0.018 A 
ATOM     23  C   UNL d   1      56.280  -0.579  32.469  0.00  0.00     0.002 A 
ATOM     24  C   UNL d   1      55.794  -1.002  32.972  0.00  0.00     0.000 A 
ATOM     25  C   UNL d   1      55.299  -0.596  33.499  0.00  0.00     0.000 A 
ATOM     26  C   UNL d   1      55.295   0.224  33.517  0.00  0.00     0.000 A 
ATOM     27  C   UNL d   1      55.787   0.650  33.008  0.00  0.00     0.002 A 
ENDBRANCH  21  22
ENDBRANCH   4  21
TORSDOF 5
ENDMDL
MODEL 3
REMARK VINA RESULT:      -0.5      1.317      1.960
REMARK  5 active torsions:
REMARK  status: ('A' for Active; 'I' for Inactive)
REMARK    1  A    between atoms: N_7  and  C_1 
REMARK    2  A    between atoms: S_6  and  C_2 
REMARK    3  A    between atoms: C_3  and  S_6 
REMARK    4  A    between atoms: C_13  and  N_5 
REMARK    5  A    between atoms: C_18  and  C_13 
ROOT
ATOM      1  C   UNL d   1      57.770  -1.007  30.781  0.00  0.00     0.232 A 
ATOM      2  C   UNL d   1      58.097  -0.257  30.819  0.00  0.00     0.139 A 
ATOM      3  N   UNL d   1      57.792  -1.265  29.994  0.00  0.00    -0.204 NA
ATOM      4  N   UNL d   1      58.326  -0.040  30.058  0.00  0.00    -0.282 N 
ATOM      5  C   UNL d   1      58.140  -0.659  29.545  0.00  0.00     0.150 A 
ATOM      6  C   UNL d   1      58.271  -0.679  28.735  0.00  0.00     0.041 C 
ENDROOT
BRANCH   2   7
ATOM      7  S   UNL d   1      58.183   0.202  31.498  0.00  0.00    -0.029 SA
BRANCH   7   8
ATOM      8  C   UNL d   1      57.545   0.309  32.009  0.00  0.00     0.181 A 
ATOM      9  N   UNL d   1      56.745   0.330  31.791  0.00  0.00    -0.221 NA
ATOM     10  C   UNL d   1      56.299   0.447  32.468  0.00  0.00     0.100 A 
ATOM     11  C   UNL d   1      55.487   0.515  32.602  0.00  0.00     0.021 A 
ATOM     12  C   UNL d   1      56.813   0.499  33.113  0.00  0.00     0.084 A 
ATOM     13  C   UNL d   1      55.196   0.631  33.351  0.00  0.00     0.002 A 
ATOM     14  C   UNL d   1      55.717   0.682  33.990  0.00  0.00     0.002 A 
ATOM     15  C   UNL d   1      56.526   0.617  33.879  0.00  0.00     0.019 A 
ATOM     16  N   UNL d   1      57.585   0.412  32.824  0.00  0.00    -0.282 N 
ATOM     17  C   UNL d   1      58.275   0.428  33.278  0.00  0.00     0.101 C 
ENDBRANCH   7   8
ENDBRANCH   2   7
BRANCH   1  18
ATOM     18  N   UNL d   1      57.422  -1.755  30.868  0.00  0.00    -0.093 N 
ATOM     19  O   UNL d   1      57.861  -2.435  30.706  0.00  0.00    -0.530 OA
ATOM     20  O   UNL d   1      56.639  -1.825  31.115  0.00  0.00    -0.530 OA
ENDBRANCH   1  18
BRANCH   4  21
ATOM     21  C   UNL d   1      58.682   0.677  29.844  0.00  0.00     0.082 C 
BRANCH  21  22
ATOM     22  C   UNL d   1      59.462   0.676  29.579  0.00  0.00     0.018 A 
ATOM     23  C   UNL d   1      59.634   0.675  28.768  0.00  0.00     0.002 A 
ATOM     24  C   UNL d   1      60.410   0.674  28.508  0.00  0.00     0.000 A 
ATOM     25  C   UNL d   1      61.026   0.675  29.063  0.00  0.00     0.000 A 
ATOM     26  C   UNL d   1      60.861   0.677  29.866  0.00  0.00     0.000 A 
ATOM     27  C   UNL d   1      60.078   0.677  30.127  0.00  0.00     0.002 A 
ENDBRANCH  21  22
ENDBRANCH   4  21
TORSDOF 5
ENDMDL
MODEL 4
REMARK VINA RESULT:      -0.4      1.226      4.541
REMARK  5 active torsions:
REMARK  status: ('A' for Active; 'I' for Inactive)
REMARK    1  A    between atoms: N_7  and  C_1 
REMARK    2  A    between atoms: S_6  and  C_2 
REMARK    3  A    between atoms: C_3  and  S_6 
REMARK    4  A    between atoms: C_13  and  N_5 
REMARK    5  A    between atoms: C_18  and  C_13 
ROOT
ATOM      1  C   UNL d   1      57.334  -0.843  30.932  0.00  0.00     0.232 A 
ATOM      2  C   UNL d   1      57.229  -0.053  31.121  0.00  0.00     0.139 A 
ATOM      3  N   UNL d   1      56.906  -1.303  31.472  0.00  0.00    -0.204 NA
ATOM      4  N   UNL d   1      56.735  -0.013  31.779  0.00  0.00    -0.282 N 
ATOM      5  C   UNL d   1      56.533  -0.781  31.999  0.00  0.00     0.150 A 
ATOM      6  C   UNL d   1      56.050  -0.999  32.626  0.00  0.00     0.041 C 
ENDROOT
BRANCH   2   7
ATOM      7  S   UNL d   1      57.558   0.590  30.724  0.00  0.00    -0.029 SA
BRANCH   7   8
ATOM      8  C   UNL d   1      58.368   0.610  30.570  0.00  0.00     0.181 A 
ATOM      9  N   UNL d   1      58.972   0.616  31.139  0.00  0.00    -0.221 NA
ATOM     10  C   UNL d   1      59.690   0.638  30.748  0.00  0.00     0.100 A 
ATOM     11  C   UNL d   1      60.474   0.652  31.011  0.00  0.00     0.021 A 
ATOM     12  C   UNL d   1      59.545   0.646  29.935  0.00  0.00     0.084 A 
ATOM     13  C   UNL d   1      61.090   0.674  30.482  0.00  0.00     0.002 A 
ATOM     14  C   UNL d   1      60.936   0.682  29.671  0.00  0.00     0.002 A 
ATOM     15  C   UNL d   1      60.166   0.668  29.390  0.00  0.00     0.019 A 
ATOM     16  N   UNL d   1      58.723   0.629  29.828  0.00  0.00    -0.282 N 
ATOM     17  C   UNL d   1      58.330   0.630  29.102  0.00  0.00     0.101 C 
ENDBRANCH   7   8
ENDBRANCH   2   7
BRANCH   1  18
ATOM     18  N   UNL d   1      57.514  -1.601  30.646  0.00  0.00    -0.093 N 
ATOM     19  O   UNL d   1      57.971  -2.116  31.103  0.00  0.00    -0.530 OA
ATOM     20  O   UNL d   1      57.240  -1.845  29.908  0.00  0.00    -0.530 OA
ENDBRANCH   1  18
BRANCH   4  21
ATOM     21  C   UNL d   1      56.484   0.682  32.155  0.00  0.00     0.082 C 
BRANCH  21  22
ATOM     22  C   UNL d   1      56.248   0.651  32.944  0.00  0.00     0.018 A 
ATOM     23  C   UNL d   1      56.809   0.643  33.554  0.00  0.00     0.002 A 
ATOM     24  C   UNL d   1      56.572   0.612  34.336  0.00  0.00     0.000 A 
ATOM     25  C   UNL d   1      55.763   0.588  34.516  0.00  0.00     0.000 A 
ATOM     26  C   UNL d   1      55.204   0.595  33.917  0.00  0.00     0.000 A 
ATOM     27  C   UNL d   1      55.445   0.627  33.128  0.00  0.00     0.002 A 
ENDBRANCH  21  22
ENDBRANCH   4  21
TORSDOF 5
ENDMDL
