MODEL 1
REMARK VINA RESULT:      14.1      0.000      0.000
REMARK  5 active torsions:
REMARK  status: ('A' for Active; 'I' for Inactive)
REMARK    1  A    between atoms: C_6  and  C_3 
REMARK    2  A    between atoms: C_7  and  C_6 
REMARK    3  A    between atoms: C_8  and  C_7 
REMARK    4  A    between atoms: O_16  and  C_10 
REMARK    5  A    between atoms: O_17  and  C_12 
ROOT
ATOM      1  C   UNL d   1      45.757 -16.477  44.526  0.00  0.00     0.198 C 
ATOM      2  O   UNL d   1      45.210 -16.925  44.955  0.00  0.00    -0.286 OA
ENDROOT
BRANCH   1   3
ATOM      3  C   UNL d   1      46.312 -16.860  44.041  0.00  0.00     0.067 C 
BRANCH   3   4
ATOM      4  C   UNL d   1      46.363 -17.681  44.047  0.00  0.00     0.107 A 
ATOM      5  O   UNL d   1      46.326 -18.176  44.718  0.00  0.00    -0.273 OA
ATOM      6  C   UNL d   1      46.400 -18.953  44.467  0.00  0.00     0.300 A 
ATOM      7  C   UNL d   1      46.483 -18.949  43.642  0.00  0.00     0.065 A 
ATOM      8  O   UNL d   1      46.394 -19.626  44.949  0.00  0.00    -0.259 OA
ATOM      9  C   UNL d   1      46.460 -18.164  43.387  0.00  0.00     0.028 A 
ATOM     10  C   UNL d   1      46.577 -19.560  43.097  0.00  0.00     0.005 A 
ATOM     11  C   UNL d   1      46.531 -17.986  42.578  0.00  0.00     0.002 A 
ATOM     12  C   UNL d   1      46.624 -18.598  42.033  0.00  0.00     0.000 A 
ATOM     13  C   UNL d   1      46.647 -19.387  42.295  0.00  0.00     0.000 A 
ENDBRANCH   3   4
ENDBRANCH   1   3
BRANCH   1  14
ATOM     14  C   UNL d   1      45.757 -15.656  44.577  0.00  0.00     0.041 A 
ATOM     15  C   UNL d   1      45.077 -15.239  44.376  0.00  0.00     0.029 A 
ATOM     16  C   UNL d   1      45.066 -14.415  44.423  0.00  0.00     0.116 A 
ATOM     17  C   UNL d   1      45.741 -14.009  44.673  0.00  0.00     0.116 A 
ATOM     18  C   UNL d   1      46.424 -14.434  44.875  0.00  0.00     0.026 A 
ATOM     19  C   UNL d   1      46.426 -15.255  44.825  0.00  0.00     0.005 A 
BRANCH  16  20
ATOM     20  O   UNL d   1      44.386 -13.998  44.222  0.00  0.00    -0.326 OA
ATOM     21  C   UNL d   1      43.702 -14.075  44.684  0.00  0.00     0.181 C 
ENDBRANCH  16  20
BRANCH  17  22
ATOM     22  O   UNL d   1      45.739 -13.188  44.724  0.00  0.00    -0.326 OA
ATOM     23  C   UNL d   1      46.427 -12.780  44.937  0.00  0.00     0.181 C 
ENDBRANCH  17  22
ENDBRANCH   1  14
TORSDOF 5
ENDMDL
MODEL 2
REMARK VINA RESULT:      15.2      0.949      4.717
REMARK  5 active torsions:
REMARK  status: ('A' for Active; 'I' for Inactive)
REMARK    1  A    between atoms: C_6  and  C_3 
REMARK    2  A    between atoms: C_7  and  C_6 
REMARK    3  A    between atoms: C_8  and  C_7 
REMARK    4  A    between atoms: O_16  and  C_10 
REMARK    5  A    between atoms: O_17  and  C_12 
ROOT
ATOM      1  C   UNL d   1      46.012 -16.666  43.937  0.00  0.00     0.198 C 
ATOM      2  O   UNL d   1      45.840 -16.284  43.224  0.00  0.00    -0.286 OA
ENDROOT
BRANCH   1   3
ATOM      3  C   UNL d   1      46.041 -16.227  44.642  0.00  0.00     0.067 C 
BRANCH   3   4
ATOM      4  C   UNL d   1      45.553 -15.571  44.735  0.00  0.00     0.107 A 
ATOM      5  O   UNL d   1      44.720 -15.576  44.790  0.00  0.00    -0.273 OA
ATOM      6  C   UNL d   1      44.466 -14.802  44.879  0.00  0.00     0.300 A 
ATOM      7  C   UNL d   1      45.134 -14.311  44.880  0.00  0.00     0.065 A 
ATOM      8  O   UNL d   1      43.681 -14.550  44.955  0.00  0.00    -0.259 OA
ATOM      9  C   UNL d   1      45.802 -14.788  44.792  0.00  0.00     0.028 A 
ATOM     10  C   UNL d   1      45.214 -13.493  44.951  0.00  0.00     0.005 A 
ATOM     11  C   UNL d   1      46.560 -14.447  44.773  0.00  0.00     0.002 A 
ATOM     12  C   UNL d   1      46.640 -13.629  44.844  0.00  0.00     0.000 A 
ATOM     13  C   UNL d   1      45.963 -13.152  44.933  0.00  0.00     0.000 A 
ENDBRANCH   3   4
ENDBRANCH   1   3
BRANCH   1  14
ATOM     14  C   UNL d   1      46.156 -17.475  43.954  0.00  0.00     0.041 A 
ATOM     15  C   UNL d   1      46.111 -17.909  43.257  0.00  0.00     0.029 A 
ATOM     16  C   UNL d   1      46.254 -18.722  43.262  0.00  0.00     0.116 A 
ATOM     17  C   UNL d   1      46.442 -19.100  43.973  0.00  0.00     0.116 A 
ATOM     18  C   UNL d   1      46.486 -18.660  44.674  0.00  0.00     0.026 A 
ATOM     19  C   UNL d   1      46.342 -17.850  44.658  0.00  0.00     0.005 A 
BRANCH  16  20
ATOM     20  O   UNL d   1      46.209 -19.156  42.565  0.00  0.00    -0.326 OA
ATOM     21  C   UNL d   1      46.440 -18.810  41.848  0.00  0.00     0.181 C 
ENDBRANCH  16  20
BRANCH  17  22
ATOM     22  O   UNL d   1      46.585 -19.910  43.989  0.00  0.00    -0.326 OA
ATOM     23  C   UNL d   1      46.541 -20.330  44.701  0.00  0.00     0.181 C 
ENDBRANCH  17  22
ENDBRANCH   1  14
TORSDOF 5
ENDMDL
