MODEL 1
REMARK VINA RESULT:      49.0      0.000      0.000
REMARK  6 active torsions:
REMARK  status: ('A' for Active; 'I' for Inactive)
REMARK    1  A    between atoms: C_4  and  C_2 
REMARK       I    between atoms: N_13  and  C_4 
REMARK    2  A    between atoms: O_17  and  C_8 
REMARK    3  A    between atoms: O_18  and  C_9 
REMARK    4  A    between atoms: C_19  and  N_13 
REMARK    5  A    between atoms: C_15  and  C_20 
REMARK    6  A    between atoms: C_20  and  C_19 
ROOT
ATOM      1  C   UNL d   1     -52.629  24.964  33.752  0.00  0.00     0.102 C 
ENDROOT
BRANCH   1   2
ATOM      2  N   UNL d   1     -53.097  24.373  33.417  0.00  0.00    -0.205 NA
ATOM      3  C   UNL d   1     -53.491  23.823  33.904  0.00  0.00     0.299 C 
ATOM      4  O   UNL d   1     -53.959  23.233  33.558  0.00  0.00    -0.263 OA
BRANCH   3   5
ATOM      5  C   UNL d   1     -53.417  23.866  34.736  0.00  0.00     0.161 A 
ATOM      6  N   UNL d   1     -53.201  24.578  35.084  0.00  0.00    -0.140 NA
ATOM      7  N   UNL d   1     -53.126  24.625  35.896  0.00  0.00    -0.105 NA
ATOM      8  C   UNL d   1     -53.267  23.962  36.366  0.00  0.00     0.297 A 
ATOM      9  C   UNL d   1     -53.483  23.251  36.023  0.00  0.00     0.066 A 
ATOM     10  O   UNL d   1     -53.189  24.020  37.197  0.00  0.00    -0.264 OA
ATOM     11  C   UNL d   1     -53.558  23.202  35.205  0.00  0.00     0.031 A 
ENDBRANCH   3   5
ENDBRANCH   1   2
BRANCH   1  12
ATOM     12  C   UNL d   1     -52.427  25.631  33.308  0.00  0.00     0.021 C 
BRANCH  12  13
ATOM     13  C   UNL d   1     -51.659  25.924  33.331  0.00  0.00     0.004 A 
ATOM     14  C   UNL d   1     -51.028  25.405  33.311  0.00  0.00     0.026 A 
ATOM     15  C   UNL d   1     -50.256  25.697  33.334  0.00  0.00     0.116 A 
ATOM     16  C   UNL d   1     -50.125  26.510  33.376  0.00  0.00     0.116 A 
ATOM     17  C   UNL d   1     -50.765  27.032  33.395  0.00  0.00     0.026 A 
ATOM     18  C   UNL d   1     -51.528  26.737  33.373  0.00  0.00     0.002 A 
BRANCH  15  19
ATOM     19  O   UNL d   1     -49.609  25.165  33.314  0.00  0.00    -0.326 OA
ATOM     20  C   UNL d   1     -49.706  24.383  33.556  0.00  0.00     0.181 C 
ENDBRANCH  15  19
BRANCH  16  21
ATOM     21  O   UNL d   1     -49.344  26.806  33.399  0.00  0.00    -0.326 OA
ATOM     22  C   UNL d   1     -49.213  27.617  33.476  0.00  0.00     0.181 C 
ENDBRANCH  16  21
ENDBRANCH  12  13
ENDBRANCH   1  12
TORSDOF 6
ENDMDL
MODEL 2
REMARK VINA RESULT:      51.8      2.372      4.231
REMARK  6 active torsions:
REMARK  status: ('A' for Active; 'I' for Inactive)
REMARK    1  A    between atoms: C_4  and  C_2 
REMARK       I    between atoms: N_13  and  C_4 
REMARK    2  A    between atoms: O_17  and  C_8 
REMARK    3  A    between atoms: O_18  and  C_9 
REMARK    4  A    between atoms: C_19  and  N_13 
REMARK    5  A    between atoms: C_15  and  C_20 
REMARK    6  A    between atoms: C_20  and  C_19 
ROOT
ATOM      1  C   UNL d   1     -51.470  26.184  35.241  0.00  0.00     0.102 C 
ENDROOT
BRANCH   1   2
ATOM      2  N   UNL d   1     -50.963  26.446  34.645  0.00  0.00    -0.205 NA
ATOM      3  C   UNL d   1     -50.961  26.070  33.900  0.00  0.00     0.299 C 
ATOM      4  O   UNL d   1     -50.448  26.341  33.308  0.00  0.00    -0.263 OA
BRANCH   3   5
ATOM      5  C   UNL d   1     -51.471  25.424  33.752  0.00  0.00     0.161 A 
ATOM      6  N   UNL d   1     -52.264  25.567  33.594  0.00  0.00    -0.140 NA
ATOM      7  N   UNL d   1     -52.767  24.940  33.448  0.00  0.00    -0.105 NA
ATOM      8  C   UNL d   1     -52.480  24.166  33.458  0.00  0.00     0.297 A 
ATOM      9  C   UNL d   1     -51.691  24.020  33.615  0.00  0.00     0.066 A 
ATOM     10  O   UNL d   1     -53.003  23.530  33.308  0.00  0.00    -0.264 OA
ATOM     11  C   UNL d   1     -51.184  24.651  33.762  0.00  0.00     0.031 A 
ENDBRANCH   3   5
ENDBRANCH   1   2
BRANCH   1  12
ATOM     12  C   UNL d   1     -51.683  26.694  35.855  0.00  0.00     0.021 C 
BRANCH  12  13
ATOM     13  C   UNL d   1     -51.854  26.394  36.600  0.00  0.00     0.004 A 
ATOM     14  C   UNL d   1     -51.454  26.679  37.253  0.00  0.00     0.026 A 
ATOM     15  C   UNL d   1     -51.625  26.379  38.002  0.00  0.00     0.116 A 
ATOM     16  C   UNL d   1     -52.198  25.791  38.090  0.00  0.00     0.116 A 
ATOM     17  C   UNL d   1     -52.600  25.505  37.428  0.00  0.00     0.026 A 
ATOM     18  C   UNL d   1     -52.427  25.806  36.687  0.00  0.00     0.002 A 
BRANCH  15  19
ATOM     19  O   UNL d   1     -51.215  26.671  38.672  0.00  0.00    -0.326 OA
ATOM     20  C   UNL d   1     -50.969  27.458  38.697  0.00  0.00     0.181 C 
ENDBRANCH  15  19
BRANCH  16  21
ATOM     21  O   UNL d   1     -52.370  25.487  38.848  0.00  0.00    -0.326 OA
ATOM     22  C   UNL d   1     -52.551  24.687  38.940  0.00  0.00     0.181 C 
ENDBRANCH  16  21
ENDBRANCH  12  13
ENDBRANCH   1  12
TORSDOF 6
ENDMDL
