MODEL 1
REMARK VINA RESULT:      -8.9      0.000      0.000
REMARK  1 active torsions:
REMARK  status: ('A' for Active; 'I' for Inactive)
REMARK       I    between atoms: N_2  and  C_1 
REMARK       I    between atoms: N_3  and  C_1 
REMARK    1  A    between atoms: C_4  and  N_2 
ROOT
ATOM      1  C   UNL d   1     -47.541  13.453  22.880  0.00  0.00     0.086 A 
ATOM      2  C   UNL d   1     -47.274  12.718  23.152  0.00  0.00     0.018 A 
ATOM      3  C   UNL d   1     -46.470  12.540  23.150  0.00  0.00     0.002 A 
ATOM      4  C   UNL d   1     -47.004  14.014  22.606  0.00  0.00     0.019 A 
ATOM      5  C   UNL d   1     -46.200  13.837  22.604  0.00  0.00     0.002 A 
ATOM      6  C   UNL d   1     -47.819  12.154  23.428  0.00  0.00     0.002 A 
ATOM      7  C   UNL d   1     -45.933  13.102  22.875  0.00  0.00     0.000 A 
ATOM      8  C   UNL d   1     -46.222  11.803  23.423  0.00  0.00     0.000 A 
ATOM      9  C   UNL d   1     -47.554  11.422  23.698  0.00  0.00     0.000 A 
ATOM     10  C   UNL d   1     -46.759  11.245  23.697  0.00  0.00     0.000 A 
ENDROOT
BRANCH   1  11
ATOM     11  N   UNL d   1     -48.349  13.642  22.878  0.00  0.00    -0.192 NA
ATOM     12  C   UNL d   1     -48.604  14.429  22.913  0.00  0.00     0.354 C 
ATOM     13  N   UNL d   1     -49.407  14.589  22.909  0.00  0.00    -0.252 N 
ATOM     14  O   UNL d   1     -48.038  15.047  22.950  0.00  0.00    -0.244 OA
ATOM     15  C   UNL d   1     -49.667  15.394  22.944  0.00  0.00     0.111 A 
ATOM     16  C   UNL d   1     -49.948  13.965  22.872  0.00  0.00     0.111 A 
ATOM     17  C   UNL d   1     -50.489  15.545  22.940  0.00  0.00     0.142 A 
ATOM     18  O   UNL d   1     -51.047  14.900  22.902  0.00  0.00    -0.300 OA
ATOM     19  C   UNL d   1     -50.776  14.127  22.868  0.00  0.00     0.142 A 
ENDBRANCH   1  11
TORSDOF 1
ENDMDL
MODEL 2
REMARK VINA RESULT:      -8.8      0.813      1.723
REMARK  1 active torsions:
REMARK  status: ('A' for Active; 'I' for Inactive)
REMARK       I    between atoms: N_2  and  C_1 
REMARK       I    between atoms: N_3  and  C_1 
REMARK    1  A    between atoms: C_4  and  N_2 
ROOT
ATOM      1  C   UNL d   1     -48.017  12.894  23.294  0.00  0.00     0.086 A 
ATOM      2  C   UNL d   1     -47.216  12.936  23.089  0.00  0.00     0.018 A 
ATOM      3  C   UNL d   1     -46.726  12.281  23.187  0.00  0.00     0.002 A 
ATOM      4  C   UNL d   1     -48.331  12.196  23.599  0.00  0.00     0.019 A 
ATOM      5  C   UNL d   1     -47.842  11.541  23.698  0.00  0.00     0.002 A 
ATOM      6  C   UNL d   1     -46.903  13.642  22.781  0.00  0.00     0.002 A 
ATOM      7  C   UNL d   1     -47.041  11.584  23.492  0.00  0.00     0.000 A 
ATOM      8  C   UNL d   1     -45.932  12.341  22.978  0.00  0.00     0.000 A 
ATOM      9  C   UNL d   1     -46.106  13.684  22.576  0.00  0.00     0.000 A 
ATOM     10  C   UNL d   1     -45.620  13.038  22.673  0.00  0.00     0.000 A 
ENDROOT
BRANCH   1  11
ATOM     11  N   UNL d   1     -48.519  13.548  23.198  0.00  0.00    -0.192 NA
ATOM     12  C   UNL d   1     -49.304  13.452  22.954  0.00  0.00     0.354 C 
ATOM     13  N   UNL d   1     -49.780  14.112  22.867  0.00  0.00    -0.252 N 
ATOM     14  O   UNL d   1     -49.600  12.681  22.800  0.00  0.00    -0.244 OA
ATOM     15  C   UNL d   1     -50.582  14.014  22.617  0.00  0.00     0.111 A 
ATOM     16  C   UNL d   1     -49.469  14.863  23.023  0.00  0.00     0.111 A 
ATOM     17  C   UNL d   1     -51.058  14.695  22.532  0.00  0.00     0.142 A 
ATOM     18  O   UNL d   1     -50.736  15.469  22.694  0.00  0.00    -0.300 OA
ATOM     19  C   UNL d   1     -49.956  15.546  22.934  0.00  0.00     0.142 A 
ENDBRANCH   1  11
TORSDOF 1
ENDMDL
MODEL 3
REMARK VINA RESULT:      -8.7      1.497      4.196
REMARK  1 active torsions:
REMARK  status: ('A' for Active; 'I' for Inactive)
REMARK       I    between atoms: N_2  and  C_1 
REMARK       I    between atoms: N_3  and  C_1 
REMARK    1  A    between atoms: C_4  and  N_2 
ROOT
ATOM      1  C   UNL d   1     -49.422  12.925  23.008  0.00  0.00     0.086 A 
ATOM      2  C   UNL d   1     -49.792  13.666  22.988  0.00  0.00     0.018 A 
ATOM      3  C   UNL d   1     -50.613  13.720  22.958  0.00  0.00     0.002 A 
ATOM      4  C   UNL d   1     -49.872  12.236  22.998  0.00  0.00     0.019 A 
ATOM      5  C   UNL d   1     -50.693  12.290  22.967  0.00  0.00     0.002 A 
ATOM      6  C   UNL d   1     -49.334  14.360  22.999  0.00  0.00     0.002 A 
ATOM      7  C   UNL d   1     -51.063  13.030  22.947  0.00  0.00     0.000 A 
ATOM      8  C   UNL d   1     -50.965  14.465  22.938  0.00  0.00     0.000 A 
ATOM      9  C   UNL d   1     -49.702  15.097  22.979  0.00  0.00     0.000 A 
ATOM     10  C   UNL d   1     -50.514  15.152  22.949  0.00  0.00     0.000 A 
ENDROOT
BRANCH   1  11
ATOM     11  N   UNL d   1     -48.595  12.860  23.039  0.00  0.00    -0.192 NA
ATOM     12  C   UNL d   1     -48.231  12.184  23.348  0.00  0.00     0.354 C 
ATOM     13  N   UNL d   1     -47.414  12.143  23.367  0.00  0.00    -0.252 N 
ATOM     14  O   UNL d   1     -48.704  11.553  23.635  0.00  0.00    -0.244 OA
ATOM     15  C   UNL d   1     -47.042  11.452  23.683  0.00  0.00     0.111 A 
ATOM     16  C   UNL d   1     -46.966  12.776  23.079  0.00  0.00     0.111 A 
ATOM     17  C   UNL d   1     -46.207  11.422  23.698  0.00  0.00     0.142 A 
ATOM     18  O   UNL d   1     -45.746  12.076  23.400  0.00  0.00    -0.300 OA
ATOM     19  C   UNL d   1     -46.124  12.738  23.098  0.00  0.00     0.142 A 
ENDBRANCH   1  11
TORSDOF 1
ENDMDL
MODEL 4
REMARK VINA RESULT:      -6.0      9.168      9.829
REMARK  1 active torsions:
REMARK  status: ('A' for Active; 'I' for Inactive)
REMARK       I    between atoms: N_2  and  C_1 
REMARK       I    between atoms: N_3  and  C_1 
REMARK    1  A    between atoms: C_4  and  N_2 
ROOT
ATOM      1  C   UNL d   1     -39.633  14.592  18.869  0.00  0.00     0.086 A 
ATOM      2  C   UNL d   1     -40.095  14.926  18.267  0.00  0.00     0.018 A 
ATOM      3  C   UNL d   1     -40.087  14.603  17.510  0.00  0.00     0.002 A 
ATOM      4  C   UNL d   1     -39.163  13.935  18.714  0.00  0.00     0.019 A 
ATOM      5  C   UNL d   1     -39.154  13.611  17.957  0.00  0.00     0.002 A 
ATOM      6  C   UNL d   1     -40.569  15.590  18.427  0.00  0.00     0.002 A 
ATOM      7  C   UNL d   1     -39.616  13.945  17.356  0.00  0.00     0.000 A 
ATOM      8  C   UNL d   1     -40.552  14.947  16.923  0.00  0.00     0.000 A 
ATOM      9  C   UNL d   1     -41.028  15.922  17.828  0.00  0.00     0.000 A 
ATOM     10  C   UNL d   1     -41.022  15.604  17.079  0.00  0.00     0.000 A 
ENDROOT
BRANCH   1  11
ATOM     11  N   UNL d   1     -39.634  14.910  19.635  0.00  0.00    -0.192 NA
ATOM     12  C   UNL d   1     -39.260  14.518  20.261  0.00  0.00     0.354 C 
ATOM     13  N   UNL d   1     -39.275  14.851  21.008  0.00  0.00    -0.252 N 
ATOM     14  O   UNL d   1     -38.873  13.786  20.120  0.00  0.00    -0.244 OA
ATOM     15  C   UNL d   1     -38.892  14.450  21.647  0.00  0.00     0.111 A 
ATOM     16  C   UNL d   1     -39.662  15.573  21.126  0.00  0.00     0.111 A 
ATOM     17  C   UNL d   1     -38.914  14.801  22.406  0.00  0.00     0.142 A 
ATOM     18  O   UNL d   1     -39.314  15.546  22.526  0.00  0.00    -0.300 OA
ATOM     19  C   UNL d   1     -39.679  15.920  21.895  0.00  0.00     0.142 A 
ENDBRANCH   1  11
TORSDOF 1
ENDMDL
