MODEL 1
REMARK VINA RESULT:      18.5      0.000      0.000
REMARK  4 active torsions:
REMARK  status: ('A' for Active; 'I' for Inactive)
REMARK    1  A    between atoms: C_7  and  C_4 
REMARK    2  A    between atoms: C_8  and  C_5 
REMARK    3  A    between atoms: S_9  and  C_6 
REMARK    4  A    between atoms: C_14  and  S_9 
ROOT
ATOM      1  N   UNL d   1      46.582 -18.924  42.942  0.00  0.00    -0.200 NA
ATOM      2  N   UNL d   1      46.271 -17.548  42.878  0.00  0.00    -0.202 NA
ATOM      3  N   UNL d   1      46.244 -18.230  44.135  0.00  0.00    -0.206 NA
ATOM      4  C   UNL d   1      46.466 -18.934  43.739  0.00  0.00     0.187 A 
ATOM      5  C   UNL d   1      46.150 -17.548  43.694  0.00  0.00     0.166 A 
ATOM      6  C   UNL d   1      46.485 -18.234  42.513  0.00  0.00     0.197 A 
ENDROOT
BRANCH   5   7
ATOM      7  C   UNL d   1      45.931 -16.851  44.077  0.00  0.00     0.036 A 
ATOM      8  C   UNL d   1      46.377 -16.188  43.971  0.00  0.00     0.003 A 
ATOM      9  C   UNL d   1      46.158 -15.491  44.354  0.00  0.00     0.000 A 
ATOM     10  C   UNL d   1      45.489 -15.478  44.838  0.00  0.00     0.000 A 
ATOM     11  C   UNL d   1      45.039 -16.162  44.940  0.00  0.00     0.000 A 
ATOM     12  C   UNL d   1      45.262 -16.838  44.561  0.00  0.00     0.003 A 
ENDBRANCH   5   7
BRANCH   6  13
ATOM     13  S   UNL d   1      46.608 -18.227  41.671  0.00  0.00    -0.048 SA
BRANCH  13  14
ATOM     14  C   UNL d   1      46.318 -18.843  41.198  0.00  0.00     0.038 C 
ATOM     15  C   UNL d   1      46.560 -18.917  40.410  0.00  0.00     0.008 C 
ENDBRANCH  13  14
ENDBRANCH   6  13
BRANCH   4  16
ATOM     16  C   UNL d   1      46.570 -19.639  44.151  0.00  0.00     0.151 C 
ATOM     17 CL   UNL d   1      46.646 -20.329  43.735  0.00  0.00    -0.067 Cl
ATOM     18 CL   UNL d   1      46.594 -19.645  44.955  0.00  0.00    -0.067 Cl
ENDBRANCH   4  16
TORSDOF 4
ENDMDL
MODEL 2
REMARK VINA RESULT:      18.7      1.337      2.234
REMARK  4 active torsions:
REMARK  status: ('A' for Active; 'I' for Inactive)
REMARK    1  A    between atoms: C_7  and  C_4 
REMARK    2  A    between atoms: C_8  and  C_5 
REMARK    3  A    between atoms: S_9  and  C_6 
REMARK    4  A    between atoms: C_14  and  S_9 
ROOT
ATOM      1  N   UNL d   1      46.585 -19.044  43.582  0.00  0.00    -0.200 NA
ATOM      2  N   UNL d   1      46.271 -18.165  44.641  0.00  0.00    -0.202 NA
ATOM      3  N   UNL d   1      46.211 -17.706  43.288  0.00  0.00    -0.206 NA
ATOM      4  C   UNL d   1      46.447 -18.469  43.035  0.00  0.00     0.187 A 
ATOM      5  C   UNL d   1      46.127 -17.569  44.090  0.00  0.00     0.166 A 
ATOM      6  C   UNL d   1      46.498 -18.893  44.381  0.00  0.00     0.197 A 
ENDROOT
BRANCH   5   7
ATOM      7  C   UNL d   1      45.895 -16.820  44.346  0.00  0.00     0.036 A 
ATOM      8  C   UNL d   1      45.172 -16.729  44.689  0.00  0.00     0.003 A 
ATOM      9  C   UNL d   1      44.939 -15.980  44.945  0.00  0.00     0.000 A 
ATOM     10  C   UNL d   1      45.446 -15.335  44.848  0.00  0.00     0.000 A 
ATOM     11  C   UNL d   1      46.184 -15.438  44.496  0.00  0.00     0.000 A 
ATOM     12  C   UNL d   1      46.402 -16.174  44.249  0.00  0.00     0.003 A 
ENDBRANCH   5   7
BRANCH   6  13
ATOM     13  S   UNL d   1      46.645 -19.504  44.955  0.00  0.00    -0.048 SA
BRANCH  13  14
ATOM     14  C   UNL d   1      46.298 -20.252  44.871  0.00  0.00     0.038 C 
ATOM     15  C   UNL d   1      45.478 -20.327  44.778  0.00  0.00     0.008 C 
ENDBRANCH  13  14
ENDBRANCH   6  13
BRANCH   4  16
ATOM     16  C   UNL d   1      46.541 -18.642  42.237  0.00  0.00     0.151 C 
ATOM     17 CL   UNL d   1      46.589 -19.416  42.006  0.00  0.00    -0.067 Cl
ATOM     18 CL   UNL d   1      46.584 -18.053  41.691  0.00  0.00    -0.067 Cl
ENDBRANCH   4  16
TORSDOF 4
ENDMDL
