MODEL 1
REMARK VINA RESULT:      65.6      0.000      0.000
REMARK  5 active torsions:
REMARK  status: ('A' for Active; 'I' for Inactive)
REMARK    1  A    between atoms: C_9  and  N_1 
REMARK    2  A    between atoms: C_8  and  C_3 
REMARK       I    between atoms: N_12  and  C_8 
REMARK    3  A    between atoms: C_21  and  C_9 
REMARK    4  A    between atoms: C_20  and  N_12 
REMARK    5  A    between atoms: C_13  and  C_20 
ROOT
ATOM      1  N   UNL d   1      13.377  14.325  -4.551  0.00  0.00    -0.273 N 
ATOM      2  C   UNL d   1      13.296  13.530  -4.378  0.00  0.00     0.177 A 
ATOM      3  C   UNL d   1      13.607  13.406  -3.615  0.00  0.00     0.115 A 
ATOM      4  C   UNL d   1      13.732  14.700  -3.914  0.00  0.00     0.167 A 
ATOM      5  C   UNL d   1      13.875  14.130  -3.333  0.00  0.00     0.123 A 
ATOM      6  N   UNL d   1      13.949  15.492  -3.778  0.00  0.00    -0.225 NA
ATOM      7  N   UNL d   1      14.234  14.352  -2.615  0.00  0.00    -0.241 NA
ATOM      8  C   UNL d   1      14.305  15.708  -3.066  0.00  0.00     0.101 A 
ATOM      9  C   UNL d   1      14.447  15.137  -2.485  0.00  0.00     0.099 A 
ATOM     10  N   UNL d   1      12.966  12.950  -4.866  0.00  0.00    -0.128 N 
ATOM     11  C   UNL d   1      14.803  15.353  -1.772  0.00  0.00     0.021 A 
ATOM     12  C   UNL d   1      14.518  16.494  -2.935  0.00  0.00     0.021 A 
ATOM     13  C   UNL d   1      15.017  16.140  -1.641  0.00  0.00     0.002 A 
ATOM     14  C   UNL d   1      14.875  16.711  -2.223  0.00  0.00     0.002 A 
ENDROOT
BRANCH   3  15
ATOM     15  C   UNL d   1      13.640  12.681  -3.212  0.00  0.00     0.284 C 
ATOM     16  N   UNL d   1      14.091  12.609  -2.526  0.00  0.00    -0.204 NA
ATOM     17  O   UNL d   1      13.217  12.030  -3.505  0.00  0.00    -0.265 OA
BRANCH  16  18
ATOM     18  C   UNL d   1      14.119  11.879  -2.128  0.00  0.00     0.127 C 
BRANCH  18  19
ATOM     19  C   UNL d   1      14.179  11.863  -1.302  0.00  0.00     0.119 A 
ATOM     20  O   UNL d   1      14.882  11.914  -0.867  0.00  0.00    -0.304 OA
ATOM     21  C   UNL d   1      14.681  11.876  -0.074  0.00  0.00     0.123 A 
ATOM     22  C   UNL d   1      13.853  11.801  -0.018  0.00  0.00     0.029 A 
ATOM     23  C   UNL d   1      13.554  11.794  -0.775  0.00  0.00     0.028 A 
ENDBRANCH  18  19
ENDBRANCH  16  18
ENDBRANCH   3  15
BRANCH   1  24
ATOM     24  C   UNL d   1      13.137  14.694  -5.265  0.00  0.00     0.083 C 
BRANCH  24  25
ATOM     25  C   UNL d   1      13.627  15.248  -5.630  0.00  0.00     0.018 A 
ATOM     26  C   UNL d   1      14.395  15.045  -5.835  0.00  0.00     0.002 A 
ATOM     27  C   UNL d   1      14.887  15.602  -6.203  0.00  0.00     0.000 A 
ATOM     28  C   UNL d   1      14.609  16.358  -6.364  0.00  0.00     0.000 A 
ATOM     29  C   UNL d   1      13.832  16.562  -6.156  0.00  0.00     0.000 A 
ATOM     30  C   UNL d   1      13.340  16.005  -5.789  0.00  0.00     0.002 A 
ENDBRANCH  24  25
ENDBRANCH   1  24
TORSDOF 5
ENDMDL
MODEL 2
REMARK VINA RESULT:      66.2      1.782      2.797
REMARK  5 active torsions:
REMARK  status: ('A' for Active; 'I' for Inactive)
REMARK    1  A    between atoms: C_9  and  N_1 
REMARK    2  A    between atoms: C_8  and  C_3 
REMARK       I    between atoms: N_12  and  C_8 
REMARK    3  A    between atoms: C_21  and  C_9 
REMARK    4  A    between atoms: C_20  and  N_12 
REMARK    5  A    between atoms: C_13  and  C_20 
ROOT
ATOM      1  N   UNL d   1      14.829  16.747  -4.643  0.00  0.00    -0.273 N 
ATOM      2  C   UNL d   1      14.297  16.242  -5.005  0.00  0.00     0.177 A 
ATOM      3  C   UNL d   1      13.987  15.740  -4.416  0.00  0.00     0.115 A 
ATOM      4  C   UNL d   1      14.858  16.572  -3.843  0.00  0.00     0.167 A 
ATOM      5  C   UNL d   1      14.335  15.947  -3.702  0.00  0.00     0.123 A 
ATOM      6  N   UNL d   1      15.292  16.898  -3.211  0.00  0.00    -0.225 NA
ATOM      7  N   UNL d   1      14.246  15.647  -2.929  0.00  0.00    -0.241 NA
ATOM      8  C   UNL d   1      15.202  16.599  -2.449  0.00  0.00     0.101 A 
ATOM      9  C   UNL d   1      14.679  15.973  -2.308  0.00  0.00     0.099 A 
ATOM     10  N   UNL d   1      14.099  16.226  -5.808  0.00  0.00    -0.128 N 
ATOM     11  C   UNL d   1      14.588  15.674  -1.544  0.00  0.00     0.021 A 
ATOM     12  C   UNL d   1      15.634  16.924  -1.826  0.00  0.00     0.021 A 
ATOM     13  C   UNL d   1      15.021  16.000  -0.921  0.00  0.00     0.002 A 
ATOM     14  C   UNL d   1      15.544  16.625  -1.061  0.00  0.00     0.002 A 
ENDROOT
BRANCH   3  15
ATOM     15  C   UNL d   1      13.426  15.139  -4.532  0.00  0.00     0.284 C 
ATOM     16  N   UNL d   1      13.522  14.407  -4.165  0.00  0.00    -0.204 NA
ATOM     17  O   UNL d   1      12.769  15.280  -5.020  0.00  0.00    -0.265 OA
BRANCH  16  18
ATOM     18  C   UNL d   1      12.956  13.809  -4.286  0.00  0.00     0.127 C 
BRANCH  18  19
ATOM     19  C   UNL d   1      13.169  13.015  -4.187  0.00  0.00     0.119 A 
ATOM     20  O   UNL d   1      13.597  12.558  -4.730  0.00  0.00    -0.304 OA
ATOM     21  C   UNL d   1      13.680  11.811  -4.406  0.00  0.00     0.123 A 
ATOM     22  C   UNL d   1      13.303  11.805  -3.662  0.00  0.00     0.029 A 
ATOM     23  C   UNL d   1      12.993  12.547  -3.537  0.00  0.00     0.028 A 
ENDBRANCH  18  19
ENDBRANCH  16  18
ENDBRANCH   3  15
BRANCH   1  24
ATOM     24  C   UNL d   1      15.271  17.345  -5.030  0.00  0.00     0.083 C 
BRANCH  24  25
ATOM     25  C   UNL d   1      14.893  18.017  -5.322  0.00  0.00     0.018 A 
ATOM     26  C   UNL d   1      14.990  18.739  -4.946  0.00  0.00     0.002 A 
ATOM     27  C   UNL d   1      14.609  19.414  -5.240  0.00  0.00     0.000 A 
ATOM     28  C   UNL d   1      14.134  19.364  -5.908  0.00  0.00     0.000 A 
ATOM     29  C   UNL d   1      14.037  18.633  -6.288  0.00  0.00     0.000 A 
ATOM     30  C   UNL d   1      14.418  17.958  -5.994  0.00  0.00     0.002 A 
ENDBRANCH  24  25
ENDBRANCH   1  24
TORSDOF 5
ENDMDL
MODEL 3
REMARK VINA RESULT:      67.1      2.249      5.372
REMARK  5 active torsions:
REMARK  status: ('A' for Active; 'I' for Inactive)
REMARK    1  A    between atoms: C_9  and  N_1 
REMARK    2  A    between atoms: C_8  and  C_3 
REMARK       I    between atoms: N_12  and  C_8 
REMARK    3  A    between atoms: C_21  and  C_9 
REMARK    4  A    between atoms: C_20  and  N_12 
REMARK    5  A    between atoms: C_13  and  C_20 
ROOT
ATOM      1  N   UNL d   1      14.420  15.789  -2.266  0.00  0.00    -0.273 N 
ATOM      2  C   UNL d   1      14.842  16.393  -2.621  0.00  0.00     0.177 A 
ATOM      3  C   UNL d   1      14.844  16.248  -3.442  0.00  0.00     0.115 A 
ATOM      4  C   UNL d   1      14.159  15.271  -2.846  0.00  0.00     0.167 A 
ATOM      5  C   UNL d   1      14.422  15.556  -3.576  0.00  0.00     0.123 A 
ATOM      6  N   UNL d   1      13.712  14.569  -2.813  0.00  0.00    -0.225 NA
ATOM      7  N   UNL d   1      14.238  15.140  -4.274  0.00  0.00    -0.241 NA
ATOM      8  C   UNL d   1      13.532  14.160  -3.506  0.00  0.00     0.101 A 
ATOM      9  C   UNL d   1      13.795  14.446  -4.236  0.00  0.00     0.099 A 
ATOM     10  N   UNL d   1      15.203  17.032  -2.241  0.00  0.00    -0.128 N 
ATOM     11  C   UNL d   1      13.615  14.036  -4.930  0.00  0.00     0.021 A 
ATOM     12  C   UNL d   1      13.088  13.466  -3.469  0.00  0.00     0.021 A 
ATOM     13  C   UNL d   1      13.171  13.341  -4.893  0.00  0.00     0.002 A 
ATOM     14  C   UNL d   1      12.908  13.055  -4.162  0.00  0.00     0.002 A 
ENDROOT
BRANCH   3  15
ATOM     15  C   UNL d   1      15.207  16.720  -4.020  0.00  0.00     0.284 C 
ATOM     16  N   UNL d   1      14.794  17.345  -4.364  0.00  0.00    -0.204 NA
ATOM     17  O   UNL d   1      15.989  16.558  -4.249  0.00  0.00    -0.265 OA
BRANCH  16  18
ATOM     18  C   UNL d   1      15.165  17.814  -4.943  0.00  0.00     0.127 C 
BRANCH  18  19
ATOM     19  C   UNL d   1      14.753  18.444  -5.288  0.00  0.00     0.119 A 
ATOM     20  O   UNL d   1      14.853  19.245  -5.104  0.00  0.00    -0.304 OA
ATOM     21  C   UNL d   1      14.336  19.670  -5.576  0.00  0.00     0.123 A 
ATOM     22  C   UNL d   1      13.915  19.130  -6.052  0.00  0.00     0.029 A 
ATOM     23  C   UNL d   1      14.177  18.382  -5.869  0.00  0.00     0.028 A 
ENDBRANCH  18  19
ENDBRANCH  16  18
ENDBRANCH   3  15
BRANCH   1  24
ATOM     24  C   UNL d   1      14.279  15.713  -1.443  0.00  0.00     0.083 C 
BRANCH  24  25
ATOM     25  C   UNL d   1      14.797  15.277  -0.972  0.00  0.00     0.018 A 
ATOM     26  C   UNL d   1      14.684  14.471  -0.873  0.00  0.00     0.002 A 
ATOM     27  C   UNL d   1      15.206  14.034  -0.400  0.00  0.00     0.000 A 
ATOM     28  C   UNL d   1      15.837  14.404  -0.027  0.00  0.00     0.000 A 
ATOM     29  C   UNL d   1      15.950  15.220  -0.128  0.00  0.00     0.000 A 
ATOM     30  C   UNL d   1      15.429  15.657  -0.601  0.00  0.00     0.002 A 
ENDBRANCH  24  25
ENDBRANCH   1  24
TORSDOF 5
ENDMDL
