MODEL 1
REMARK VINA RESULT:      -2.5      0.000      0.000
REMARK  4 active torsions:
REMARK  status: ('A' for Active; 'I' for Inactive)
REMARK       I    between atoms: C_7  and  N_9 
REMARK    1  A    between atoms: C_15  and  C_7 
REMARK    2  A    between atoms: N_9  and  C_12 
REMARK    3  A    between atoms: C_16  and  C_15 
REMARK    4  A    between atoms: C_17  and  C_16 
ROOT
ATOM      1  N   UNL d   1      33.236  20.067 -23.026  0.00  0.00    -0.169 NA
ATOM      2  C   UNL d   1      33.160  19.393 -22.563  0.00  0.00     0.282 A 
ATOM      3  C   UNL d   1      33.191  19.842 -23.812  0.00  0.00     0.282 A 
ATOM      4  C   UNL d   1      33.068  18.744 -23.071  0.00  0.00     0.064 A 
ATOM      5  C   UNL d   1      33.088  19.029 -23.837  0.00  0.00     0.063 A 
ATOM      6  C   UNL d   1      33.009  18.503 -24.468  0.00  0.00     0.006 A 
ATOM      7  C   UNL d   1      32.969  17.939 -22.918  0.00  0.00     0.024 A 
ATOM      8  O   UNL d   1      33.176  19.384 -21.741  0.00  0.00    -0.265 OA
ATOM      9  O   UNL d   1      33.241  20.339 -24.466  0.00  0.00    -0.265 OA
ATOM     10  C   UNL d   1      32.890  17.418 -23.545  0.00  0.00     0.085 A 
ATOM     11  C   UNL d   1      32.910  17.697 -24.325  0.00  0.00     0.019 A 
ENDROOT
BRANCH  10  12
ATOM     12  N   UNL d   1      32.792  16.614 -23.393  0.00  0.00    -0.208 NA
ATOM     13  C   UNL d   1      32.060  16.262 -23.511  0.00  0.00     0.279 C 
ATOM     14  O   UNL d   1      31.966  15.461 -23.359  0.00  0.00    -0.265 OA
BRANCH  13  15
ATOM     15  C   UNL d   1      31.428  16.701 -23.779  0.00  0.00     0.062 C 
BRANCH  15  16
ATOM     16  C   UNL d   1      30.710  16.323 -23.931  0.00  0.00     0.005 C 
BRANCH  16  17
ATOM     17  C   UNL d   1      30.024  16.772 -24.040  0.00  0.00     0.000 C 
ATOM     18  C   UNL d   1      29.314  16.402 -24.243  0.00  0.00     0.000 C 
ENDBRANCH  16  17
ENDBRANCH  15  16
ENDBRANCH  13  15
ENDBRANCH  10  12
TORSDOF 4
ENDMDL
MODEL 2
REMARK VINA RESULT:      -0.9      2.435      3.655
REMARK  4 active torsions:
REMARK  status: ('A' for Active; 'I' for Inactive)
REMARK       I    between atoms: C_7  and  N_9 
REMARK    1  A    between atoms: C_15  and  C_7 
REMARK    2  A    between atoms: N_9  and  C_12 
REMARK    3  A    between atoms: C_16  and  C_15 
REMARK    4  A    between atoms: C_17  and  C_16 
ROOT
ATOM      1  N   UNL d   1      32.101  23.184 -21.294  0.00  0.00    -0.169 NA
ATOM      2  C   UNL d   1      32.103  22.483 -20.866  0.00  0.00     0.282 A 
ATOM      3  C   UNL d   1      32.465  23.044 -22.013  0.00  0.00     0.282 A 
ATOM      4  C   UNL d   1      32.473  21.903 -21.329  0.00  0.00     0.064 A 
ATOM      5  C   UNL d   1      32.693  22.257 -22.033  0.00  0.00     0.063 A 
ATOM      6  C   UNL d   1      33.078  21.809 -22.609  0.00  0.00     0.006 A 
ATOM      7  C   UNL d   1      32.630  21.106 -21.186  0.00  0.00     0.024 A 
ATOM      8  O   UNL d   1      31.788  22.392 -20.113  0.00  0.00    -0.265 OA
ATOM      9  O   UNL d   1      32.585  23.592 -22.615  0.00  0.00    -0.265 OA
ATOM     10  C   UNL d   1      33.012  20.663 -21.759  0.00  0.00     0.085 A 
ATOM     11  C   UNL d   1      33.239  21.012 -22.475  0.00  0.00     0.019 A 
ENDROOT
BRANCH  10  12
ATOM     12  N   UNL d   1      33.169  19.866 -21.616  0.00  0.00    -0.208 NA
ATOM     13  C   UNL d   1      33.081  19.317 -22.219  0.00  0.00     0.279 C 
ATOM     14  O   UNL d   1      33.238  18.525 -22.072  0.00  0.00    -0.265 OA
BRANCH  13  15
ATOM     15  C   UNL d   1      32.839  19.552 -22.961  0.00  0.00     0.062 C 
BRANCH  15  16
ATOM     16  C   UNL d   1      32.762  18.987 -23.558  0.00  0.00     0.005 C 
BRANCH  16  17
ATOM     17  C   UNL d   1      32.572  19.225 -24.327  0.00  0.00     0.000 C 
ATOM     18  C   UNL d   1      32.304  18.672 -24.878  0.00  0.00     0.000 C 
ENDBRANCH  16  17
ENDBRANCH  15  16
ENDBRANCH  13  15
ENDBRANCH  10  12
TORSDOF 4
ENDMDL
MODEL 3
REMARK VINA RESULT:      -0.7      0.803      1.536
REMARK  4 active torsions:
REMARK  status: ('A' for Active; 'I' for Inactive)
REMARK       I    between atoms: C_7  and  N_9 
REMARK    1  A    between atoms: C_15  and  C_7 
REMARK    2  A    between atoms: N_9  and  C_12 
REMARK    3  A    between atoms: C_16  and  C_15 
REMARK    4  A    between atoms: C_17  and  C_16 
ROOT
ATOM      1  N   UNL d   1      33.136  19.500 -22.568  0.00  0.00    -0.169 NA
ATOM      2  C   UNL d   1      33.093  19.217 -23.338  0.00  0.00     0.282 A 
ATOM      3  C   UNL d   1      33.187  18.857 -22.063  0.00  0.00     0.282 A 
ATOM      4  C   UNL d   1      33.118  18.389 -23.306  0.00  0.00     0.064 A 
ATOM      5  C   UNL d   1      33.176  18.176 -22.519  0.00  0.00     0.063 A 
ATOM      6  C   UNL d   1      33.212  17.377 -22.316  0.00  0.00     0.006 A 
ATOM      7  C   UNL d   1      33.096  17.818 -23.901  0.00  0.00     0.024 A 
ATOM      8  O   UNL d   1      33.036  19.689 -24.008  0.00  0.00    -0.265 OA
ATOM      9  O   UNL d   1      33.240  18.884 -21.242  0.00  0.00    -0.265 OA
ATOM     10  C   UNL d   1      33.131  17.025 -23.698  0.00  0.00     0.085 A 
ATOM     11  C   UNL d   1      33.189  16.799 -22.903  0.00  0.00     0.019 A 
ENDROOT
BRANCH  10  12
ATOM     12  N   UNL d   1      33.108  16.454 -24.293  0.00  0.00    -0.208 NA
ATOM     13  C   UNL d   1      32.397  16.094 -24.487  0.00  0.00     0.279 C 
ATOM     14  O   UNL d   1      32.379  15.526 -25.080  0.00  0.00    -0.265 OA
BRANCH  13  15
ATOM     15  C   UNL d   1      31.711  16.297 -24.097  0.00  0.00     0.062 C 
BRANCH  15  16
ATOM     16  C   UNL d   1      31.039  15.826 -24.193  0.00  0.00     0.005 C 
BRANCH  16  17
ATOM     17  C   UNL d   1      30.290  16.141 -24.036  0.00  0.00     0.000 C 
ATOM     18  C   UNL d   1      29.762  16.283 -24.654  0.00  0.00     0.000 C 
ENDBRANCH  16  17
ENDBRANCH  15  16
ENDBRANCH  13  15
ENDBRANCH  10  12
TORSDOF 4
ENDMDL
