MODEL 1
REMARK VINA RESULT:      -5.9      0.000      0.000
REMARK  8 active torsions:
REMARK  status: ('A' for Active; 'I' for Inactive)
REMARK    1  A    between atoms: C_6  and  C_1 
REMARK    2  A    between atoms: C_8  and  N_3 
REMARK    3  A    between atoms: C_7  and  C_6 
REMARK    4  A    between atoms: C_9  and  C_7 
REMARK    5  A    between atoms: C_14  and  C_8 
REMARK    6  A    between atoms: C_17  and  C_14 
REMARK    7  A    between atoms: C_15  and  C_16 
REMARK    8  A    between atoms: C_16  and  C_17 
ROOT
ATOM      1  C   UNL d   1     -47.737  11.470  23.403  0.00  0.00     0.148 A 
ATOM      2  N   UNL d   1     -47.316  10.668  23.622  0.00  0.00    -0.227 NA
ATOM      3  N   UNL d   1     -47.070  12.079  23.205  0.00  0.00    -0.289 N 
ATOM      4  C   UNL d   1     -46.246  11.670  23.296  0.00  0.00     0.083 A 
ATOM      5  C   UNL d   1     -46.402  10.777  23.561  0.00  0.00     0.099 A 
ATOM      6  C   UNL d   1     -45.376  11.981  23.178  0.00  0.00     0.019 A 
ATOM      7  C   UNL d   1     -45.682  10.222  23.698  0.00  0.00     0.021 A 
ATOM      8  C   UNL d   1     -44.674  11.404  23.322  0.00  0.00     0.002 A 
ATOM      9  C   UNL d   1     -44.829  10.511  23.586  0.00  0.00     0.002 A 
ENDROOT
BRANCH   1  10
ATOM     10  C   UNL d   1     -48.349  11.937  23.288  0.00  0.00     0.037 C 
BRANCH  10  11
ATOM     11  C   UNL d   1     -49.103  11.671  23.115  0.00  0.00     0.003 C 
BRANCH  11  12
ATOM     12  C   UNL d   1     -49.759  12.172  23.037  0.00  0.00     0.000 A 
ATOM     13  C   UNL d   1     -50.137  12.481  23.693  0.00  0.00     0.000 A 
ATOM     14  C   UNL d   1     -50.787  12.975  23.610  0.00  0.00     0.000 A 
ATOM     15  C   UNL d   1     -51.064  13.165  22.848  0.00  0.00     0.000 A 
ATOM     16  C   UNL d   1     -50.684  12.854  22.191  0.00  0.00     0.000 A 
ATOM     17  C   UNL d   1     -50.037  12.361  22.274  0.00  0.00     0.000 A 
ENDBRANCH  11  12
ENDBRANCH  10  11
ENDBRANCH   1  10
BRANCH   3  18
ATOM     18  C   UNL d   1     -46.557  12.670  23.016  0.00  0.00     0.082 C 
BRANCH  18  19
ATOM     19  C   UNL d   1     -46.778  13.452  23.110  0.00  0.00     0.019 C 
BRANCH  19  20
ATOM     20  C   UNL d   1     -46.632  13.999  22.521  0.00  0.00     0.002 C 
BRANCH  20  21
ATOM     21  C   UNL d   1     -46.910  14.774  22.584  0.00  0.00     0.000 C 
BRANCH  21  22
ATOM     22  C   UNL d   1     -47.643  14.988  22.278  0.00  0.00     0.000 C 
ATOM     23  C   UNL d   1     -47.940  15.752  22.378  0.00  0.00     0.000 C 
ENDBRANCH  21  22
ENDBRANCH  20  21
ENDBRANCH  19  20
ENDBRANCH  18  19
ENDBRANCH   3  18
TORSDOF 8
ENDMDL
MODEL 2
REMARK VINA RESULT:      -5.0      6.971      9.497
REMARK  8 active torsions:
REMARK  status: ('A' for Active; 'I' for Inactive)
REMARK    1  A    between atoms: C_6  and  C_1 
REMARK    2  A    between atoms: C_8  and  N_3 
REMARK    3  A    between atoms: C_7  and  C_6 
REMARK    4  A    between atoms: C_9  and  C_7 
REMARK    5  A    between atoms: C_14  and  C_8 
REMARK    6  A    between atoms: C_17  and  C_14 
REMARK    7  A    between atoms: C_15  and  C_16 
REMARK    8  A    between atoms: C_16  and  C_17 
ROOT
ATOM      1  C   UNL d   1     -38.875  14.560  20.043  0.00  0.00     0.148 A 
ATOM      2  N   UNL d   1     -38.426  14.799  19.262  0.00  0.00    -0.227 NA
ATOM      3  N   UNL d   1     -39.767  14.458  19.821  0.00  0.00    -0.289 N 
ATOM      4  C   UNL d   1     -39.877  14.629  18.919  0.00  0.00     0.083 A 
ATOM      5  C   UNL d   1     -39.029  14.845  18.565  0.00  0.00     0.099 A 
ATOM      6  C   UNL d   1     -40.629  14.620  18.368  0.00  0.00     0.019 A 
ATOM      7  C   UNL d   1     -38.957  15.046  17.671  0.00  0.00     0.021 A 
ATOM      8  C   UNL d   1     -40.528  14.824  17.476  0.00  0.00     0.002 A 
ATOM      9  C   UNL d   1     -39.680  15.041  17.122  0.00  0.00     0.002 A 
ENDROOT
BRANCH   1  10
ATOM     10  C   UNL d   1     -38.932  14.391  20.801  0.00  0.00     0.037 C 
BRANCH  10  11
ATOM     11  C   UNL d   1     -38.291  14.318  21.304  0.00  0.00     0.003 C 
BRANCH  11  12
ATOM     12  C   UNL d   1     -38.357  14.117  22.105  0.00  0.00     0.000 A 
ATOM     13  C   UNL d   1     -38.480  14.689  22.677  0.00  0.00     0.000 A 
ATOM     14  C   UNL d   1     -38.544  14.485  23.469  0.00  0.00     0.000 A 
ATOM     15  C   UNL d   1     -38.485  13.685  23.693  0.00  0.00     0.000 A 
ATOM     16  C   UNL d   1     -38.362  13.112  23.119  0.00  0.00     0.000 A 
ATOM     17  C   UNL d   1     -38.298  13.317  22.330  0.00  0.00     0.000 A 
ENDBRANCH  11  12
ENDBRANCH  10  11
ENDBRANCH   1  10
BRANCH   3  18
ATOM     18  C   UNL d   1     -40.558  14.348  19.715  0.00  0.00     0.082 C 
BRANCH  18  19
ATOM     19  C   UNL d   1     -41.059  14.321  20.361  0.00  0.00     0.019 C 
BRANCH  19  20
ATOM     20  C   UNL d   1     -41.656  13.765  20.402  0.00  0.00     0.002 C 
BRANCH  20  21
ATOM     21  C   UNL d   1     -42.149  13.721  21.062  0.00  0.00     0.000 C 
BRANCH  21  22
ATOM     22  C   UNL d   1     -42.470  13.004  21.305  0.00  0.00     0.000 C 
ATOM     23  C   UNL d   1     -43.287  12.899  21.360  0.00  0.00     0.000 C 
ENDBRANCH  21  22
ENDBRANCH  20  21
ENDBRANCH  19  20
ENDBRANCH  18  19
ENDBRANCH   3  18
TORSDOF 8
ENDMDL
MODEL 3
REMARK VINA RESULT:      -4.9      7.223      9.282
REMARK  8 active torsions:
REMARK  status: ('A' for Active; 'I' for Inactive)
REMARK    1  A    between atoms: C_6  and  C_1 
REMARK    2  A    between atoms: C_8  and  N_3 
REMARK    3  A    between atoms: C_7  and  C_6 
REMARK    4  A    between atoms: C_9  and  C_7 
REMARK    5  A    between atoms: C_14  and  C_8 
REMARK    6  A    between atoms: C_17  and  C_14 
REMARK    7  A    between atoms: C_15  and  C_16 
REMARK    8  A    between atoms: C_16  and  C_17 
ROOT
ATOM      1  C   UNL d   1     -39.191  15.566  19.999  0.00  0.00     0.148 A 
ATOM      2  N   UNL d   1     -38.454  15.922  20.445  0.00  0.00    -0.227 NA
ATOM      3  N   UNL d   1     -39.700  15.122  20.632  0.00  0.00    -0.289 N 
ATOM      4  C   UNL d   1     -39.292  15.197  21.458  0.00  0.00     0.083 A 
ATOM      5  C   UNL d   1     -38.504  15.703  21.340  0.00  0.00     0.099 A 
ATOM      6  C   UNL d   1     -39.525  14.877  22.302  0.00  0.00     0.019 A 
ATOM      7  C   UNL d   1     -37.971  15.874  22.070  0.00  0.00     0.021 A 
ATOM      8  C   UNL d   1     -38.973  15.063  23.015  0.00  0.00     0.002 A 
ATOM      9  C   UNL d   1     -38.185  15.569  22.897  0.00  0.00     0.002 A 
ENDROOT
BRANCH   1  10
ATOM     10  C   UNL d   1     -39.640  15.423  19.379  0.00  0.00     0.037 C 
BRANCH  10  11
ATOM     11  C   UNL d   1     -39.486  15.705  18.627  0.00  0.00     0.003 C 
BRANCH  11  12
ATOM     12  C   UNL d   1     -39.941  15.511  17.962  0.00  0.00     0.000 A 
ATOM     13  C   UNL d   1     -39.704  14.924  17.443  0.00  0.00     0.000 A 
ATOM     14  C   UNL d   1     -40.158  14.735  16.786  0.00  0.00     0.000 A 
ATOM     15  C   UNL d   1     -40.868  15.147  16.646  0.00  0.00     0.000 A 
ATOM     16  C   UNL d   1     -41.104  15.735  17.167  0.00  0.00     0.000 A 
ATOM     17  C   UNL d   1     -40.651  15.922  17.822  0.00  0.00     0.000 A 
ENDBRANCH  11  12
ENDBRANCH  10  11
ENDBRANCH   1  10
BRANCH   3  18
ATOM     18  C   UNL d   1     -40.201  14.715  21.114  0.00  0.00     0.082 C 
BRANCH  18  19
ATOM     19  C   UNL d   1     -40.795  14.253  20.793  0.00  0.00     0.019 C 
BRANCH  19  20
ATOM     20  C   UNL d   1     -41.416  13.995  21.256  0.00  0.00     0.002 C 
BRANCH  20  21
ATOM     21  C   UNL d   1     -42.082  13.647  20.916  0.00  0.00     0.000 C 
BRANCH  21  22
ATOM     22  C   UNL d   1     -42.410  12.960  21.228  0.00  0.00     0.000 C 
ATOM     23  C   UNL d   1     -43.217  12.910  21.394  0.00  0.00     0.000 C 
ENDBRANCH  21  22
ENDBRANCH  20  21
ENDBRANCH  19  20
ENDBRANCH  18  19
ENDBRANCH   3  18
TORSDOF 8
ENDMDL
MODEL 4
REMARK VINA RESULT:      -3.9      1.562      4.912
REMARK  8 active torsions:
REMARK  status: ('A' for Active; 'I' for Inactive)
REMARK    1  A    between atoms: C_6  and  C_1 
REMARK    2  A    between atoms: C_8  and  N_3 
REMARK    3  A    between atoms: C_7  and  C_6 
REMARK    4  A    between atoms: C_9  and  C_7 
REMARK    5  A    between atoms: C_14  and  C_8 
REMARK    6  A    between atoms: C_17  and  C_14 
REMARK    7  A    between atoms: C_15  and  C_16 
REMARK    8  A    between atoms: C_16  and  C_17 
ROOT
ATOM      1  C   UNL d   1     -48.063  14.515  22.992  0.00  0.00     0.148 A 
ATOM      2  N   UNL d   1     -48.443  15.365  22.996  0.00  0.00    -0.227 NA
ATOM      3  N   UNL d   1     -48.742  13.915  23.179  0.00  0.00    -0.289 N 
ATOM      4  C   UNL d   1     -49.533  14.379  23.297  0.00  0.00     0.083 A 
ATOM      5  C   UNL d   1     -49.344  15.296  23.182  0.00  0.00     0.099 A 
ATOM      6  C   UNL d   1     -50.399  14.097  23.495  0.00  0.00     0.019 A 
ATOM      7  C   UNL d   1     -50.027  15.905  23.267  0.00  0.00     0.021 A 
ATOM      8  C   UNL d   1     -51.064  14.729  23.574  0.00  0.00     0.002 A 
ATOM      9  C   UNL d   1     -50.876  15.646  23.458  0.00  0.00     0.002 A 
ENDROOT
BRANCH   1  10
ATOM     10  C   UNL d   1     -47.482  14.001  22.919  0.00  0.00     0.037 C 
BRANCH  10  11
ATOM     11  C   UNL d   1     -46.700  14.208  22.802  0.00  0.00     0.003 C 
BRANCH  11  12
ATOM     12  C   UNL d   1     -46.099  13.660  22.642  0.00  0.00     0.000 A 
ATOM     13  C   UNL d   1     -45.766  13.600  21.897  0.00  0.00     0.000 A 
ATOM     14  C   UNL d   1     -45.172  13.055  21.744  0.00  0.00     0.000 A 
ATOM     15  C   UNL d   1     -44.904  12.557  22.355  0.00  0.00     0.000 A 
ATOM     16  C   UNL d   1     -45.238  12.618  23.102  0.00  0.00     0.000 A 
ATOM     17  C   UNL d   1     -45.831  13.161  23.254  0.00  0.00     0.000 A 
ENDBRANCH  11  12
ENDBRANCH  10  11
ENDBRANCH   1  10
BRANCH   3  18
ATOM     18  C   UNL d   1     -49.270  13.327  23.334  0.00  0.00     0.082 C 
BRANCH  18  19
ATOM     19  C   UNL d   1     -49.019  12.632  23.685  0.00  0.00     0.019 C 
BRANCH  19  20
ATOM     20  C   UNL d   1     -49.254  11.908  23.389  0.00  0.00     0.002 C 
BRANCH  20  21
ATOM     21  C   UNL d   1     -48.951  11.205  23.698  0.00  0.00     0.000 C 
BRANCH  21  22
ATOM     22  C   UNL d   1     -48.449  10.728  23.255  0.00  0.00     0.000 C 
ATOM     23  C   UNL d   1     -47.675  10.579  23.501  0.00  0.00     0.000 C 
ENDBRANCH  21  22
ENDBRANCH  20  21
ENDBRANCH  19  20
ENDBRANCH  18  19
ENDBRANCH   3  18
TORSDOF 8
ENDMDL
MODEL 5
REMARK VINA RESULT:      -3.9      8.076      9.821
REMARK  8 active torsions:
REMARK  status: ('A' for Active; 'I' for Inactive)
REMARK    1  A    between atoms: C_6  and  C_1 
REMARK    2  A    between atoms: C_8  and  N_3 
REMARK    3  A    between atoms: C_7  and  C_6 
REMARK    4  A    between atoms: C_9  and  C_7 
REMARK    5  A    between atoms: C_14  and  C_8 
REMARK    6  A    between atoms: C_17  and  C_14 
REMARK    7  A    between atoms: C_15  and  C_16 
REMARK    8  A    between atoms: C_16  and  C_17 
ROOT
ATOM      1  C   UNL d   1     -39.196  13.757  18.636  0.00  0.00     0.148 A 
ATOM      2  N   UNL d   1     -38.698  13.001  18.413  0.00  0.00    -0.227 NA
ATOM      3  N   UNL d   1     -39.302  14.248  17.858  0.00  0.00    -0.289 N 
ATOM      4  C   UNL d   1     -38.881  13.809  17.162  0.00  0.00     0.083 A 
ATOM      5  C   UNL d   1     -38.499  13.020  17.513  0.00  0.00     0.099 A 
ATOM      6  C   UNL d   1     -38.790  14.015  16.258  0.00  0.00     0.019 A 
ATOM      7  C   UNL d   1     -38.037  12.461  16.949  0.00  0.00     0.021 A 
ATOM      8  C   UNL d   1     -38.322  13.436  15.715  0.00  0.00     0.002 A 
ATOM      9  C   UNL d   1     -37.940  12.648  16.066  0.00  0.00     0.002 A 
ENDROOT
BRANCH   1  10
ATOM     10  C   UNL d   1     -39.587  14.229  19.116  0.00  0.00     0.037 C 
BRANCH  10  11
ATOM     11  C   UNL d   1     -39.453  14.276  19.921  0.00  0.00     0.003 C 
BRANCH  11  12
ATOM     12  C   UNL d   1     -40.011  14.562  20.463  0.00  0.00     0.000 A 
ATOM     13  C   UNL d   1     -40.566  14.067  20.803  0.00  0.00     0.000 A 
ATOM     14  C   UNL d   1     -41.116  14.355  21.339  0.00  0.00     0.000 A 
ATOM     15  C   UNL d   1     -41.110  15.163  21.539  0.00  0.00     0.000 A 
ATOM     16  C   UNL d   1     -40.552  15.659  21.198  0.00  0.00     0.000 A 
ATOM     17  C   UNL d   1     -40.004  15.371  20.664  0.00  0.00     0.000 A 
ENDBRANCH  11  12
ENDBRANCH  10  11
ENDBRANCH   1  10
BRANCH   3  18
ATOM     18  C   UNL d   1     -39.442  14.734  17.232  0.00  0.00     0.082 C 
BRANCH  18  19
ATOM     19  C   UNL d   1     -39.992  15.337  17.295  0.00  0.00     0.019 C 
BRANCH  19  20
ATOM     20  C   UNL d   1     -40.425  15.574  16.645  0.00  0.00     0.002 C 
BRANCH  20  21
ATOM     21  C   UNL d   1     -41.188  15.877  16.732  0.00  0.00     0.000 C 
BRANCH  21  22
ATOM     22  C   UNL d   1     -41.784  15.687  16.198  0.00  0.00     0.000 C 
ATOM     23  C   UNL d   1     -42.564  15.921  16.329  0.00  0.00     0.000 C 
ENDBRANCH  21  22
ENDBRANCH  20  21
ENDBRANCH  19  20
ENDBRANCH  18  19
ENDBRANCH   3  18
TORSDOF 8
ENDMDL
MODEL 6
REMARK VINA RESULT:      -3.4      0.906      4.528
REMARK  8 active torsions:
REMARK  status: ('A' for Active; 'I' for Inactive)
REMARK    1  A    between atoms: C_6  and  C_1 
REMARK    2  A    between atoms: C_8  and  N_3 
REMARK    3  A    between atoms: C_7  and  C_6 
REMARK    4  A    between atoms: C_9  and  C_7 
REMARK    5  A    between atoms: C_14  and  C_8 
REMARK    6  A    between atoms: C_17  and  C_14 
REMARK    7  A    between atoms: C_15  and  C_16 
REMARK    8  A    between atoms: C_16  and  C_17 
ROOT
ATOM      1  C   UNL d   1     -46.344  12.781  22.956  0.00  0.00     0.148 A 
ATOM      2  N   UNL d   1     -46.032  13.622  22.703  0.00  0.00    -0.227 NA
ATOM      3  N   UNL d   1     -47.269  12.828  22.964  0.00  0.00    -0.289 N 
ATOM      4  C   UNL d   1     -47.531  13.681  22.720  0.00  0.00     0.083 A 
ATOM      5  C   UNL d   1     -46.749  14.183  22.555  0.00  0.00     0.099 A 
ATOM      6  C   UNL d   1     -48.371  14.073  22.625  0.00  0.00     0.019 A 
ATOM      7  C   UNL d   1     -46.830  15.062  22.300  0.00  0.00     0.021 A 
ATOM      8  C   UNL d   1     -48.423  14.955  22.368  0.00  0.00     0.002 A 
ATOM      9  C   UNL d   1     -47.641  15.457  22.203  0.00  0.00     0.002 A 
ENDROOT
BRANCH   1  10
ATOM     10  C   UNL d   1     -46.272  12.037  23.173  0.00  0.00     0.037 C 
BRANCH  10  11
ATOM     11  C   UNL d   1     -45.706  11.764  23.696  0.00  0.00     0.003 C 
BRANCH  11  12
ATOM     12  C   UNL d   1     -45.234  11.098  23.555  0.00  0.00     0.000 A 
ATOM     13  C   UNL d   1     -44.456  11.172  23.314  0.00  0.00     0.000 A 
ATOM     14  C   UNL d   1     -43.992  10.510  23.176  0.00  0.00     0.000 A 
ATOM     15  C   UNL d   1     -44.319   9.751  23.282  0.00  0.00     0.000 A 
ATOM     16  C   UNL d   1     -45.100   9.677  23.524  0.00  0.00     0.000 A 
ATOM     17  C   UNL d   1     -45.561  10.339  23.661  0.00  0.00     0.000 A 
ENDBRANCH  11  12
ENDBRANCH  10  11
ENDBRANCH   1  10
BRANCH   3  18
ATOM     18  C   UNL d   1     -48.072  12.782  22.996  0.00  0.00     0.082 C 
BRANCH  18  19
ATOM     19  C   UNL d   1     -48.442  12.052  22.984  0.00  0.00     0.019 C 
BRANCH  19  20
ATOM     20  C   UNL d   1     -49.126  11.927  23.411  0.00  0.00     0.002 C 
BRANCH  20  21
ATOM     21  C   UNL d   1     -49.771  11.539  23.073  0.00  0.00     0.000 C 
BRANCH  21  22
ATOM     22  C   UNL d   1     -50.471  11.431  23.493  0.00  0.00     0.000 C 
ATOM     23  C   UNL d   1     -50.948  12.072  23.698  0.00  0.00     0.000 C 
ENDBRANCH  21  22
ENDBRANCH  20  21
ENDBRANCH  19  20
ENDBRANCH  18  19
ENDBRANCH   3  18
TORSDOF 8
ENDMDL
