MODEL 1
REMARK VINA RESULT:      -2.9      0.000      0.000
REMARK  5 active torsions:
REMARK  status: ('A' for Active; 'I' for Inactive)
REMARK    1  A    between atoms: N_3  and  C_1 
REMARK    2  A    between atoms: C_12  and  N_2 
REMARK       I    between atoms: C_5  and  N_3 
REMARK    3  A    between atoms: C_8  and  C_5 
REMARK    4  A    between atoms: C_15  and  C_12 
REMARK    5  A    between atoms: O_22  and  C_15 
ROOT
ATOM      1  C   UNL d   1      33.087  21.748 -20.925  0.00  0.00     0.183 A 
ATOM      2  N   UNL d   1      33.078  22.571 -20.935  0.00  0.00    -0.280 N 
ATOM      3  S   UNL d   1      33.110  21.504 -20.136  0.00  0.00    -0.048 SA
ATOM      4  C   UNL d   1      33.095  22.844 -20.153  0.00  0.00     0.072 A 
ATOM      5  C   UNL d   1      33.115  22.182 -19.656  0.00  0.00     0.048 A 
ATOM      6  C   UNL d   1      33.094  23.604 -19.829  0.00  0.00     0.018 A 
ATOM      7  C   UNL d   1      33.134  22.279 -18.836  0.00  0.00     0.008 A 
ATOM      8  C   UNL d   1      33.114  23.702 -19.009  0.00  0.00     0.002 A 
ATOM      9  C   UNL d   1      33.134  23.039 -18.512  0.00  0.00     0.001 A 
ATOM     10  C   UNL d   1      33.153  23.132 -17.698  0.00  0.00     0.000 C 
ENDROOT
BRANCH   1  11
ATOM     11  N   UNL d   1      33.076  21.258 -21.592  0.00  0.00    -0.183 NA
ATOM     12  C   UNL d   1      33.152  20.441 -21.498  0.00  0.00     0.287 C 
ATOM     13  O   UNL d   1      33.238  20.120 -20.741  0.00  0.00    -0.265 OA
BRANCH  12  14
ATOM     14  C   UNL d   1      33.142  19.951 -22.151  0.00  0.00     0.088 A 
ATOM     15  S   UNL d   1      33.028  19.127 -22.148  0.00  0.00    -0.071 SA
ATOM     16  C   UNL d   1      33.059  18.864 -22.918  0.00  0.00     0.087 A 
ATOM     17 CL   UNL d   1      32.976  18.092 -23.185  0.00  0.00    -0.075 Cl
ATOM     18  C   UNL d   1      33.190  19.513 -23.395  0.00  0.00     0.019 A 
ATOM     19  C   UNL d   1      33.240  20.177 -22.923  0.00  0.00     0.013 A 
ENDBRANCH  12  14
ENDBRANCH   1  11
BRANCH   2  20
ATOM     20  C   UNL d   1      33.060  23.294 -21.331  0.00  0.00     0.151 C 
BRANCH  20  21
ATOM     21  C   UNL d   1      32.651  23.360 -22.036  0.00  0.00     0.314 C 
ATOM     22  O   UNL d   1      31.846  23.209 -22.051  0.00  0.00    -0.257 OA
BRANCH  21  23
ATOM     23  O   UNL d   1      33.039  23.573 -22.718  0.00  0.00    -0.295 OA
ATOM     24  C   UNL d   1      32.620  23.702 -23.404  0.00  0.00     0.185 C 
ENDBRANCH  21  23
ENDBRANCH  20  21
ENDBRANCH   2  20
TORSDOF 5
ENDMDL
MODEL 2
REMARK VINA RESULT:      -1.3      2.107      3.611
REMARK  5 active torsions:
REMARK  status: ('A' for Active; 'I' for Inactive)
REMARK    1  A    between atoms: N_3  and  C_1 
REMARK    2  A    between atoms: C_12  and  N_2 
REMARK       I    between atoms: C_5  and  N_3 
REMARK    3  A    between atoms: C_8  and  C_5 
REMARK    4  A    between atoms: C_15  and  C_12 
REMARK    5  A    between atoms: O_22  and  C_15 
ROOT
ATOM      1  C   UNL d   1      33.113  20.344 -23.263  0.00  0.00     0.183 A 
ATOM      2  N   UNL d   1      33.172  20.972 -22.734  0.00  0.00    -0.280 N 
ATOM      3  S   UNL d   1      33.091  20.656 -24.027  0.00  0.00    -0.048 SA
ATOM      4  C   UNL d   1      33.186  21.679 -23.166  0.00  0.00     0.072 A 
ATOM      5  C   UNL d   1      33.136  21.483 -23.969  0.00  0.00     0.048 A 
ATOM      6  C   UNL d   1      33.238  22.470 -22.935  0.00  0.00     0.018 A 
ATOM      7  C   UNL d   1      33.138  22.079 -24.541  0.00  0.00     0.008 A 
ATOM      8  C   UNL d   1      33.240  23.066 -23.507  0.00  0.00     0.002 A 
ATOM      9  C   UNL d   1      33.190  22.871 -24.310  0.00  0.00     0.001 A 
ATOM     10  C   UNL d   1      33.191  23.459 -24.880  0.00  0.00     0.000 C 
ENDROOT
BRANCH   1  11
ATOM     11  N   UNL d   1      33.083  19.542 -23.057  0.00  0.00    -0.183 NA
ATOM     12  C   UNL d   1      32.788  18.994 -23.600  0.00  0.00     0.287 C 
ATOM     13  O   UNL d   1      32.528  19.248 -24.342  0.00  0.00    -0.265 OA
BRANCH  12  14
ATOM     14  C   UNL d   1      32.755  18.202 -23.405  0.00  0.00     0.088 A 
ATOM     15  S   UNL d   1      32.218  17.642 -23.705  0.00  0.00    -0.071 SA
ATOM     16  C   UNL d   1      32.383  16.923 -23.360  0.00  0.00     0.087 A 
ATOM     17 CL   UNL d   1      31.997  16.210 -23.487  0.00  0.00    -0.075 Cl
ATOM     18  C   UNL d   1      33.014  17.031 -22.854  0.00  0.00     0.019 A 
ATOM     19  C   UNL d   1      33.239  17.815 -22.883  0.00  0.00     0.013 A 
ENDBRANCH  12  14
ENDBRANCH   1  11
BRANCH   2  20
ATOM     20  C   UNL d   1      33.226  21.278 -21.970  0.00  0.00     0.151 C 
BRANCH  20  21
ATOM     21  C   UNL d   1      32.842  20.900 -21.354  0.00  0.00     0.314 C 
ATOM     22  O   UNL d   1      33.233  20.316 -20.934  0.00  0.00    -0.257 OA
BRANCH  21  23
ATOM     23  O   UNL d   1      32.079  21.102 -21.159  0.00  0.00    -0.295 OA
ATOM     24  C   UNL d   1      31.885  21.274 -20.388  0.00  0.00     0.185 C 
ENDBRANCH  21  23
ENDBRANCH  20  21
ENDBRANCH   2  20
TORSDOF 5
ENDMDL
MODEL 3
REMARK VINA RESULT:       0.1      4.817      6.927
REMARK  5 active torsions:
REMARK  status: ('A' for Active; 'I' for Inactive)
REMARK    1  A    between atoms: N_3  and  C_1 
REMARK    2  A    between atoms: C_12  and  N_2 
REMARK       I    between atoms: C_5  and  N_3 
REMARK    3  A    between atoms: C_8  and  C_5 
REMARK    4  A    between atoms: C_15  and  C_12 
REMARK    5  A    between atoms: O_22  and  C_15 
ROOT
ATOM      1  C   UNL d   1      30.834  17.351 -24.149  0.00  0.00     0.183 A 
ATOM      2  N   UNL d   1      30.840  16.544 -23.986  0.00  0.00    -0.280 N 
ATOM      3  S   UNL d   1      30.048  17.607 -24.142  0.00  0.00    -0.048 SA
ATOM      4  C   UNL d   1      30.058  16.293 -23.876  0.00  0.00     0.072 A 
ATOM      5  C   UNL d   1      29.566  16.952 -23.973  0.00  0.00     0.048 A 
ATOM      6  C   UNL d   1      29.730  15.554 -23.702  0.00  0.00     0.018 A 
ATOM      7  C   UNL d   1      28.748  16.873 -23.895  0.00  0.00     0.008 A 
ATOM      8  C   UNL d   1      28.912  15.475 -23.624  0.00  0.00     0.002 A 
ATOM      9  C   UNL d   1      28.420  16.135 -23.721  0.00  0.00     0.001 A 
ATOM     10  C   UNL d   1      27.608  16.060 -23.645  0.00  0.00     0.000 C 
ENDROOT
BRANCH   1  11
ATOM     11  N   UNL d   1      31.502  17.818 -24.294  0.00  0.00    -0.183 NA
ATOM     12  C   UNL d   1      31.406  18.604 -24.529  0.00  0.00     0.287 C 
ATOM     13  O   UNL d   1      30.647  18.918 -24.617  0.00  0.00    -0.265 OA
BRANCH  12  14
ATOM     14  C   UNL d   1      32.060  19.070 -24.673  0.00  0.00     0.088 A 
ATOM     15  S   UNL d   1      32.167  19.859 -24.430  0.00  0.00    -0.071 SA
ATOM     16  C   UNL d   1      32.897  20.108 -24.693  0.00  0.00     0.087 A 
ATOM     17 CL   UNL d   1      33.240  20.846 -24.584  0.00  0.00    -0.075 Cl
ATOM     18  C   UNL d   1      33.241  19.486 -25.094  0.00  0.00     0.019 A 
ATOM     19  C   UNL d   1      32.726  18.852 -25.080  0.00  0.00     0.013 A 
ENDBRANCH  12  14
ENDBRANCH   1  11
BRANCH   2  20
ATOM     20  C   UNL d   1      31.230  15.828 -23.870  0.00  0.00     0.151 C 
BRANCH  20  21
ATOM     21  C   UNL d   1      32.044  15.794 -23.943  0.00  0.00     0.314 C 
ATOM     22  O   UNL d   1      32.375  15.555 -24.654  0.00  0.00    -0.257 OA
BRANCH  21  23
ATOM     23  O   UNL d   1      32.523  15.995 -23.318  0.00  0.00    -0.295 OA
ATOM     24  C   UNL d   1      33.214  15.587 -23.183  0.00  0.00     0.185 C 
ENDBRANCH  21  23
ENDBRANCH  20  21
ENDBRANCH   2  20
TORSDOF 5
ENDMDL
