MODEL 1
REMARK VINA RESULT:      -6.0      0.000      0.000
REMARK  4 active torsions:
REMARK  status: ('A' for Active; 'I' for Inactive)
REMARK    1  A    between atoms: C_2  and  S_1 
REMARK    2  A    between atoms: N_3  and  S_1 
REMARK    3  A    between atoms: C_12  and  N_3 
REMARK    4  A    between atoms: N_4  and  C_8 
ROOT
ATOM      1  S   UNL d   1     -48.046  12.713  23.244  0.00  0.00     0.285 S 
ATOM      2  O   UNL d   1     -48.127  11.896  22.999  0.00  0.00    -0.198 OA
ATOM      3  O   UNL d   1     -47.966  13.488  23.478  0.00  0.00    -0.198 OA
ENDROOT
BRANCH   1   4
ATOM      4  C   UNL d   1     -48.709  12.878  22.823  0.00  0.00     0.105 A 
ATOM      5  C   UNL d   1     -49.007  13.640  22.743  0.00  0.00     0.013 A 
ATOM      6  C   UNL d   1     -49.694  13.802  22.306  0.00  0.00     0.001 A 
ATOM      7  C   UNL d   1     -49.970  14.573  22.242  0.00  0.00     0.000 A 
ATOM      8  C   UNL d   1     -50.090  13.184  21.942  0.00  0.00     0.000 A 
ATOM      9  C   UNL d   1     -50.654  14.733  21.807  0.00  0.00     0.000 A 
ATOM     10  C   UNL d   1     -51.064  14.090  21.429  0.00  0.00     0.000 A 
ATOM     11  C   UNL d   1     -50.772  13.331  21.506  0.00  0.00     0.000 A 
ATOM     12  C   UNL d   1     -49.799  12.404  22.014  0.00  0.00     0.001 A 
ATOM     13  C   UNL d   1     -49.122  12.226  22.442  0.00  0.00     0.013 A 
ENDBRANCH   1   4
BRANCH   1  14
ATOM     14  N   UNL d   1     -47.349  12.510  23.679  0.00  0.00    -0.158 NA
BRANCH  14  15
ATOM     15  C   UNL d   1     -46.623  12.501  23.321  0.00  0.00     0.094 A 
ATOM     16  C   UNL d   1     -46.320  13.153  22.928  0.00  0.00     0.021 A 
ATOM     17  C   UNL d   1     -45.583  13.162  22.557  0.00  0.00     0.019 A 
ATOM     18  C   UNL d   1     -45.115  12.455  22.589  0.00  0.00     0.064 A 
ATOM     19  C   UNL d   1     -45.405  11.795  22.979  0.00  0.00     0.019 A 
ATOM     20  C   UNL d   1     -46.158  11.789  23.356  0.00  0.00     0.021 A 
BRANCH  18  21
ATOM     21  N   UNL d   1     -44.372  12.447  22.222  0.00  0.00    -0.300 N 
ATOM     22  C   UNL d   1     -44.170  12.963  21.604  0.00  0.00     0.107 A 
ATOM     23  C   UNL d   1     -43.436  12.945  21.252  0.00  0.00     0.142 A 
ATOM     24  O   UNL d   1     -42.870  12.406  21.504  0.00  0.00    -0.300 OA
ATOM     25  C   UNL d   1     -43.041  11.879  22.117  0.00  0.00     0.142 A 
ATOM     26  C   UNL d   1     -43.795  11.894  22.483  0.00  0.00     0.107 A 
ENDBRANCH  18  21
ENDBRANCH  14  15
ENDBRANCH   1  14
TORSDOF 4
ENDMDL
MODEL 2
REMARK VINA RESULT:      -5.3      8.465      9.722
REMARK  4 active torsions:
REMARK  status: ('A' for Active; 'I' for Inactive)
REMARK    1  A    between atoms: C_2  and  S_1 
REMARK    2  A    between atoms: N_3  and  S_1 
REMARK    3  A    between atoms: C_12  and  N_3 
REMARK    4  A    between atoms: N_4  and  C_8 
ROOT
ATOM      1  S   UNL d   1     -38.200  14.084  19.953  0.00  0.00     0.285 S 
ATOM      2  O   UNL d   1     -38.473  13.274  19.889  0.00  0.00    -0.198 OA
ATOM      3  O   UNL d   1     -37.940  14.852  20.009  0.00  0.00    -0.198 OA
ENDROOT
BRANCH   1   4
ATOM      4  C   UNL d   1     -38.264  14.015  20.750  0.00  0.00     0.105 A 
ATOM      5  C   UNL d   1     -38.446  14.652  21.238  0.00  0.00     0.013 A 
ATOM      6  C   UNL d   1     -38.510  14.573  22.062  0.00  0.00     0.001 A 
ATOM      7  C   UNL d   1     -38.693  15.225  22.525  0.00  0.00     0.000 A 
ATOM      8  C   UNL d   1     -38.389  13.838  22.402  0.00  0.00     0.000 A 
ATOM      9  C   UNL d   1     -38.757  15.145  23.345  0.00  0.00     0.000 A 
ATOM     10  C   UNL d   1     -38.631  14.381  23.698  0.00  0.00     0.000 A 
ATOM     11  C   UNL d   1     -38.450  13.745  23.217  0.00  0.00     0.000 A 
ATOM     12  C   UNL d   1     -38.203  13.181  21.919  0.00  0.00     0.001 A 
ATOM     13  C   UNL d   1     -38.135  13.242  21.103  0.00  0.00     0.013 A 
ENDBRANCH   1   4
BRANCH   1  14
ATOM     14  N   UNL d   1     -38.142  14.127  19.109  0.00  0.00    -0.158 NA
BRANCH  14  15
ATOM     15  C   UNL d   1     -38.750  14.424  18.665  0.00  0.00     0.094 A 
ATOM     16  C   UNL d   1     -38.767  15.201  18.409  0.00  0.00     0.021 A 
ATOM     17  C   UNL d   1     -39.379  15.521  17.956  0.00  0.00     0.019 A 
ATOM     18  C   UNL d   1     -40.024  15.012  17.747  0.00  0.00     0.064 A 
ATOM     19  C   UNL d   1     -40.020  14.230  17.996  0.00  0.00     0.019 A 
ATOM     20  C   UNL d   1     -39.394  13.908  18.458  0.00  0.00     0.021 A 
BRANCH  18  21
ATOM     21  N   UNL d   1     -40.647  15.316  17.292  0.00  0.00    -0.300 N 
ATOM     22  C   UNL d   1     -41.345  15.613  17.629  0.00  0.00     0.107 A 
ATOM     23  C   UNL d   1     -41.950  15.909  17.171  0.00  0.00     0.142 A 
ATOM     24  O   UNL d   1     -41.882  15.921  16.353  0.00  0.00    -0.300 OA
ATOM     25  C   UNL d   1     -41.199  15.632  15.989  0.00  0.00     0.142 A 
ATOM     26  C   UNL d   1     -40.573  15.326  16.455  0.00  0.00     0.107 A 
ENDBRANCH  18  21
ENDBRANCH  14  15
ENDBRANCH   1  14
TORSDOF 4
ENDMDL
MODEL 3
REMARK VINA RESULT:      -5.2      8.307      9.445
REMARK  4 active torsions:
REMARK  status: ('A' for Active; 'I' for Inactive)
REMARK    1  A    between atoms: C_2  and  S_1 
REMARK    2  A    between atoms: N_3  and  S_1 
REMARK    3  A    between atoms: C_12  and  N_3 
REMARK    4  A    between atoms: N_4  and  C_8 
ROOT
ATOM      1  S   UNL d   1     -39.958  15.323  20.355  0.00  0.00     0.285 S 
ATOM      2  O   UNL d   1     -40.579  14.767  20.557  0.00  0.00    -0.198 OA
ATOM      3  O   UNL d   1     -39.371  15.850  20.160  0.00  0.00    -0.198 OA
ENDROOT
BRANCH   1   4
ATOM      4  C   UNL d   1     -39.666  15.226  21.097  0.00  0.00     0.105 A 
ATOM      5  C   UNL d   1     -39.452  14.491  21.397  0.00  0.00     0.013 A 
ATOM      6  C   UNL d   1     -39.151  14.398  22.165  0.00  0.00     0.001 A 
ATOM      7  C   UNL d   1     -38.945  13.652  22.440  0.00  0.00     0.000 A 
ATOM      8  C   UNL d   1     -39.062  15.059  22.641  0.00  0.00     0.000 A 
ATOM      9  C   UNL d   1     -38.645  13.561  23.205  0.00  0.00     0.000 A 
ATOM     10  C   UNL d   1     -38.553  14.249  23.698  0.00  0.00     0.000 A 
ATOM     11  C   UNL d   1     -38.765  14.982  23.404  0.00  0.00     0.000 A 
ATOM     12  C   UNL d   1     -39.275  15.813  22.349  0.00  0.00     0.001 A 
ATOM     13  C   UNL d   1     -39.575  15.922  21.593  0.00  0.00     0.013 A 
ENDBRANCH   1   4
BRANCH   1  14
ATOM     14  N   UNL d   1     -40.289  15.405  19.580  0.00  0.00    -0.158 NA
BRANCH  14  15
ATOM     15  C   UNL d   1     -39.915  15.096  18.933  0.00  0.00     0.094 A 
ATOM     16  C   UNL d   1     -39.276  15.467  18.578  0.00  0.00     0.021 A 
ATOM     17  C   UNL d   1     -38.882  15.166  17.918  0.00  0.00     0.019 A 
ATOM     18  C   UNL d   1     -39.157  14.433  17.592  0.00  0.00     0.064 A 
ATOM     19  C   UNL d   1     -39.796  14.051  17.937  0.00  0.00     0.019 A 
ATOM     20  C   UNL d   1     -40.195  14.361  18.611  0.00  0.00     0.021 A 
BRANCH  18  21
ATOM     21  N   UNL d   1     -38.773  14.117  16.929  0.00  0.00    -0.300 N 
ATOM     22  C   UNL d   1     -38.739  14.512  16.199  0.00  0.00     0.107 A 
ATOM     23  C   UNL d   1     -38.358  14.190  15.555  0.00  0.00     0.142 A 
ATOM     24  O   UNL d   1     -37.994  13.456  15.614  0.00  0.00    -0.300 OA
ATOM     25  C   UNL d   1     -38.011  13.040  16.327  0.00  0.00     0.142 A 
ATOM     26  C   UNL d   1     -38.402  13.366  16.993  0.00  0.00     0.107 A 
ENDBRANCH  18  21
ENDBRANCH  14  15
ENDBRANCH   1  14
TORSDOF 4
ENDMDL
MODEL 4
REMARK VINA RESULT:      -3.6      7.412      9.556
REMARK  4 active torsions:
REMARK  status: ('A' for Active; 'I' for Inactive)
REMARK    1  A    between atoms: C_2  and  S_1 
REMARK    2  A    between atoms: N_3  and  S_1 
REMARK    3  A    between atoms: C_12  and  N_3 
REMARK    4  A    between atoms: N_4  and  C_8 
ROOT
ATOM      1  S   UNL d   1     -38.751  14.065  19.702  0.00  0.00     0.285 S 
ATOM      2  O   UNL d   1     -39.319  13.661  19.204  0.00  0.00    -0.198 OA
ATOM      3  O   UNL d   1     -38.209  14.446  20.173  0.00  0.00    -0.198 OA
ENDROOT
BRANCH   1   4
ATOM      4  C   UNL d   1     -39.368  14.356  20.125  0.00  0.00     0.105 A 
ATOM      5  C   UNL d   1     -39.942  14.844  19.794  0.00  0.00     0.013 A 
ATOM      6  C   UNL d   1     -40.578  15.141  20.238  0.00  0.00     0.001 A 
ATOM      7  C   UNL d   1     -41.137  15.626  19.883  0.00  0.00     0.000 A 
ATOM      8  C   UNL d   1     -40.636  14.945  21.031  0.00  0.00     0.000 A 
ATOM      9  C   UNL d   1     -41.769  15.922  20.326  0.00  0.00     0.000 A 
ATOM     10  C   UNL d   1     -41.829  15.717  21.150  0.00  0.00     0.000 A 
ATOM     11  C   UNL d   1     -41.261  15.233  21.483  0.00  0.00     0.000 A 
ATOM     12  C   UNL d   1     -40.060  14.450  21.381  0.00  0.00     0.001 A 
ATOM     13  C   UNL d   1     -39.426  14.148  20.957  0.00  0.00     0.013 A 
ENDBRANCH   1   4
BRANCH   1  14
ATOM     14  N   UNL d   1     -38.120  13.742  19.238  0.00  0.00    -0.158 NA
BRANCH  14  15
ATOM     15  C   UNL d   1     -38.095  13.854  18.437  0.00  0.00     0.094 A 
ATOM     16  C   UNL d   1     -37.969  14.591  18.101  0.00  0.00     0.021 A 
ATOM     17  C   UNL d   1     -37.940  14.723  17.287  0.00  0.00     0.019 A 
ATOM     18  C   UNL d   1     -38.046  14.057  16.773  0.00  0.00     0.064 A 
ATOM     19  C   UNL d   1     -38.173  13.314  17.096  0.00  0.00     0.019 A 
ATOM     20  C   UNL d   1     -38.202  13.182  17.927  0.00  0.00     0.021 A 
BRANCH  18  21
ATOM     21  N   UNL d   1     -38.020  14.172  15.952  0.00  0.00    -0.300 N 
ATOM     22  C   UNL d   1     -38.040  13.543  15.410  0.00  0.00     0.107 A 
ATOM     23  C   UNL d   1     -38.013  13.670  14.606  0.00  0.00     0.142 A 
ATOM     24  O   UNL d   1     -37.965  14.434  14.309  0.00  0.00    -0.300 OA
ATOM     25  C   UNL d   1     -37.944  15.079  14.824  0.00  0.00     0.142 A 
ATOM     26  C   UNL d   1     -37.971  14.955  15.652  0.00  0.00     0.107 A 
ENDBRANCH  18  21
ENDBRANCH  14  15
ENDBRANCH   1  14
TORSDOF 4
ENDMDL
MODEL 5
REMARK VINA RESULT:      -3.3      1.321      5.195
REMARK  4 active torsions:
REMARK  status: ('A' for Active; 'I' for Inactive)
REMARK    1  A    between atoms: C_2  and  S_1 
REMARK    2  A    between atoms: N_3  and  S_1 
REMARK    3  A    between atoms: C_12  and  N_3 
REMARK    4  A    between atoms: N_4  and  C_8 
ROOT
ATOM      1  S   UNL d   1     -46.513  11.862  23.389  0.00  0.00     0.285 S 
ATOM      2  O   UNL d   1     -46.528  11.029  23.189  0.00  0.00    -0.198 OA
ATOM      3  O   UNL d   1     -46.502  12.653  23.580  0.00  0.00    -0.198 OA
ENDROOT
BRANCH   1   4
ATOM      4  C   UNL d   1     -45.769  11.894  23.089  0.00  0.00     0.105 A 
ATOM      5  C   UNL d   1     -45.530  12.470  22.553  0.00  0.00     0.013 A 
ATOM      6  C   UNL d   1     -44.758  12.497  22.247  0.00  0.00     0.001 A 
ATOM      7  C   UNL d   1     -44.546  13.083  21.714  0.00  0.00     0.000 A 
ATOM      8  C   UNL d   1     -44.216  11.931  22.486  0.00  0.00     0.000 A 
ATOM      9  C   UNL d   1     -43.778  13.109  21.410  0.00  0.00     0.000 A 
ATOM     10  C   UNL d   1     -43.215  12.520  21.658  0.00  0.00     0.000 A 
ATOM     11  C   UNL d   1     -43.448  11.945  22.191  0.00  0.00     0.000 A 
ATOM     12  C   UNL d   1     -44.444  11.339  23.030  0.00  0.00     0.001 A 
ATOM     13  C   UNL d   1     -45.202  11.299  23.341  0.00  0.00     0.013 A 
ENDBRANCH   1   4
BRANCH   1  14
ATOM     14  N   UNL d   1     -47.298  11.799  23.698  0.00  0.00    -0.158 NA
BRANCH  14  15
ATOM     15  C   UNL d   1     -47.912  12.204  23.360  0.00  0.00     0.094 A 
ATOM     16  C   UNL d   1     -48.213  12.893  23.685  0.00  0.00     0.021 A 
ATOM     17  C   UNL d   1     -48.838  13.319  23.355  0.00  0.00     0.019 A 
ATOM     18  C   UNL d   1     -49.185  13.023  22.640  0.00  0.00     0.064 A 
ATOM     19  C   UNL d   1     -48.894  12.334  22.304  0.00  0.00     0.019 A 
ATOM     20  C   UNL d   1     -48.256  11.902  22.643  0.00  0.00     0.021 A 
BRANCH  18  21
ATOM     21  N   UNL d   1     -49.814  13.438  22.295  0.00  0.00    -0.300 N 
ATOM     22  C   UNL d   1     -50.448  13.059  21.915  0.00  0.00     0.107 A 
ATOM     23  C   UNL d   1     -51.060  13.479  21.579  0.00  0.00     0.142 A 
ATOM     24  O   UNL d   1     -51.064  14.299  21.610  0.00  0.00    -0.300 OA
ATOM     25  C   UNL d   1     -50.448  14.705  21.981  0.00  0.00     0.142 A 
ATOM     26  C   UNL d   1     -49.815  14.278  22.328  0.00  0.00     0.107 A 
ENDBRANCH  18  21
ENDBRANCH  14  15
ENDBRANCH   1  14
TORSDOF 4
ENDMDL
