MODEL 1
REMARK VINA RESULT:       1.6      0.000      0.000
REMARK  4 active torsions:
REMARK  status: ('A' for Active; 'I' for Inactive)
REMARK    1  A    between atoms: C_14  and  N_3 
REMARK    2  A    between atoms: C_13  and  N_7 
REMARK       I    between atoms: N_9  and  C_10 
REMARK    3  A    between atoms: C_10  and  C_13 
REMARK    4  A    between atoms: C_19  and  C_14 
ROOT
ATOM      1  C   UNL d   1      56.359  -0.043  32.641  0.00  0.00     0.191 A 
ATOM      2  C   UNL d   1      57.078   0.312  32.833  0.00  0.00     0.196 A 
ATOM      3  N   UNL d   1      55.847   0.059  33.270  0.00  0.00    -0.191 N 
ATOM      4  N   UNL d   1      56.266  -0.421  31.902  0.00  0.00    -0.204 NA
ATOM      5  N   UNL d   1      56.996   0.634  33.592  0.00  0.00    -0.122 NA
ATOM      6  N   UNL d   1      56.234   0.473  33.855  0.00  0.00    -0.058 NA
ATOM      7  N   UNL d   1      57.621  -0.072  31.570  0.00  0.00    -0.249 N 
ATOM      8  C   UNL d   1      57.706   0.303  32.311  0.00  0.00     0.289 A 
ATOM      9  C   UNL d   1      56.901  -0.436  31.362  0.00  0.00     0.187 A 
ATOM     10  O   UNL d   1      58.425   0.659  32.504  0.00  0.00    -0.265 OA
ENDROOT
BRANCH   7  11
ATOM     11  C   UNL d   1      58.240  -0.092  31.035  0.00  0.00     0.146 C 
BRANCH  11  12
ATOM     12  C   UNL d   1      58.140   0.105  30.247  0.00  0.00     0.283 C 
ATOM     13  N   UNL d   1      58.792   0.238  29.745  0.00  0.00    -0.272 N 
ATOM     14  C   UNL d   1      59.563   0.169  30.051  0.00  0.00     0.067 A 
ATOM     15  C   UNL d   1      58.676   0.432  28.967  0.00  0.00     0.083 A 
ATOM     16  C   UNL d   1      60.214   0.302  29.549  0.00  0.00     0.016 A 
ATOM     17  C   UNL d   1      59.688  -0.027  30.836  0.00  0.00     0.018 A 
ATOM     18  C   UNL d   1      60.986   0.233  29.856  0.00  0.00     0.001 A 
ATOM     19  C   UNL d   1      60.083   0.495  28.774  0.00  0.00     0.003 A 
ATOM     20  C   UNL d   1      61.102   0.036  30.641  0.00  0.00     0.000 A 
ATOM     21  C   UNL d   1      60.451  -0.096  31.143  0.00  0.00     0.002 A 
ATOM     22  C   UNL d   1      59.327   0.565  28.464  0.00  0.00     0.019 A 
ATOM     23  O   UNL d   1      57.369   0.175  29.940  0.00  0.00    -0.265 OA
ENDBRANCH  11  12
ENDBRANCH   7  11
BRANCH   3  24
ATOM     24  C   UNL d   1      55.066  -0.215  33.304  0.00  0.00     0.104 C 
BRANCH  24  25
ATOM     25  C   UNL d   1      54.553   0.073  33.861  0.00  0.00     0.019 A 
ATOM     26  C   UNL d   1      54.841   0.394  34.564  0.00  0.00     0.002 A 
ATOM     27  C   UNL d   1      54.321   0.681  35.119  0.00  0.00     0.000 A 
ATOM     28  C   UNL d   1      53.510   0.656  34.993  0.00  0.00     0.000 A 
ATOM     29  C   UNL d   1      53.222   0.335  34.290  0.00  0.00     0.000 A 
ATOM     30  C   UNL d   1      53.736   0.047  33.732  0.00  0.00     0.002 A 
ENDBRANCH  24  25
ENDBRANCH   3  24
TORSDOF 4
ENDMDL
MODEL 2
REMARK VINA RESULT:       3.1      5.847      7.334
REMARK  4 active torsions:
REMARK  status: ('A' for Active; 'I' for Inactive)
REMARK    1  A    between atoms: C_14  and  N_3 
REMARK    2  A    between atoms: C_13  and  N_7 
REMARK       I    between atoms: N_9  and  C_10 
REMARK    3  A    between atoms: C_10  and  C_13 
REMARK    4  A    between atoms: C_19  and  C_14 
ROOT
ATOM      1  C   UNL d   1      59.053  -3.451  28.755  0.00  0.00     0.191 A 
ATOM      2  C   UNL d   1      59.707  -3.938  28.880  0.00  0.00     0.196 A 
ATOM      3  N   UNL d   1      59.286  -2.676  28.878  0.00  0.00    -0.191 N 
ATOM      4  N   UNL d   1      58.319  -3.786  28.541  0.00  0.00    -0.204 NA
ATOM      5  N   UNL d   1      60.343  -3.448  29.082  0.00  0.00    -0.122 NA
ATOM      6  N   UNL d   1      60.074  -2.671  29.079  0.00  0.00    -0.058 NA
ATOM      7  N   UNL d   1      58.919  -5.092  28.585  0.00  0.00    -0.249 N 
ATOM      8  C   UNL d   1      59.650  -4.749  28.799  0.00  0.00     0.289 A 
ATOM      9  C   UNL d   1      58.250  -4.612  28.456  0.00  0.00     0.187 A 
ATOM     10  O   UNL d   1      60.303  -5.236  28.924  0.00  0.00    -0.265 OA
ENDROOT
BRANCH   7  11
ATOM     11  C   UNL d   1      58.843  -5.903  28.499  0.00  0.00     0.146 C 
BRANCH  11  12
ATOM     12  C   UNL d   1      58.114  -6.274  28.493  0.00  0.00     0.283 C 
ATOM     13  N   UNL d   1      58.048  -7.104  28.482  0.00  0.00    -0.272 N 
ATOM     14  C   UNL d   1      58.739  -7.567  28.476  0.00  0.00     0.067 A 
ATOM     15  C   UNL d   1      57.319  -7.457  28.477  0.00  0.00     0.083 A 
ATOM     16  C   UNL d   1      58.673  -8.398  28.465  0.00  0.00     0.016 A 
ATOM     17  C   UNL d   1      59.480  -7.220  28.481  0.00  0.00     0.018 A 
ATOM     18  C   UNL d   1      59.365  -8.862  28.459  0.00  0.00     0.001 A 
ATOM     19  C   UNL d   1      57.937  -8.736  28.460  0.00  0.00     0.003 A 
ATOM     20  C   UNL d   1      60.102  -8.506  28.465  0.00  0.00     0.000 A 
ATOM     21  C   UNL d   1      60.168  -7.676  28.476  0.00  0.00     0.002 A 
ATOM     22  C   UNL d   1      57.251  -8.287  28.466  0.00  0.00     0.019 A 
ATOM     23  O   UNL d   1      57.422  -5.810  28.499  0.00  0.00    -0.265 OA
ENDBRANCH  11  12
ENDBRANCH   7  11
BRANCH   3  24
ATOM     24  C   UNL d   1      58.796  -2.012  28.809  0.00  0.00     0.104 C 
BRANCH  24  25
ATOM     25  C   UNL d   1      59.059  -1.282  29.044  0.00  0.00     0.019 A 
ATOM     26  C   UNL d   1      58.746  -0.925  29.718  0.00  0.00     0.002 A 
ATOM     27  C   UNL d   1      59.015  -0.192  29.947  0.00  0.00     0.000 A 
ATOM     28  C   UNL d   1      59.594   0.200  29.518  0.00  0.00     0.000 A 
ATOM     29  C   UNL d   1      59.906  -0.157  28.844  0.00  0.00     0.000 A 
ATOM     30  C   UNL d   1      59.644  -0.887  28.610  0.00  0.00     0.002 A 
ENDBRANCH  24  25
ENDBRANCH   3  24
TORSDOF 4
ENDMDL
MODEL 3
REMARK VINA RESULT:       4.2      9.449     10.572
REMARK  4 active torsions:
REMARK  status: ('A' for Active; 'I' for Inactive)
REMARK    1  A    between atoms: C_14  and  N_3 
REMARK    2  A    between atoms: C_13  and  N_7 
REMARK       I    between atoms: N_9  and  C_10 
REMARK    3  A    between atoms: C_10  and  C_13 
REMARK    4  A    between atoms: C_19  and  C_14 
ROOT
ATOM      1  C   UNL d   1      58.913  -9.733  30.885  0.00  0.00     0.191 A 
ATOM      2  C   UNL d   1      59.735  -9.749  30.954  0.00  0.00     0.196 A 
ATOM      3  N   UNL d   1      58.724  -9.776  30.090  0.00  0.00    -0.191 N 
ATOM      4  N   UNL d   1      58.438  -9.681  31.570  0.00  0.00    -0.204 NA
ATOM      5  N   UNL d   1      60.045  -9.802  30.188  0.00  0.00    -0.122 NA
ATOM      6  N   UNL d   1      59.414  -9.818  29.661  0.00  0.00    -0.058 NA
ATOM      7  N   UNL d   1      59.629  -9.662  32.376  0.00  0.00    -0.249 N 
ATOM      8  C   UNL d   1      60.097  -9.714  31.686  0.00  0.00     0.289 A 
ATOM      9  C   UNL d   1      58.798  -9.646  32.321  0.00  0.00     0.187 A 
ATOM     10  O   UNL d   1      60.918  -9.730  31.755  0.00  0.00    -0.265 OA
ENDROOT
BRANCH   7  11
ATOM     11  C   UNL d   1      59.974  -9.627  33.117  0.00  0.00     0.146 C 
BRANCH  11  12
ATOM     12  C   UNL d   1      60.506  -9.040  33.322  0.00  0.00     0.283 C 
ATOM     13  N   UNL d   1      60.510  -8.701  34.083  0.00  0.00    -0.272 N 
ATOM     14  C   UNL d   1      59.960  -8.966  34.649  0.00  0.00     0.067 A 
ATOM     15  C   UNL d   1      61.043  -8.121  34.270  0.00  0.00     0.083 A 
ATOM     16  C   UNL d   1      59.964  -8.628  35.410  0.00  0.00     0.016 A 
ATOM     17  C   UNL d   1      59.418  -9.552  34.468  0.00  0.00     0.018 A 
ATOM     18  C   UNL d   1      59.414  -8.893  35.977  0.00  0.00     0.001 A 
ATOM     19  C   UNL d   1      60.503  -8.048  35.583  0.00  0.00     0.003 A 
ATOM     20  C   UNL d   1      58.875  -9.479  35.788  0.00  0.00     0.000 A 
ATOM     21  C   UNL d   1      58.872  -9.818  35.027  0.00  0.00     0.002 A 
ATOM     22  C   UNL d   1      61.048  -7.782  35.031  0.00  0.00     0.019 A 
ATOM     23  O   UNL d   1      61.056  -8.775  32.755  0.00  0.00    -0.265 OA
ENDBRANCH  11  12
ENDBRANCH   7  11
BRANCH   3  24
ATOM     24  C   UNL d   1      57.956  -9.776  29.779  0.00  0.00     0.104 C 
BRANCH  24  25
ATOM     25  C   UNL d   1      57.685  -9.141  29.354  0.00  0.00     0.019 A 
ATOM     26  C   UNL d   1      58.202  -8.708  28.879  0.00  0.00     0.002 A 
ATOM     27  C   UNL d   1      57.923  -8.073  28.455  0.00  0.00     0.000 A 
ATOM     28  C   UNL d   1      57.133  -7.853  28.491  0.00  0.00     0.000 A 
ATOM     29  C   UNL d   1      56.617  -8.286  28.966  0.00  0.00     0.000 A 
ATOM     30  C   UNL d   1      56.888  -8.920  29.391  0.00  0.00     0.002 A 
ENDBRANCH  24  25
ENDBRANCH   3  24
TORSDOF 4
ENDMDL
