MODEL 1
REMARK VINA RESULT:      36.2      0.000      0.000
REMARK  3 active torsions:
REMARK  status: ('A' for Active; 'I' for Inactive)
REMARK    1  A    between atoms: C_7  and  C_1 
REMARK    2  A    between atoms: C_10  and  N_2 
REMARK    3  A    between atoms: C_14  and  C_7 
ROOT
ATOM      1  C   UNL d   1      46.021 -17.560  43.475  0.00  0.00     0.155 A 
ATOM      2  N   UNL d   1      46.109 -18.359  43.265  0.00  0.00    -0.277 N 
ATOM      3  C   UNL d   1      46.285 -18.548  42.492  0.00  0.00     0.153 A 
ATOM      4  C   UNL d   1      46.376 -17.950  41.924  0.00  0.00     0.092 A 
ATOM      5  N   UNL d   1      46.111 -16.964  42.910  0.00  0.00    -0.190 NA
ATOM      6  C   UNL d   1      46.288 -17.171  42.139  0.00  0.00     0.283 A 
ATOM      7  N   UNL d   1      46.375 -19.351  42.272  0.00  0.00    -0.228 NA
ATOM      8  C   UNL d   1      46.555 -18.158  41.141  0.00  0.00     0.009 A 
ATOM      9  O   UNL d   1      46.380 -16.578  41.566  0.00  0.00    -0.265 OA
ATOM     10  C   UNL d   1      46.641 -18.946  40.936  0.00  0.00     0.019 A 
ATOM     11  C   UNL d   1      46.552 -19.535  41.494  0.00  0.00     0.083 A 
ATOM     12  C   UNL d   1      46.645 -17.563  40.576  0.00  0.00     0.000 C 
ATOM     13  C   UNL d   1      46.641 -20.329  41.272  0.00  0.00     0.021 C 
ENDROOT
BRANCH   2  14
ATOM     14  C   UNL d   1      46.019 -18.949  43.825  0.00  0.00     0.067 A 
ATOM     15  C   UNL d   1      46.603 -19.078  44.376  0.00  0.00     0.018 A 
ATOM     16  C   UNL d   1      46.513 -19.675  44.942  0.00  0.00     0.002 A 
ATOM     17  C   UNL d   1      45.839 -20.140  44.954  0.00  0.00     0.000 A 
ATOM     18  C   UNL d   1      45.245 -20.001  44.386  0.00  0.00     0.002 A 
ATOM     19  C   UNL d   1      45.335 -19.409  43.824  0.00  0.00     0.018 A 
ENDBRANCH   2  14
BRANCH   1  20
ATOM     20  C   UNL d   1      45.844 -17.362  44.253  0.00  0.00     0.080 C 
BRANCH  20  21
ATOM     21  C   UNL d   1      45.740 -16.588  44.517  0.00  0.00     0.199 C 
ATOM     22  O   UNL d   1      46.493 -16.181  44.786  0.00  0.00    -0.286 OA
ATOM     23  C   UNL d   1      44.808 -16.062  44.560  0.00  0.00     0.045 C 
ENDBRANCH  20  21
ENDBRANCH   1  20
TORSDOF 3
ENDMDL
