MODEL 1
REMARK VINA RESULT:      -3.3      0.000      0.000
REMARK  3 active torsions:
REMARK  status: ('A' for Active; 'I' for Inactive)
REMARK    1  A    between atoms: S_2  and  N_1 
REMARK    2  A    between atoms: C_8  and  S_2 
REMARK       I    between atoms: C_14  and  N_15 
REMARK    3  A    between atoms: N_15  and  C_19 
ROOT
ATOM      1  S   UNL d   1      32.748  17.608 -23.585  0.00  0.00     0.273 S 
ATOM      2  O   UNL d   1      33.158  18.107 -24.098  0.00  0.00    -0.200 OA
ATOM      3  O   UNL d   1      32.467  17.898 -22.869  0.00  0.00    -0.200 OA
ENDROOT
BRANCH   1   4
ATOM      4  N   UNL d   1      32.617  16.820 -23.784  0.00  0.00    -0.212 N 
ATOM      5  C   UNL d   1      31.873  16.571 -24.040  0.00  0.00     0.094 A 
ATOM      6  C   UNL d   1      31.749  15.778 -24.238  0.00  0.00     0.100 A 
ATOM      7  C   UNL d   1      31.249  17.113 -24.101  0.00  0.00     0.020 A 
ATOM      8  C   UNL d   1      31.001  15.522 -24.498  0.00  0.00     0.021 A 
ATOM      9  N   UNL d   1      33.116  15.478 -23.924  0.00  0.00    -0.223 NA
ATOM     10  C   UNL d   1      30.373  16.072 -24.557  0.00  0.00     0.002 A 
ATOM     11  C   UNL d   1      30.506  16.864 -24.357  0.00  0.00     0.002 A 
ATOM     12  C   UNL d   1      29.634  15.827 -24.812  0.00  0.00     0.000 C 
ATOM     13  C   UNL d   1      29.894  17.411 -24.413  0.00  0.00     0.000 C 
ATOM     14  C   UNL d   1      33.240  16.275 -23.725  0.00  0.00     0.193 A 
ENDBRANCH   1   4
BRANCH   1  15
ATOM     15  C   UNL d   1      32.871  18.394 -23.372  0.00  0.00     0.104 A 
ATOM     16  C   UNL d   1      32.899  18.978 -23.946  0.00  0.00     0.014 A 
ATOM     17  C   UNL d   1      33.022  19.763 -23.729  0.00  0.00     0.020 A 
ATOM     18  C   UNL d   1      33.118  19.960 -22.932  0.00  0.00     0.085 A 
ATOM     19  C   UNL d   1      33.089  19.367 -22.361  0.00  0.00     0.020 A 
ATOM     20  C   UNL d   1      32.966  18.587 -22.572  0.00  0.00     0.014 A 
BRANCH  18  21
ATOM     21  N   UNL d   1      33.241  20.743 -22.725  0.00  0.00    -0.208 NA
ATOM     22  C   UNL d   1      32.928  21.029 -22.018  0.00  0.00     0.279 C 
ATOM     23  O   UNL d   1      33.044  21.814 -21.800  0.00  0.00    -0.265 OA
ATOM     24  C   UNL d   1      32.495  20.532 -21.523  0.00  0.00     0.068 C 
ENDBRANCH  18  21
ENDBRANCH   1  15
TORSDOF 3
ENDMDL
MODEL 2
REMARK VINA RESULT:      -2.6      2.464      4.416
REMARK  3 active torsions:
REMARK  status: ('A' for Active; 'I' for Inactive)
REMARK    1  A    between atoms: S_2  and  N_1 
REMARK    2  A    between atoms: C_8  and  S_2 
REMARK       I    between atoms: C_14  and  N_15 
REMARK    3  A    between atoms: N_15  and  C_19 
ROOT
ATOM      1  S   UNL d   1      31.075  16.004 -23.873  0.00  0.00     0.273 S 
ATOM      2  O   UNL d   1      30.712  16.224 -23.165  0.00  0.00    -0.200 OA
ATOM      3  O   UNL d   1      30.632  15.651 -24.469  0.00  0.00    -0.200 OA
ENDROOT
BRANCH   1   4
ATOM      4  N   UNL d   1      31.879  16.135 -23.989  0.00  0.00    -0.212 N 
ATOM      5  C   UNL d   1      32.149  16.867 -24.260  0.00  0.00     0.094 A 
ATOM      6  C   UNL d   1      32.959  16.991 -24.374  0.00  0.00     0.100 A 
ATOM      7  C   UNL d   1      31.612  17.478 -24.418  0.00  0.00     0.020 A 
ATOM      8  C   UNL d   1      33.236  17.728 -24.647  0.00  0.00     0.021 A 
ATOM      9  N   UNL d   1      33.234  15.651 -23.946  0.00  0.00    -0.223 NA
ATOM     10  C   UNL d   1      32.690  18.342 -24.805  0.00  0.00     0.002 A 
ATOM     11  C   UNL d   1      31.882  18.209 -24.688  0.00  0.00     0.002 A 
ATOM     12  C   UNL d   1      32.956  19.069 -25.074  0.00  0.00     0.000 C 
ATOM     13  C   UNL d   1      31.339  18.807 -24.842  0.00  0.00     0.000 C 
ATOM     14  C   UNL d   1      32.420  15.525 -23.832  0.00  0.00     0.193 A 
ENDBRANCH   1   4
BRANCH   1  15
ATOM     15  C   UNL d   1      30.270  15.866 -23.772  0.00  0.00     0.104 A 
ATOM     16  C   UNL d   1      29.776  15.800 -24.422  0.00  0.00     0.014 A 
ATOM     17  C   UNL d   1      28.972  15.662 -24.317  0.00  0.00     0.020 A 
ATOM     18  C   UNL d   1      28.662  15.590 -23.553  0.00  0.00     0.085 A 
ATOM     19  C   UNL d   1      29.164  15.657 -22.904  0.00  0.00     0.020 A 
ATOM     20  C   UNL d   1      29.965  15.794 -23.005  0.00  0.00     0.014 A 
BRANCH  18  21
ATOM     21  N   UNL d   1      27.860  15.453 -23.458  0.00  0.00    -0.208 NA
ATOM     22  C   UNL d   1      27.362  16.081 -23.270  0.00  0.00     0.279 C 
ATOM     23  O   UNL d   1      26.554  15.956 -23.172  0.00  0.00    -0.265 OA
ATOM     24  C   UNL d   1      27.665  16.842 -23.180  0.00  0.00     0.068 C 
ENDBRANCH  18  21
ENDBRANCH   1  15
TORSDOF 3
ENDMDL
MODEL 3
REMARK VINA RESULT:      -0.9      1.436      4.824
REMARK  3 active torsions:
REMARK  status: ('A' for Active; 'I' for Inactive)
REMARK    1  A    between atoms: S_2  and  N_1 
REMARK    2  A    between atoms: C_8  and  S_2 
REMARK       I    between atoms: C_14  and  N_15 
REMARK    3  A    between atoms: N_15  and  C_19 
ROOT
ATOM      1  S   UNL d   1      32.827  19.829 -23.328  0.00  0.00     0.273 S 
ATOM      2  O   UNL d   1      33.241  19.406 -23.903  0.00  0.00    -0.200 OA
ATOM      3  O   UNL d   1      32.259  19.451 -22.870  0.00  0.00    -0.200 OA
ENDROOT
BRANCH   1   4
ATOM      4  N   UNL d   1      32.978  20.629 -23.209  0.00  0.00    -0.212 N 
ATOM      5  C   UNL d   1      33.033  20.935 -22.444  0.00  0.00     0.094 A 
ATOM      6  C   UNL d   1      33.184  21.741 -22.332  0.00  0.00     0.100 A 
ATOM      7  C   UNL d   1      32.936  20.439 -21.788  0.00  0.00     0.020 A 
ATOM      8  C   UNL d   1      33.241  22.054 -21.563  0.00  0.00     0.021 A 
ATOM      9  N   UNL d   1      33.227  21.939 -23.752  0.00  0.00    -0.223 NA
ATOM     10  C   UNL d   1      33.143  21.549 -20.902  0.00  0.00     0.002 A 
ATOM     11  C   UNL d   1      32.991  20.745 -21.024  0.00  0.00     0.002 A 
ATOM     12  C   UNL d   1      33.197  21.851 -20.143  0.00  0.00     0.000 C 
ATOM     13  C   UNL d   1      32.894  20.242 -20.380  0.00  0.00     0.000 C 
ATOM     14  C   UNL d   1      33.075  21.130 -23.864  0.00  0.00     0.193 A 
ENDBRANCH   1   4
BRANCH   1  15
ATOM     15  C   UNL d   1      32.665  19.029 -23.436  0.00  0.00     0.104 A 
ATOM     16  C   UNL d   1      31.958  18.792 -23.775  0.00  0.00     0.014 A 
ATOM     17  C   UNL d   1      31.799  17.992 -23.882  0.00  0.00     0.020 A 
ATOM     18  C   UNL d   1      32.355  17.426 -23.646  0.00  0.00     0.085 A 
ATOM     19  C   UNL d   1      33.064  17.672 -23.306  0.00  0.00     0.020 A 
ATOM     20  C   UNL d   1      33.225  18.467 -23.199  0.00  0.00     0.014 A 
BRANCH  18  21
ATOM     21  N   UNL d   1      32.190  16.632 -23.756  0.00  0.00    -0.208 NA
ATOM     22  C   UNL d   1      32.371  16.276 -24.476  0.00  0.00     0.279 C 
ATOM     23  O   UNL d   1      32.210  15.478 -24.598  0.00  0.00    -0.265 OA
ATOM     24  C   UNL d   1      32.716  16.715 -25.082  0.00  0.00     0.068 C 
ENDBRANCH  18  21
ENDBRANCH   1  15
TORSDOF 3
ENDMDL
MODEL 4
REMARK VINA RESULT:      -0.5      3.246      4.814
REMARK  3 active torsions:
REMARK  status: ('A' for Active; 'I' for Inactive)
REMARK    1  A    between atoms: S_2  and  N_1 
REMARK    2  A    between atoms: C_8  and  S_2 
REMARK       I    between atoms: C_14  and  N_15 
REMARK    3  A    between atoms: N_15  and  C_19 
ROOT
ATOM      1  S   UNL d   1      32.770  22.153 -21.963  0.00  0.00     0.273 S 
ATOM      2  O   UNL d   1      33.240  21.962 -21.313  0.00  0.00    -0.200 OA
ATOM      3  O   UNL d   1      32.186  22.726 -21.893  0.00  0.00    -0.200 OA
ENDROOT
BRANCH   1   4
ATOM      4  N   UNL d   1      32.881  21.772 -22.685  0.00  0.00    -0.212 N 
ATOM      5  C   UNL d   1      32.970  20.952 -22.717  0.00  0.00     0.094 A 
ATOM      6  C   UNL d   1      33.081  20.577 -23.445  0.00  0.00     0.100 A 
ATOM      7  C   UNL d   1      32.948  20.503 -22.021  0.00  0.00     0.020 A 
ATOM      8  C   UNL d   1      33.171  19.750 -23.482  0.00  0.00     0.021 A 
ATOM      9  N   UNL d   1      33.015  21.843 -24.116  0.00  0.00    -0.223 NA
ATOM     10  C   UNL d   1      33.149  19.300 -22.777  0.00  0.00     0.002 A 
ATOM     11  C   UNL d   1      33.037  19.683 -22.053  0.00  0.00     0.002 A 
ATOM     12  C   UNL d   1      33.237  18.486 -22.807  0.00  0.00     0.000 C 
ATOM     13  C   UNL d   1      33.014  19.248 -21.356  0.00  0.00     0.000 C 
ATOM     14  C   UNL d   1      32.903  22.220 -23.384  0.00  0.00     0.193 A 
ENDBRANCH   1   4
BRANCH   1  15
ATOM     15  C   UNL d   1      32.647  22.542 -21.248  0.00  0.00     0.104 A 
ATOM     16  C   UNL d   1      32.970  23.284 -21.120  0.00  0.00     0.014 A 
ATOM     17  C   UNL d   1      32.845  23.669 -20.404  0.00  0.00     0.020 A 
ATOM     18  C   UNL d   1      32.393  23.307 -19.814  0.00  0.00     0.085 A 
ATOM     19  C   UNL d   1      32.072  22.561 -19.950  0.00  0.00     0.020 A 
ATOM     20  C   UNL d   1      32.194  22.174 -20.660  0.00  0.00     0.014 A 
BRANCH  18  21
ATOM     21  N   UNL d   1      32.274  23.698 -19.104  0.00  0.00    -0.208 NA
ATOM     22  C   UNL d   1      32.462  23.320 -18.397  0.00  0.00     0.279 C 
ATOM     23  O   UNL d   1      32.347  23.702 -17.677  0.00  0.00    -0.265 OA
ATOM     24  C   UNL d   1      32.769  22.555 -18.402  0.00  0.00     0.068 C 
ENDBRANCH  18  21
ENDBRANCH   1  15
TORSDOF 3
ENDMDL
