MODEL 1
REMARK VINA RESULT:      19.4      0.000      0.000
REMARK  4 active torsions:
REMARK  status: ('A' for Active; 'I' for Inactive)
REMARK    1  A    between atoms: C_2  and  C_1 
REMARK       I    between atoms: N_9  and  C_2 
REMARK    2  A    between atoms: C_16  and  N_9 
REMARK    3  A    between atoms: C_13  and  C_16 
REMARK    4  A    between atoms: O_17  and  C_13 
ROOT
ATOM      1  C   UNL d   1      58.003  49.707  50.367  0.00  0.00     0.073 A 
ATOM      2  C   UNL d   1      57.021  49.707  51.330  0.00  0.00     0.001 A 
ATOM      3  C   UNL d   1      57.091  49.707  49.543  0.00  0.00     0.001 A 
ATOM      4  C   UNL d   1      56.678  49.707  50.001  0.00  0.00     0.001 A 
ATOM      5  C   UNL d   1      57.739  49.707  49.363  0.00  0.00     0.009 A 
ATOM      6  C   UNL d   1      57.791  49.707  51.132  0.00  0.00     0.009 A 
ATOM      7  C   UNL d   1      57.446  49.707  49.797  0.00  0.00     0.009 A 
ATOM      8  C   UNL d   1      56.426  49.707  49.178  0.00  0.00     0.000 A 
ATOM      9  C   UNL d   1      56.811  49.707  50.557  0.00  0.00     0.000 A 
ATOM     10  C   UNL d   1      56.467  49.707  50.765  0.00  0.00     0.000 A 
ATOM     11  C   UNL d   1      56.034  49.707  50.528  0.00  0.00     0.000 C 
ATOM     12  C   UNL d   1      57.543  49.707  48.850  0.00  0.00     0.000 C 
ATOM     13  C   UNL d   1      57.015  49.707  52.165  0.00  0.00     0.000 C 
ENDROOT
BRANCH   1  14
ATOM     14  C   UNL d   1      58.659  49.707  50.874  0.00  0.00     0.255 C 
ATOM     15  N   UNL d   1      59.432  49.708  50.556  0.00  0.00    -0.205 NA
ATOM     16  O   UNL d   1      58.558  49.706  51.695  0.00  0.00    -0.270 OA
BRANCH  15  17
ATOM     17  C   UNL d   1      60.085  49.708  51.061  0.00  0.00     0.170 C 
BRANCH  17  18
ATOM     18  C   UNL d   1      60.832  49.505  50.776  0.00  0.00     0.316 C 
ATOM     19  O   UNL d   1      60.996  49.548  49.968  0.00  0.00    -0.257 OA
BRANCH  18  20
ATOM     20  O   UNL d   1      61.420  49.256  51.308  0.00  0.00    -0.295 OA
ATOM     21  C   UNL d   1      61.442  49.563  52.074  0.00  0.00     0.185 C 
ENDBRANCH  18  20
ENDBRANCH  17  18
ENDBRANCH  15  17
ENDBRANCH   1  14
TORSDOF 4
ENDMDL
MODEL 2
REMARK VINA RESULT:      20.1      1.202      4.002
REMARK  4 active torsions:
REMARK  status: ('A' for Active; 'I' for Inactive)
REMARK    1  A    between atoms: C_2  and  C_1 
REMARK       I    between atoms: N_9  and  C_2 
REMARK    2  A    between atoms: C_16  and  N_9 
REMARK    3  A    between atoms: C_13  and  C_16 
REMARK    4  A    between atoms: O_17  and  C_13 
ROOT
ATOM      1  C   UNL d   1      59.497  49.704  51.172  0.00  0.00     0.073 A 
ATOM      2  C   UNL d   1      60.558  49.706  50.297  0.00  0.00     0.001 A 
ATOM      3  C   UNL d   1      60.334  49.705  52.071  0.00  0.00     0.001 A 
ATOM      4  C   UNL d   1      60.785  49.706  51.651  0.00  0.00     0.001 A 
ATOM      5  C   UNL d   1      59.673  49.704  52.195  0.00  0.00     0.009 A 
ATOM      6  C   UNL d   1      59.774  49.705  50.428  0.00  0.00     0.009 A 
ATOM      7  C   UNL d   1      60.003  49.705  51.788  0.00  0.00     0.009 A 
ATOM      8  C   UNL d   1      60.965  49.706  52.493  0.00  0.00     0.000 A 
ATOM      9  C   UNL d   1      60.701  49.706  51.085  0.00  0.00     0.000 A 
ATOM     10  C   UNL d   1      61.061  49.707  50.908  0.00  0.00     0.000 A 
ATOM     11  C   UNL d   1      61.472  49.707  51.181  0.00  0.00     0.000 C 
ATOM     12  C   UNL d   1      59.824  49.704  52.723  0.00  0.00     0.000 C 
ATOM     13  C   UNL d   1      60.635  49.706  49.466  0.00  0.00     0.000 C 
ENDROOT
BRANCH   1  14
ATOM     14  C   UNL d   1      58.886  49.703  50.610  0.00  0.00     0.255 C 
ATOM     15  N   UNL d   1      58.089  49.705  50.861  0.00  0.00    -0.205 NA
ATOM     16  O   UNL d   1      59.058  49.701  49.802  0.00  0.00    -0.270 OA
BRANCH  15  17
ATOM     17  C   UNL d   1      57.482  49.704  50.301  0.00  0.00     0.170 C 
BRANCH  17  18
ATOM     18  C   UNL d   1      56.695  49.647  50.541  0.00  0.00     0.316 C 
ATOM     19  O   UNL d   1      56.509  49.530  51.337  0.00  0.00    -0.257 OA
BRANCH  18  20
ATOM     20  O   UNL d   1      56.089  49.707  49.976  0.00  0.00    -0.295 OA
ATOM     21  C   UNL d   1      56.264  49.640  49.172  0.00  0.00     0.185 C 
ENDBRANCH  18  20
ENDBRANCH  17  18
ENDBRANCH  15  17
ENDBRANCH   1  14
TORSDOF 4
ENDMDL
