MODEL 1
REMARK VINA RESULT:       3.5      0.000      0.000
REMARK  1 active torsions:
REMARK  status: ('A' for Active; 'I' for Inactive)
REMARK       I    between atoms: N_2  and  C_1 
REMARK    1  A    between atoms: C_4  and  N_2 
ROOT
ATOM      1  C   UNL d   1     -51.977  24.911  33.311  0.00  0.00     0.101 A 
ATOM      2  C   UNL d   1     -52.753  24.632  33.316  0.00  0.00     0.031 A 
ATOM      3  C   UNL d   1     -52.898  23.813  33.316  0.00  0.00     0.059 A 
ATOM      4 CL   UNL d   1     -53.675  23.535  33.322  0.00  0.00    -0.082 Cl
ATOM      5  C   UNL d   1     -51.492  23.561  33.306  0.00  0.00     0.002 A 
ATOM      6  C   UNL d   1     -51.345  24.371  33.306  0.00  0.00     0.020 A 
ATOM      7  C   UNL d   1     -52.269  23.282  33.311  0.00  0.00     0.011 A 
ENDROOT
BRANCH   1   8
ATOM      8  N   UNL d   1     -51.826  25.721  33.311  0.00  0.00    -0.056 NA
ATOM      9  C   UNL d   1     -51.052  26.000  33.312  0.00  0.00     0.787 C 
ATOM     10  N   UNL d   1     -50.899  26.808  33.312  0.00  0.00     0.064 N 
ATOM     11  N   UNL d   1     -50.427  25.460  33.313  0.00  0.00     0.064 N 
ENDBRANCH   1   8
TORSDOF 1
ENDMDL
MODEL 2
REMARK VINA RESULT:       4.9      1.879      2.642
REMARK  1 active torsions:
REMARK  status: ('A' for Active; 'I' for Inactive)
REMARK       I    between atoms: N_2  and  C_1 
REMARK    1  A    between atoms: C_4  and  N_2 
ROOT
ATOM      1  C   UNL d   1     -52.285  25.049  33.308  0.00  0.00     0.101 A 
ATOM      2  C   UNL d   1     -52.297  25.874  33.307  0.00  0.00     0.031 A 
ATOM      3  C   UNL d   1     -51.582  26.297  33.308  0.00  0.00     0.059 A 
ATOM      4 CL   UNL d   1     -51.594  27.122  33.307  0.00  0.00    -0.082 Cl
ATOM      5  C   UNL d   1     -50.851  25.070  33.310  0.00  0.00     0.002 A 
ATOM      6  C   UNL d   1     -51.558  24.647  33.309  0.00  0.00     0.020 A 
ATOM      7  C   UNL d   1     -50.863  25.895  33.309  0.00  0.00     0.011 A 
ENDROOT
BRANCH   1   8
ATOM      8  N   UNL d   1     -52.990  24.622  33.307  0.00  0.00    -0.056 NA
ATOM      9  C   UNL d   1     -52.979  23.800  33.318  0.00  0.00     0.787 C 
ATOM     10  N   UNL d   1     -53.682  23.372  33.317  0.00  0.00     0.064 N 
ATOM     11  N   UNL d   1     -52.254  23.405  33.329  0.00  0.00     0.064 N 
ENDBRANCH   1   8
TORSDOF 1
ENDMDL
MODEL 3
REMARK VINA RESULT:       5.8      1.920      2.958
REMARK  1 active torsions:
REMARK  status: ('A' for Active; 'I' for Inactive)
REMARK       I    between atoms: N_2  and  C_1 
REMARK    1  A    between atoms: C_4  and  N_2 
ROOT
ATOM      1  C   UNL d   1     -51.298  25.065  33.317  0.00  0.00     0.101 A 
ATOM      2  C   UNL d   1     -50.515  25.325  33.319  0.00  0.00     0.031 A 
ATOM      3  C   UNL d   1     -50.351  26.140  33.323  0.00  0.00     0.059 A 
ATOM      4 CL   UNL d   1     -49.568  26.401  33.325  0.00  0.00    -0.082 Cl
ATOM      5  C   UNL d   1     -51.750  26.425  33.321  0.00  0.00     0.002 A 
ATOM      6  C   UNL d   1     -51.916  25.619  33.318  0.00  0.00     0.020 A 
ATOM      7  C   UNL d   1     -50.968  26.686  33.323  0.00  0.00     0.011 A 
ENDROOT
BRANCH   1   8
ATOM      8  N   UNL d   1     -51.467  24.258  33.314  0.00  0.00    -0.056 NA
ATOM      9  C   UNL d   1     -52.248  23.998  33.321  0.00  0.00     0.787 C 
ATOM     10  N   UNL d   1     -52.420  23.193  33.318  0.00  0.00     0.064 N 
ATOM     11  N   UNL d   1     -52.859  24.552  33.332  0.00  0.00     0.064 N 
ENDBRANCH   1   8
TORSDOF 1
ENDMDL
