MODEL 1
REMARK VINA RESULT:      -2.8      0.000      0.000
REMARK  1 active torsions:
REMARK  status: ('A' for Active; 'I' for Inactive)
REMARK    1  A    between atoms: C_6  and  C_1 
ROOT
ATOM      1  C   UNL d   1      31.046  17.296 -24.343  0.00  0.00     0.162 A 
ATOM      2  N   UNL d   1      31.386  17.670 -24.956  0.00  0.00    -0.225 NA
ATOM      3  N   UNL d   1      31.488  17.473 -23.664  0.00  0.00    -0.225 NA
ATOM      4  C   UNL d   1      32.041  18.088 -24.698  0.00  0.00     0.101 A 
ATOM      5  C   UNL d   1      32.105  17.964 -23.884  0.00  0.00     0.101 A 
ATOM      6  C   UNL d   1      32.558  18.546 -25.097  0.00  0.00     0.021 A 
ATOM      7  C   UNL d   1      32.686  18.299 -23.482  0.00  0.00     0.021 A 
ATOM      8  C   UNL d   1      33.177  18.901 -24.663  0.00  0.00     0.002 A 
ATOM      9  C   UNL d   1      33.241  18.777 -23.849  0.00  0.00     0.002 A 
ENDROOT
BRANCH   1  10
ATOM     10  C   UNL d   1      30.425  16.839 -24.307  0.00  0.00     0.036 A 
ATOM     11  C   UNL d   1      30.522  16.024 -24.227  0.00  0.00     0.005 A 
ATOM     12  C   UNL d   1      29.843  15.532 -24.188  0.00  0.00     0.021 A 
ATOM     13  C   UNL d   1      29.081  15.900 -24.234  0.00  0.00     0.103 A 
ATOM     14  C   UNL d   1      29.000  16.689 -24.312  0.00  0.00     0.021 A 
ATOM     15  N   UNL d   1      28.372  15.454 -24.200  0.00  0.00    -0.148 N 
ATOM     16  C   UNL d   1      29.679  17.181 -24.350  0.00  0.00     0.005 A 
ENDBRANCH   1  10
TORSDOF 1
ENDMDL
MODEL 2
REMARK VINA RESULT:      -2.8      3.910      5.801
REMARK  1 active torsions:
REMARK  status: ('A' for Active; 'I' for Inactive)
REMARK    1  A    between atoms: C_6  and  C_1 
ROOT
ATOM      1  C   UNL d   1      32.972  21.033 -21.704  0.00  0.00     0.162 A 
ATOM      2  N   UNL d   1      33.110  21.025 -22.486  0.00  0.00    -0.225 NA
ATOM      3  N   UNL d   1      32.895  20.246 -21.455  0.00  0.00    -0.225 NA
ATOM      4  C   UNL d   1      33.125  20.253 -22.759  0.00  0.00     0.101 A 
ATOM      5  C   UNL d   1      32.989  19.762 -22.108  0.00  0.00     0.101 A 
ATOM      6  C   UNL d   1      33.241  19.961 -23.492  0.00  0.00     0.021 A 
ATOM      7  C   UNL d   1      32.972  18.986 -22.202  0.00  0.00     0.021 A 
ATOM      8  C   UNL d   1      33.222  19.132 -23.586  0.00  0.00     0.002 A 
ATOM      9  C   UNL d   1      33.087  18.640 -22.936  0.00  0.00     0.002 A 
ENDROOT
BRANCH   1  10
ATOM     10  C   UNL d   1      32.909  21.618 -21.204  0.00  0.00     0.036 A 
ATOM     11  C   UNL d   1      33.226  21.542 -20.446  0.00  0.00     0.005 A 
ATOM     12  C   UNL d   1      33.155  22.181 -19.906  0.00  0.00     0.021 A 
ATOM     13  C   UNL d   1      32.757  22.881 -20.168  0.00  0.00     0.103 A 
ATOM     14  C   UNL d   1      32.455  22.943 -20.903  0.00  0.00     0.021 A 
ATOM     15  N   UNL d   1      32.659  23.547 -19.669  0.00  0.00    -0.148 N 
ATOM     16  C   UNL d   1      32.526  22.304 -21.444  0.00  0.00     0.005 A 
ENDBRANCH   1  10
TORSDOF 1
ENDMDL
MODEL 3
REMARK VINA RESULT:      -2.8      2.792      4.211
REMARK  1 active torsions:
REMARK  status: ('A' for Active; 'I' for Inactive)
REMARK    1  A    between atoms: C_6  and  C_1 
ROOT
ATOM      1  C   UNL d   1      33.041  19.888 -22.505  0.00  0.00     0.162 A 
ATOM      2  N   UNL d   1      33.227  20.621 -22.746  0.00  0.00    -0.225 NA
ATOM      3  N   UNL d   1      32.812  19.937 -21.709  0.00  0.00    -0.225 NA
ATOM      4  C   UNL d   1      33.127  21.151 -22.130  0.00  0.00     0.101 A 
ATOM      5  C   UNL d   1      32.866  20.720 -21.476  0.00  0.00     0.101 A 
ATOM      6  C   UNL d   1      33.240  21.940 -22.097  0.00  0.00     0.021 A 
ATOM      7  C   UNL d   1      32.722  21.084 -20.800  0.00  0.00     0.021 A 
ATOM      8  C   UNL d   1      33.085  22.324 -21.373  0.00  0.00     0.002 A 
ATOM      9  C   UNL d   1      32.824  21.893 -20.719  0.00  0.00     0.002 A 
ENDROOT
BRANCH   1  10
ATOM     10  C   UNL d   1      33.046  19.212 -22.878  0.00  0.00     0.036 A 
ATOM     11  C   UNL d   1      32.879  19.192 -23.685  0.00  0.00     0.005 A 
ATOM     12  C   UNL d   1      32.886  18.455 -24.087  0.00  0.00     0.021 A 
ATOM     13  C   UNL d   1      33.066  17.759 -23.639  0.00  0.00     0.103 A 
ATOM     14  C   UNL d   1      33.227  17.792 -22.859  0.00  0.00     0.021 A 
ATOM     15  N   UNL d   1      33.087  16.999 -23.991  0.00  0.00    -0.148 N 
ATOM     16  C   UNL d   1      33.220  18.529 -22.457  0.00  0.00     0.005 A 
ENDBRANCH   1  10
TORSDOF 1
ENDMDL
MODEL 4
REMARK VINA RESULT:      -2.7      1.047      3.748
REMARK  1 active torsions:
REMARK  status: ('A' for Active; 'I' for Inactive)
REMARK    1  A    between atoms: C_6  and  C_1 
ROOT
ATOM      1  C   UNL d   1      30.654  16.978 -23.984  0.00  0.00     0.162 A 
ATOM      2  N   UNL d   1      30.571  16.331 -23.531  0.00  0.00    -0.225 NA
ATOM      3  N   UNL d   1      29.899  17.198 -24.247  0.00  0.00    -0.225 NA
ATOM      4  C   UNL d   1      29.782  16.120 -23.488  0.00  0.00     0.101 A 
ATOM      5  C   UNL d   1      29.358  16.666 -23.940  0.00  0.00     0.101 A 
ATOM      6  C   UNL d   1      29.422  15.519 -23.106  0.00  0.00     0.021 A 
ATOM      7  C   UNL d   1      28.581  16.603 -24.002  0.00  0.00     0.021 A 
ATOM      8  C   UNL d   1      28.593  15.456 -23.175  0.00  0.00     0.002 A 
ATOM      9  C   UNL d   1      28.169  16.002 -23.627  0.00  0.00     0.002 A 
ENDROOT
BRANCH   1  10
ATOM     10  C   UNL d   1      31.280  17.381 -24.187  0.00  0.00     0.036 A 
ATOM     11  C   UNL d   1      31.964  17.328 -23.729  0.00  0.00     0.005 A 
ATOM     12  C   UNL d   1      32.643  17.768 -23.954  0.00  0.00     0.021 A 
ATOM     13  C   UNL d   1      32.593  18.251 -24.649  0.00  0.00     0.103 A 
ATOM     14  C   UNL d   1      31.926  18.293 -25.083  0.00  0.00     0.021 A 
ATOM     15  N   UNL d   1      33.241  18.710 -24.917  0.00  0.00    -0.148 N 
ATOM     16  C   UNL d   1      31.247  17.853 -24.858  0.00  0.00     0.005 A 
ENDBRANCH   1  10
TORSDOF 1
ENDMDL
MODEL 5
REMARK VINA RESULT:      -2.6      6.808      8.381
REMARK  1 active torsions:
REMARK  status: ('A' for Active; 'I' for Inactive)
REMARK    1  A    between atoms: C_6  and  C_1 
ROOT
ATOM      1  C   UNL d   1      32.852  22.852 -18.940  0.00  0.00     0.162 A 
ATOM      2  N   UNL d   1      32.595  23.381 -19.473  0.00  0.00    -0.225 NA
ATOM      3  N   UNL d   1      33.027  22.151 -19.347  0.00  0.00    -0.225 NA
ATOM      4  C   UNL d   1      32.595  23.047 -20.220  0.00  0.00     0.101 A 
ATOM      5  C   UNL d   1      32.868  22.271 -20.141  0.00  0.00     0.101 A 
ATOM      6  C   UNL d   1      32.387  23.351 -20.928  0.00  0.00     0.021 A 
ATOM      7  C   UNL d   1      32.927  21.812 -20.770  0.00  0.00     0.021 A 
ATOM      8  C   UNL d   1      32.453  22.856 -21.597  0.00  0.00     0.002 A 
ATOM      9  C   UNL d   1      32.725  22.080 -21.517  0.00  0.00     0.002 A 
ENDROOT
BRANCH   1  10
ATOM     10  C   UNL d   1      32.949  22.905 -18.176  0.00  0.00     0.036 A 
ATOM     11  C   UNL d   1      33.137  22.229 -17.742  0.00  0.00     0.005 A 
ATOM     12  C   UNL d   1      33.241  22.291 -16.911  0.00  0.00     0.021 A 
ATOM     13  C   UNL d   1      33.148  23.054 -16.554  0.00  0.00     0.103 A 
ATOM     14  C   UNL d   1      32.967  23.700 -16.984  0.00  0.00     0.021 A 
ATOM     15  N   UNL d   1      33.241  23.171 -15.729  0.00  0.00    -0.148 N 
ATOM     16  C   UNL d   1      32.862  23.638 -17.815  0.00  0.00     0.005 A 
ENDBRANCH   1  10
TORSDOF 1
ENDMDL
MODEL 6
REMARK VINA RESULT:      -2.6      2.190      4.348
REMARK  1 active torsions:
REMARK  status: ('A' for Active; 'I' for Inactive)
REMARK    1  A    between atoms: C_6  and  C_1 
ROOT
ATOM      1  C   UNL d   1      32.887  18.755 -22.980  0.00  0.00     0.162 A 
ATOM      2  N   UNL d   1      33.239  18.074 -22.775  0.00  0.00    -0.225 NA
ATOM      3  N   UNL d   1      32.348  18.586 -23.587  0.00  0.00    -0.225 NA
ATOM      4  C   UNL d   1      32.947  17.460 -23.231  0.00  0.00     0.101 A 
ATOM      5  C   UNL d   1      32.385  17.783 -23.743  0.00  0.00     0.101 A 
ATOM      6  C   UNL d   1      33.124  16.682 -23.234  0.00  0.00     0.021 A 
ATOM      7  C   UNL d   1      32.009  17.322 -24.251  0.00  0.00     0.021 A 
ATOM      8  C   UNL d   1      32.720  16.195 -23.778  0.00  0.00     0.002 A 
ATOM      9  C   UNL d   1      32.158  16.518 -24.290  0.00  0.00     0.002 A 
ENDROOT
BRANCH   1  10
ATOM     10  C   UNL d   1      32.974  19.474 -22.713  0.00  0.00     0.036 A 
ATOM     11  C   UNL d   1      33.145  20.086 -23.240  0.00  0.00     0.005 A 
ATOM     12  C   UNL d   1      33.239  20.866 -22.945  0.00  0.00     0.021 A 
ATOM     13  C   UNL d   1      33.153  20.990 -22.111  0.00  0.00     0.103 A 
ATOM     14  C   UNL d   1      32.988  20.391 -21.612  0.00  0.00     0.021 A 
ATOM     15  N   UNL d   1      33.237  21.749 -21.766  0.00  0.00    -0.148 N 
ATOM     16  C   UNL d   1      32.894  19.610 -21.907  0.00  0.00     0.005 A 
ENDBRANCH   1  10
TORSDOF 1
ENDMDL
MODEL 7
REMARK VINA RESULT:      -2.4      2.366      3.424
REMARK  1 active torsions:
REMARK  status: ('A' for Active; 'I' for Inactive)
REMARK    1  A    between atoms: C_6  and  C_1 
ROOT
ATOM      1  C   UNL d   1      32.946  19.181 -23.049  0.00  0.00     0.162 A 
ATOM      2  N   UNL d   1      33.094  19.921 -23.296  0.00  0.00    -0.225 NA
ATOM      3  N   UNL d   1      32.868  19.203 -22.224  0.00  0.00    -0.225 NA
ATOM      4  C   UNL d   1      33.114  20.430 -22.655  0.00  0.00     0.101 A 
ATOM      5  C   UNL d   1      32.972  19.977 -21.979  0.00  0.00     0.101 A 
ATOM      6  C   UNL d   1      33.241  21.217 -22.617  0.00  0.00     0.021 A 
ATOM      7  C   UNL d   1      32.959  20.319 -21.276  0.00  0.00     0.021 A 
ATOM      8  C   UNL d   1      33.226  21.576 -21.864  0.00  0.00     0.002 A 
ATOM      9  C   UNL d   1      33.083  21.124 -21.188  0.00  0.00     0.002 A 
ENDROOT
BRANCH   1  10
ATOM     10  C   UNL d   1      32.875  18.519 -23.439  0.00  0.00     0.036 A 
ATOM     11  C   UNL d   1      33.120  17.813 -23.090  0.00  0.00     0.005 A 
ATOM     12  C   UNL d   1      33.041  17.094 -23.518  0.00  0.00     0.021 A 
ATOM     13  C   UNL d   1      32.710  17.130 -24.297  0.00  0.00     0.103 A 
ATOM     14  C   UNL d   1      32.477  17.819 -24.624  0.00  0.00     0.021 A 
ATOM     15  N   UNL d   1      32.609  16.443 -24.767  0.00  0.00    -0.148 N 
ATOM     16  C   UNL d   1      32.556  18.537 -24.196  0.00  0.00     0.005 A 
ENDBRANCH   1  10
TORSDOF 1
ENDMDL
MODEL 8
REMARK VINA RESULT:      -1.9      5.884      7.051
REMARK  1 active torsions:
REMARK  status: ('A' for Active; 'I' for Inactive)
REMARK    1  A    between atoms: C_6  and  C_1 
ROOT
ATOM      1  C   UNL d   1      32.778  22.993 -21.506  0.00  0.00     0.162 A 
ATOM      2  N   UNL d   1      32.498  23.540 -22.008  0.00  0.00    -0.225 NA
ATOM      3  N   UNL d   1      33.116  22.386 -21.960  0.00  0.00    -0.225 NA
ATOM      4  C   UNL d   1      32.641  23.309 -22.781  0.00  0.00     0.101 A 
ATOM      5  C   UNL d   1      33.031  22.582 -22.750  0.00  0.00     0.101 A 
ATOM      6  C   UNL d   1      32.467  23.666 -23.473  0.00  0.00     0.021 A 
ATOM      7  C   UNL d   1      33.241  22.223 -23.412  0.00  0.00     0.021 A 
ATOM      8  C   UNL d   1      32.693  23.279 -24.176  0.00  0.00     0.002 A 
ATOM      9  C   UNL d   1      33.083  22.551 -24.146  0.00  0.00     0.002 A 
ENDROOT
BRANCH   1  10
ATOM     10  C   UNL d   1      32.776  22.960 -20.735  0.00  0.00     0.036 A 
ATOM     11  C   UNL d   1      32.501  22.281 -20.357  0.00  0.00     0.005 A 
ATOM     12  C   UNL d   1      32.500  22.250 -19.518  0.00  0.00     0.021 A 
ATOM     13  C   UNL d   1      32.785  22.926 -19.094  0.00  0.00     0.103 A 
ATOM     14  C   UNL d   1      33.049  23.577 -19.471  0.00  0.00     0.021 A 
ATOM     15  N   UNL d   1      32.806  22.947 -18.257  0.00  0.00    -0.148 N 
ATOM     16  C   UNL d   1      33.050  23.608 -20.311  0.00  0.00     0.005 A 
ENDBRANCH   1  10
TORSDOF 1
ENDMDL
