MODEL 1
REMARK VINA RESULT:      20.1      0.000      0.000
REMARK  4 active torsions:
REMARK  status: ('A' for Active; 'I' for Inactive)
REMARK    1  A    between atoms: C_3  and  C_1 
REMARK       I    between atoms: N_6  and  C_3 
REMARK    2  A    between atoms: C_12  and  N_5 
REMARK    3  A    between atoms: C_8  and  N_6 
REMARK    4  A    between atoms: S_11  and  C_10 
ROOT
ATOM      1  C   UNL d   1      58.716  49.656  51.260  0.00  0.00     0.348 C 
ATOM      2  N   UNL d   1      58.191  49.655  50.612  0.00  0.00    -0.363 NA
ATOM      3  O   UNL d   1      58.412  49.706  52.055  0.00  0.00    -0.249 OA
ENDROOT
BRANCH   1   4
ATOM      4  C   UNL d   1      59.538  49.607  51.119  0.00  0.00     0.173 A 
ATOM      5  N   UNL d   1      60.136  49.697  51.691  0.00  0.00    -0.159 NA
ATOM      6  N   UNL d   1      60.866  49.604  51.301  0.00  0.00    -0.227 N 
ATOM      7  C   UNL d   1      60.717  49.459  50.505  0.00  0.00     0.102 A 
ATOM      8  C   UNL d   1      59.896  49.460  50.387  0.00  0.00     0.048 A 
BRANCH   6   9
ATOM      9  C   UNL d   1      61.613  49.650  51.657  0.00  0.00     0.101 C 
ATOM     10  C   UNL d   1      61.887  49.644  52.435  0.00  0.00     0.022 C 
ENDBRANCH   6   9
ENDBRANCH   1   4
BRANCH   2  11
ATOM     11  C   UNL d   1      57.445  49.673  50.120  0.00  0.00     0.141 A 
ATOM     12  C   UNL d   1      56.726  49.690  50.516  0.00  0.00     0.055 A 
ATOM     13  C   UNL d   1      56.041  49.706  50.093  0.00  0.00     0.009 A 
ATOM     14  C   UNL d   1      56.064  49.705  49.266  0.00  0.00     0.001 A 
ATOM     15  C   UNL d   1      56.779  49.688  48.882  0.00  0.00     0.003 A 
ATOM     16  C   UNL d   1      57.473  49.672  49.317  0.00  0.00     0.033 A 
BRANCH  12  17
ATOM     17  S   UNL d   1      56.696  49.691  51.345  0.00  0.00    -0.110 SA
ATOM     18  C   UNL d   1      56.061  49.339  51.754  0.00  0.00     0.074 C 
ENDBRANCH  12  17
ENDBRANCH   2  11
TORSDOF 4
ENDMDL
