MODEL 1
REMARK VINA RESULT:      55.9      0.000      0.000
REMARK  7 active torsions:
REMARK  status: ('A' for Active; 'I' for Inactive)
REMARK    1  A    between atoms: C_4  and  C_1 
REMARK    2  A    between atoms: C_6  and  C_3 
REMARK       I    between atoms: N_13  and  C_6 
REMARK    3  A    between atoms: O_18  and  C_8 
REMARK    4  A    between atoms: O_19  and  C_10 
REMARK    5  A    between atoms: C_20  and  N_13 
REMARK    6  A    between atoms: C_15  and  C_22 
REMARK    7  A    between atoms: C_22  and  C_20 
ROOT
ATOM      1  C   UNL d   1     -48.643  28.794  34.879  0.00  0.00     0.302 C 
ATOM      2  O   UNL d   1     -48.556  28.229  35.470  0.00  0.00    -0.263 OA
ATOM      3  N   UNL d   1     -49.133  28.641  34.240  0.00  0.00    -0.205 NA
ENDROOT
BRANCH   1   4
ATOM      4  C   UNL d   1     -48.237  29.511  34.930  0.00  0.00     0.158 A 
ATOM      5  O   UNL d   1     -48.400  30.193  34.502  0.00  0.00    -0.302 OA
ATOM      6  C   UNL d   1     -47.858  30.771  34.730  0.00  0.00     0.101 A 
ATOM      7  C   UNL d   1     -47.355  30.445  35.305  0.00  0.00     0.027 A 
ATOM      8  C   UNL d   1     -47.593  29.660  35.428  0.00  0.00     0.032 A 
BRANCH   6   9
ATOM      9  C   UNL d   1     -47.822  31.536  34.440  0.00  0.00     0.033 A 
ATOM     10  C   UNL d   1     -47.113  31.821  34.119  0.00  0.00     0.060 A 
ATOM     11 CL   UNL d   1     -46.444  31.338  34.090  0.00  0.00    -0.082 Cl
ATOM     12  C   UNL d   1     -47.080  32.592  33.828  0.00  0.00     0.011 A 
ATOM     13  C   UNL d   1     -47.746  33.079  33.854  0.00  0.00     0.001 A 
ATOM     14  C   UNL d   1     -48.448  32.798  34.171  0.00  0.00     0.000 A 
ATOM     15  C   UNL d   1     -48.492  32.026  34.466  0.00  0.00     0.003 A 
ENDBRANCH   6   9
ENDBRANCH   1   4
BRANCH   3  16
ATOM     16  C   UNL d   1     -49.540  27.923  34.187  0.00  0.00     0.102 C 
BRANCH  16  17
ATOM     17  C   UNL d   1     -49.584  27.526  33.478  0.00  0.00     0.021 C 
BRANCH  17  18
ATOM     18  C   UNL d   1     -49.988  26.808  33.435  0.00  0.00     0.004 A 
ATOM     19  C   UNL d   1     -50.815  26.794  33.474  0.00  0.00     0.026 A 
ATOM     20  C   UNL d   1     -51.217  26.085  33.431  0.00  0.00     0.116 A 
ATOM     21  C   UNL d   1     -50.791  25.376  33.349  0.00  0.00     0.116 A 
ATOM     22  C   UNL d   1     -49.968  25.391  33.310  0.00  0.00     0.026 A 
ATOM     23  C   UNL d   1     -49.567  26.106  33.353  0.00  0.00     0.002 A 
BRANCH  20  24
ATOM     24  O   UNL d   1     -52.041  26.077  33.471  0.00  0.00    -0.326 OA
ATOM     25  C   UNL d   1     -52.464  26.781  33.334  0.00  0.00     0.181 C 
ENDBRANCH  20  24
BRANCH  21  26
ATOM     26  O   UNL d   1     -51.207  24.654  33.305  0.00  0.00    -0.326 OA
ATOM     27  C   UNL d   1     -50.783  23.951  33.359  0.00  0.00     0.181 C 
ENDBRANCH  21  26
ENDBRANCH  17  18
ENDBRANCH  16  17
ENDBRANCH   3  16
TORSDOF 7
ENDMDL
MODEL 2
REMARK VINA RESULT:      56.3      0.751      1.351
REMARK  7 active torsions:
REMARK  status: ('A' for Active; 'I' for Inactive)
REMARK    1  A    between atoms: C_4  and  C_1 
REMARK    2  A    between atoms: C_6  and  C_3 
REMARK       I    between atoms: N_13  and  C_6 
REMARK    3  A    between atoms: O_18  and  C_8 
REMARK    4  A    between atoms: O_19  and  C_10 
REMARK    5  A    between atoms: C_20  and  N_13 
REMARK    6  A    between atoms: C_15  and  C_22 
REMARK    7  A    between atoms: C_22  and  C_20 
ROOT
ATOM      1  C   UNL d   1     -48.702  28.920  34.981  0.00  0.00     0.302 C 
ATOM      2  O   UNL d   1     -48.669  28.369  35.591  0.00  0.00    -0.263 OA
ATOM      3  N   UNL d   1     -49.189  28.783  34.336  0.00  0.00    -0.205 NA
ENDROOT
BRANCH   1   4
ATOM      4  C   UNL d   1     -48.245  29.606  35.020  0.00  0.00     0.158 A 
ATOM      5  O   UNL d   1     -48.335  30.277  34.553  0.00  0.00    -0.302 OA
ATOM      6  C   UNL d   1     -47.761  30.824  34.782  0.00  0.00     0.101 A 
ATOM      7  C   UNL d   1     -47.313  30.490  35.395  0.00  0.00     0.027 A 
ATOM      8  C   UNL d   1     -47.616  29.732  35.542  0.00  0.00     0.032 A 
BRANCH   6   9
ATOM      9  C   UNL d   1     -47.653  31.568  34.459  0.00  0.00     0.033 A 
ATOM     10  C   UNL d   1     -48.305  31.993  34.176  0.00  0.00     0.060 A 
ATOM     11 CL   UNL d   1     -49.064  31.669  34.219  0.00  0.00    -0.082 Cl
ATOM     12  C   UNL d   1     -48.193  32.743  33.852  0.00  0.00     0.011 A 
ATOM     13  C   UNL d   1     -47.437  33.071  33.807  0.00  0.00     0.001 A 
ATOM     14  C   UNL d   1     -46.791  32.651  34.086  0.00  0.00     0.000 A 
ATOM     15  C   UNL d   1     -46.892  31.899  34.413  0.00  0.00     0.003 A 
ENDBRANCH   6   9
ENDBRANCH   1   4
BRANCH   3  16
ATOM     16  C   UNL d   1     -49.647  28.096  34.296  0.00  0.00     0.102 C 
BRANCH  16  17
ATOM     17  C   UNL d   1     -50.000  27.877  33.597  0.00  0.00     0.021 C 
BRANCH  17  18
ATOM     18  C   UNL d   1     -50.336  27.127  33.524  0.00  0.00     0.004 A 
ATOM     19  C   UNL d   1     -49.850  26.459  33.454  0.00  0.00     0.026 A 
ATOM     20  C   UNL d   1     -50.181  25.716  33.383  0.00  0.00     0.116 A 
ATOM     21  C   UNL d   1     -51.007  25.633  33.380  0.00  0.00     0.116 A 
ATOM     22  C   UNL d   1     -51.490  26.297  33.449  0.00  0.00     0.026 A 
ATOM     23  C   UNL d   1     -51.154  27.044  33.521  0.00  0.00     0.002 A 
BRANCH  20  24
ATOM     24  O   UNL d   1     -49.692  25.056  33.314  0.00  0.00    -0.326 OA
ATOM     25  C   UNL d   1     -49.076  24.943  33.862  0.00  0.00     0.181 C 
ENDBRANCH  20  24
BRANCH  21  26
ATOM     26  O   UNL d   1     -51.340  24.871  33.306  0.00  0.00    -0.326 OA
ATOM     27  C   UNL d   1     -52.152  24.784  33.405  0.00  0.00     0.181 C 
ENDBRANCH  21  26
ENDBRANCH  17  18
ENDBRANCH  16  17
ENDBRANCH   3  16
TORSDOF 7
ENDMDL
