MODEL 1
REMARK VINA RESULT:      19.7      0.000      0.000
REMARK  3 active torsions:
REMARK  status: ('A' for Active; 'I' for Inactive)
REMARK    1  A    between atoms: S_10  and  C_6 
REMARK    2  A    between atoms: C_14  and  S_10 
REMARK    3  A    between atoms: C_15  and  C_14 
ROOT
ATOM      1  C   UNL d   1     -57.794 -98.755 -43.950  0.00  0.00     0.141 A 
ATOM      2  O   UNL d   1     -57.180 -98.755 -43.399  0.00  0.00    -0.303 OA
ATOM      3  C   UNL d   1     -57.460 -98.755 -44.704  0.00  0.00     0.110 A 
ATOM      4  C   UNL d   1     -56.639 -98.755 -44.619  0.00  0.00     0.043 A 
ATOM      5  C   UNL d   1     -56.466 -98.755 -43.812  0.00  0.00     0.102 A 
ATOM      6  C   UNL d   1     -58.615 -98.755 -43.863  0.00  0.00     0.137 A 
ATOM      7  N   UNL d   1     -59.100 -98.755 -44.530  0.00  0.00    -0.215 NA
ATOM      8  N   UNL d   1     -57.945 -98.755 -45.371  0.00  0.00    -0.222 NA
ATOM      9  C   UNL d   1     -58.766 -98.755 -45.283  0.00  0.00     0.200 A 
ATOM     10  C   UNL d   1     -56.027 -98.755 -45.172  0.00  0.00     0.004 A 
ATOM     11  C   UNL d   1     -55.681 -98.755 -43.558  0.00  0.00     0.025 A 
ATOM     12  C   UNL d   1     -55.242 -98.755 -44.918  0.00  0.00     0.000 A 
ATOM     13  C   UNL d   1     -55.069 -98.755 -44.112  0.00  0.00     0.002 A 
ENDROOT
BRANCH   6  14
ATOM     14  S   UNL d   1     -58.949 -98.755 -43.109  0.00  0.00    -0.062 SA
BRANCH  14  15
ATOM     15  C   UNL d   1     -59.726 -99.014 -43.002  0.00  0.00     0.082 C 
BRANCH  15  16
ATOM     16  C   UNL d   1     -59.959 -99.326 -42.275  0.00  0.00     0.241 C 
ATOM     17  O   UNL d   1     -59.928 -98.858 -41.597  0.00  0.00    -0.283 OA
ENDBRANCH  15  16
ENDBRANCH  14  15
ENDBRANCH   6  14
TORSDOF 3
ENDMDL
MODEL 2
REMARK VINA RESULT:      22.5      1.514      2.211
REMARK  3 active torsions:
REMARK  status: ('A' for Active; 'I' for Inactive)
REMARK    1  A    between atoms: S_10  and  C_6 
REMARK    2  A    between atoms: C_14  and  S_10 
REMARK    3  A    between atoms: C_15  and  C_14 
ROOT
ATOM      1  C   UNL d   1     -57.856 -98.785 -44.722  0.00  0.00     0.141 A 
ATOM      2  O   UNL d   1     -57.238 -98.789 -45.269  0.00  0.00    -0.303 OA
ATOM      3  C   UNL d   1     -57.527 -98.794 -43.966  0.00  0.00     0.110 A 
ATOM      4  C   UNL d   1     -56.706 -98.804 -44.045  0.00  0.00     0.043 A 
ATOM      5  C   UNL d   1     -56.527 -98.801 -44.851  0.00  0.00     0.102 A 
ATOM      6  C   UNL d   1     -58.676 -98.773 -44.816  0.00  0.00     0.137 A 
ATOM      7  N   UNL d   1     -59.166 -98.771 -44.152  0.00  0.00    -0.215 NA
ATOM      8  N   UNL d   1     -58.017 -98.792 -43.303  0.00  0.00    -0.222 NA
ATOM      9  C   UNL d   1     -58.837 -98.780 -43.396  0.00  0.00     0.200 A 
ATOM     10  C   UNL d   1     -56.097 -98.816 -43.488  0.00  0.00     0.004 A 
ATOM     11  C   UNL d   1     -55.740 -98.810 -45.099  0.00  0.00     0.025 A 
ATOM     12  C   UNL d   1     -55.311 -98.825 -43.736  0.00  0.00     0.000 A 
ATOM     13  C   UNL d   1     -55.132 -98.822 -44.541  0.00  0.00     0.002 A 
ENDROOT
BRANCH   6  14
ATOM     14  S   UNL d   1     -59.004 -98.764 -45.572  0.00  0.00    -0.062 SA
BRANCH  14  15
ATOM     15  C   UNL d   1     -59.728 -99.135 -45.712  0.00  0.00     0.082 C 
BRANCH  15  16
ATOM     16  C   UNL d   1     -59.960 -99.308 -46.485  0.00  0.00     0.241 C 
ATOM     17  O   UNL d   1     -59.835 -98.757 -47.085  0.00  0.00    -0.283 OA
ENDBRANCH  15  16
ENDBRANCH  14  15
ENDBRANCH   6  14
TORSDOF 3
ENDMDL
