MODEL 1
REMARK VINA RESULT:       8.7      0.000      0.000
REMARK  4 active torsions:
REMARK  status: ('A' for Active; 'I' for Inactive)
REMARK    1  A    between atoms: S_9  and  C_2 
REMARK    2  A    between atoms: C_11  and  C_3 
REMARK    3  A    between atoms: C_7  and  C_10 
REMARK       I    between atoms: N_8  and  C_7 
REMARK    4  A    between atoms: C_10  and  S_9 
ROOT
ATOM      1  N   UNL d   1     -41.359-121.507 -52.081  0.00  0.00    -0.220 NA
ATOM      2  C   UNL d   1     -41.400-122.318 -51.993  0.00  0.00     0.114 A 
ATOM      3  C   UNL d   1     -41.246-121.021 -51.425  0.00  0.00     0.163 A 
ATOM      4  N   UNL d   1     -41.172-121.357 -50.673  0.00  0.00    -0.227 NA
ATOM      5  C   UNL d   1     -41.327-122.653 -51.242  0.00  0.00     0.042 A 
ATOM      6  C   UNL d   1     -41.213-122.178 -50.578  0.00  0.00     0.085 A 
ATOM      7  C   UNL d   1     -41.367-123.473 -51.151  0.00  0.00     0.004 A 
ATOM      8  C   UNL d   1     -41.140-122.496 -49.839  0.00  0.00     0.019 A 
ATOM      9  C   UNL d   1     -41.293-123.798 -50.396  0.00  0.00     0.000 A 
ATOM     10  C   UNL d   1     -41.179-123.307 -49.738  0.00  0.00     0.002 A 
ENDROOT
BRANCH   2  11
ATOM     11  S   UNL d   1     -41.514-122.809 -52.651  0.00  0.00    -0.062 SA
BRANCH  11  12
ATOM     12  C   UNL d   1     -41.796-122.500 -53.362  0.00  0.00     0.098 C 
BRANCH  12  13
ATOM     13  C   UNL d   1     -41.797-122.961 -54.037  0.00  0.00     0.272 C 
ATOM     14  N   UNL d   1     -42.092-122.650 -54.752  0.00  0.00    -0.267 N 
ATOM     15  C   UNL d   1     -42.092-123.122 -55.434  0.00  0.00     0.110 A 
ATOM     16  C   UNL d   1     -42.378-121.888 -54.773  0.00  0.00     0.110 A 
ATOM     17  C   UNL d   1     -42.382-122.816 -56.137  0.00  0.00     0.142 A 
ATOM     18  O   UNL d   1     -42.673-122.043 -56.163  0.00  0.00    -0.300 OA
ATOM     19  C   UNL d   1     -42.668-121.581 -55.475  0.00  0.00     0.142 A 
ATOM     20  O   UNL d   1     -41.507-123.735 -54.011  0.00  0.00    -0.266 OA
ENDBRANCH  12  13
ENDBRANCH  11  12
ENDBRANCH   2  11
BRANCH   3  21
ATOM     21  C   UNL d   1     -41.204-120.196 -51.514  0.00  0.00     0.036 A 
ATOM     22  C   UNL d   1     -41.164-119.716 -50.844  0.00  0.00     0.003 A 
ATOM     23  C   UNL d   1     -41.123-118.897 -50.934  0.00  0.00     0.000 A 
ATOM     24  C   UNL d   1     -41.123-118.566 -51.691  0.00  0.00     0.000 A 
ATOM     25  C   UNL d   1     -41.163-119.054 -52.358  0.00  0.00     0.000 A 
ATOM     26  C   UNL d   1     -41.204-119.869 -52.259  0.00  0.00     0.003 A 
ENDBRANCH   3  21
TORSDOF 4
ENDMDL
