MODEL 1
REMARK VINA RESULT:      13.1      0.000      0.000
REMARK  3 active torsions:
REMARK  status: ('A' for Active; 'I' for Inactive)
REMARK    1  A    between atoms: N_5  and  C_1 
REMARK    2  A    between atoms: C_8  and  C_3 
REMARK       I    between atoms: C_7  and  N_5 
REMARK    3  A    between atoms: C_13  and  C_7 
ROOT
ATOM      1  C   UNL d   1      46.100 -17.056  44.025  0.00  0.00     0.297 A 
ATOM      2  O   UNL d   1      46.241 -16.266  43.822  0.00  0.00    -0.253 OA
ATOM      3  C   UNL d   1      45.875 -15.787  44.394  0.00  0.00     0.206 A 
ATOM      4  N   UNL d   1      45.513 -16.284  44.941  0.00  0.00    -0.119 NA
ATOM      5  N   UNL d   1      45.652 -17.067  44.713  0.00  0.00    -0.101 NA
ENDROOT
BRANCH   3   6
ATOM      6  C   UNL d   1      45.878 -14.956  44.403  0.00  0.00     0.043 A 
ATOM      7  C   UNL d   1      45.414 -14.540  43.861  0.00  0.00     0.004 A 
ATOM      8  C   UNL d   1      45.418 -13.721  43.870  0.00  0.00     0.000 A 
ATOM      9  C   UNL d   1      44.951 -13.311  43.324  0.00  0.00     0.000 A 
ATOM     10  C   UNL d   1      45.884 -13.323  44.418  0.00  0.00     0.000 A 
ATOM     11  C   UNL d   1      44.949 -12.495  43.327  0.00  0.00     0.000 A 
ATOM     12  C   UNL d   1      45.414 -12.080  43.874  0.00  0.00     0.000 A 
ATOM     13  C   UNL d   1      45.883 -12.481  44.421  0.00  0.00     0.000 A 
ATOM     14  C   UNL d   1      46.343 -13.719  44.954  0.00  0.00     0.000 A 
ATOM     15  C   UNL d   1      46.345 -14.539  44.952  0.00  0.00     0.004 A 
ENDBRANCH   3   6
BRANCH   1  16
ATOM     16  N   UNL d   1      46.368 -17.714  43.600  0.00  0.00    -0.165 NA
ATOM     17  C   UNL d   1      45.835 -18.216  43.237  0.00  0.00     0.282 C 
ATOM     18  O   UNL d   1      45.018 -18.074  43.287  0.00  0.00    -0.265 OA
BRANCH  17  19
ATOM     19  C   UNL d   1      46.106 -18.873  42.814  0.00  0.00     0.058 A 
ATOM     20  C   UNL d   1      46.115 -19.610  43.182  0.00  0.00     0.005 A 
ATOM     21  C   UNL d   1      46.388 -20.270  42.758  0.00  0.00     0.000 A 
ATOM     22  C   UNL d   1      46.647 -20.190  41.979  0.00  0.00     0.000 A 
ATOM     23  C   UNL d   1      46.633 -19.447  41.620  0.00  0.00     0.000 A 
ATOM     24  C   UNL d   1      46.363 -18.784  42.036  0.00  0.00     0.005 A 
ENDBRANCH  17  19
ENDBRANCH   1  16
TORSDOF 3
ENDMDL
