MODEL 1
REMARK VINA RESULT:       0.4      0.000      0.000
REMARK  8 active torsions:
REMARK  status: ('A' for Active; 'I' for Inactive)
REMARK    1  A    between atoms: N_6  and  S_1 
REMARK    2  A    between atoms: C_18  and  S_1 
REMARK    3  A    between atoms: N_2  and  C_4 
REMARK    4  A    between atoms: C_7  and  N_3 
REMARK    5  A    between atoms: C_4  and  C_5 
REMARK    6  A    between atoms: C_10  and  C_4 
REMARK    7  A    between atoms: C_5  and  N_6 
REMARK    8  A    between atoms: O_23  and  C_19 
ROOT
ATOM      1  N   UNL d   1      31.914  18.053 -23.732  0.00  0.00    -0.300 N 
ATOM      2  N   UNL d   1      32.357  19.387 -22.875  0.00  0.00    -0.301 N 
ATOM      3  C   UNL d   1      32.219  18.708 -24.121  0.00  0.00     0.100 A 
ATOM      4  C   UNL d   1      31.830  18.062 -22.913  0.00  0.00     0.100 A 
ATOM      5  C   UNL d   1      32.050  18.728 -22.484  0.00  0.00     0.100 A 
ATOM      6  C   UNL d   1      32.442  19.377 -23.693  0.00  0.00     0.100 A 
ENDROOT
BRANCH   1   7
ATOM      7  C   UNL d   1      31.692  17.380 -24.169  0.00  0.00     0.086 C 
BRANCH   7   8
ATOM      8  C   UNL d   1      30.950  17.354 -24.531  0.00  0.00     0.130 C 
BRANCH   8   9
ATOM      9  N   UNL d   1      30.269  17.230 -24.072  0.00  0.00    -0.155 NA
BRANCH   9  10
ATOM     10  S   UNL d   1      29.593  16.911 -24.414  0.00  0.00     0.286 S 
ATOM     11  O   UNL d   1      29.483  16.437 -23.744  0.00  0.00    -0.198 OA
ATOM     12  O   UNL d   1      29.708  17.388 -25.081  0.00  0.00    -0.198 OA
BRANCH  10  13
ATOM     13  C   UNL d   1      28.917  16.594 -24.760  0.00  0.00     0.117 C 
ATOM     14  C   UNL d   1      28.306  16.294 -24.281  0.00  0.00     0.014 C 
ENDBRANCH  10  13
ENDBRANCH   9  10
ENDBRANCH   8   9
ENDBRANCH   7   8
BRANCH   7  15
ATOM     15  C   UNL d   1      32.207  16.743 -24.242  0.00  0.00     0.037 A 
ATOM     16  C   UNL d   1      32.448  16.492 -24.990  0.00  0.00     0.100 A 
ATOM     17  N   UNL d   1      32.967  15.851 -25.063  0.00  0.00    -0.242 NA
ATOM     18  C   UNL d   1      33.241  15.465 -24.387  0.00  0.00     0.099 A 
ATOM     19  C   UNL d   1      33.000  15.716 -23.643  0.00  0.00     0.021 A 
ATOM     20  C   UNL d   1      32.481  16.357 -23.570  0.00  0.00     0.005 A 
ENDBRANCH   7  15
ENDBRANCH   1   7
BRANCH   2  21
ATOM     21  C   UNL d   1      32.577  20.051 -22.445  0.00  0.00     0.064 A 
ATOM     22  C   UNL d   1      32.908  19.968 -21.692  0.00  0.00     0.020 A 
ATOM     23  C   UNL d   1      33.128  20.633 -21.263  0.00  0.00     0.026 A 
ATOM     24  C   UNL d   1      33.020  21.389 -21.584  0.00  0.00     0.094 A 
ATOM     25  C   UNL d   1      32.689  21.472 -22.337  0.00  0.00     0.026 A 
ATOM     26  C   UNL d   1      32.469  20.808 -22.766  0.00  0.00     0.020 A 
BRANCH  24  27
ATOM     27  O   UNL d   1      33.241  22.067 -21.154  0.00  0.00    -0.328 OA
ATOM     28  C   UNL d   1      32.665  22.555 -20.804  0.00  0.00     0.181 C 
ENDBRANCH  24  27
ENDBRANCH   2  21
TORSDOF 8
ENDMDL
MODEL 2
REMARK VINA RESULT:       1.7      2.211      5.644
REMARK  8 active torsions:
REMARK  status: ('A' for Active; 'I' for Inactive)
REMARK    1  A    between atoms: N_6  and  S_1 
REMARK    2  A    between atoms: C_18  and  S_1 
REMARK    3  A    between atoms: N_2  and  C_4 
REMARK    4  A    between atoms: C_7  and  N_3 
REMARK    5  A    between atoms: C_4  and  C_5 
REMARK    6  A    between atoms: C_10  and  C_4 
REMARK    7  A    between atoms: C_5  and  N_6 
REMARK    8  A    between atoms: O_23  and  C_19 
ROOT
ATOM      1  N   UNL d   1      32.698  20.812 -22.342  0.00  0.00    -0.300 N 
ATOM      2  N   UNL d   1      32.551  19.293 -22.959  0.00  0.00    -0.301 N 
ATOM      3  C   UNL d   1      32.084  20.326 -22.094  0.00  0.00     0.100 A 
ATOM      4  C   UNL d   1      33.239  20.540 -22.898  0.00  0.00     0.100 A 
ATOM      5  C   UNL d   1      33.167  19.782 -23.207  0.00  0.00     0.100 A 
ATOM      6  C   UNL d   1      32.009  19.565 -22.402  0.00  0.00     0.100 A 
ENDROOT
BRANCH   1   7
ATOM      7  C   UNL d   1      32.768  21.580 -22.027  0.00  0.00     0.086 C 
BRANCH   7   8
ATOM      8  C   UNL d   1      32.976  22.207 -22.521  0.00  0.00     0.130 C 
BRANCH   8   9
ATOM      9  N   UNL d   1      32.392  22.597 -22.966  0.00  0.00    -0.155 NA
BRANCH   9  10
ATOM     10  S   UNL d   1      32.608  23.150 -23.534  0.00  0.00     0.286 S 
ATOM     11  O   UNL d   1      32.863  23.661 -22.934  0.00  0.00    -0.198 OA
ATOM     12  O   UNL d   1      32.351  22.636 -24.129  0.00  0.00    -0.198 OA
BRANCH  10  13
ATOM     13  C   UNL d   1      32.822  23.702 -24.107  0.00  0.00     0.117 C 
ATOM     14  C   UNL d   1      33.233  23.457 -24.788  0.00  0.00     0.014 C 
ENDBRANCH  10  13
ENDBRANCH   9  10
ENDBRANCH   8   9
ENDBRANCH   7   8
BRANCH   7  15
ATOM     15  C   UNL d   1      32.632  21.715 -21.227  0.00  0.00     0.037 A 
ATOM     16  C   UNL d   1      31.884  21.951 -20.972  0.00  0.00     0.100 A 
ATOM     17  N   UNL d   1      31.746  22.087 -20.167  0.00  0.00    -0.242 NA
ATOM     18  C   UNL d   1      32.358  21.986 -19.623  0.00  0.00     0.099 A 
ATOM     19  C   UNL d   1      33.102  21.750 -19.879  0.00  0.00     0.021 A 
ATOM     20  C   UNL d   1      33.239  21.614 -20.684  0.00  0.00     0.005 A 
ENDBRANCH   7  15
ENDBRANCH   1   7
BRANCH   2  21
ATOM     21  C   UNL d   1      32.479  18.535 -23.267  0.00  0.00     0.064 A 
ATOM     22  C   UNL d   1      31.776  18.302 -23.637  0.00  0.00     0.020 A 
ATOM     23  C   UNL d   1      31.705  17.544 -23.945  0.00  0.00     0.026 A 
ATOM     24  C   UNL d   1      32.337  17.011 -23.888  0.00  0.00     0.094 A 
ATOM     25  C   UNL d   1      33.039  17.244 -23.519  0.00  0.00     0.026 A 
ATOM     26  C   UNL d   1      33.111  18.001 -23.210  0.00  0.00     0.020 A 
BRANCH  24  27
ATOM     27  O   UNL d   1      32.270  16.241 -24.199  0.00  0.00    -0.328 OA
ATOM     28  C   UNL d   1      31.648  15.741 -23.965  0.00  0.00     0.181 C 
ENDBRANCH  24  27
ENDBRANCH   2  21
TORSDOF 8
ENDMDL
