MODEL 1
REMARK VINA RESULT:      10.2      0.000      0.000
REMARK  10 active torsions:
REMARK  status: ('A' for Active; 'I' for Inactive)
REMARK    1  A    between atoms: S_6  and  C_1 
REMARK    2  A    between atoms: C_12  and  N_2 
REMARK    3  A    between atoms: C_11  and  C_4 
REMARK    4  A    between atoms: C_10  and  S_6 
REMARK       I    between atoms: C_7  and  N_9 
REMARK    5  A    between atoms: C_13  and  C_7 
REMARK    6  A    between atoms: C_8  and  C_10 
REMARK    7  A    between atoms: O_18  and  C_8 
REMARK    8  A    between atoms: N_9  and  C_11 
REMARK    9  A    between atoms: C_26  and  O_18 
REMARK   10  A    between atoms: O_22  and  C_19 
ROOT
ATOM      1  C   UNL d   1     -42.020-123.051 -49.833  0.00  0.00     0.201 A 
ATOM      2  N   UNL d   1     -42.419-122.507 -50.307  0.00  0.00    -0.268 N 
ATOM      3  N   UNL d   1     -41.225-123.069 -50.066  0.00  0.00    -0.121 NA
ATOM      4  C   UNL d   1     -41.859-122.189 -50.836  0.00  0.00     0.190 A 
ATOM      5  N   UNL d   1     -41.123-122.543 -50.679  0.00  0.00    -0.126 NA
ENDROOT
BRANCH   4   6
ATOM      6  C   UNL d   1     -42.007-121.620 -51.417  0.00  0.00     0.141 C 
BRANCH   6   7
ATOM      7  N   UNL d   1     -41.846-122.023 -52.123  0.00  0.00    -0.203 NA
ATOM      8  C   UNL d   1     -41.944-121.636 -52.847  0.00  0.00     0.279 C 
ATOM      9  O   UNL d   1     -42.198-120.856 -52.871  0.00  0.00    -0.265 OA
BRANCH   8  10
ATOM     10  C   UNL d   1     -41.781-122.044 -53.547  0.00  0.00     0.058 A 
ATOM     11  C   UNL d   1     -41.449-122.791 -53.525  0.00  0.00     0.007 A 
ATOM     12  C   UNL d   1     -41.287-123.198 -54.225  0.00  0.00     0.024 A 
ATOM     13  C   UNL d   1     -41.465-122.842 -54.950  0.00  0.00     0.094 A 
ATOM     14  C   UNL d   1     -41.798-122.095 -54.970  0.00  0.00     0.024 A 
ATOM     15  C   UNL d   1     -41.959-121.687 -54.271  0.00  0.00     0.007 A 
BRANCH  13  16
ATOM     16  O   UNL d   1     -41.303-123.250 -55.649  0.00  0.00    -0.328 OA
ATOM     17  C   UNL d   1     -41.814-123.184 -56.285  0.00  0.00     0.181 C 
ENDBRANCH  13  16
ENDBRANCH   8  10
ENDBRANCH   6   7
ENDBRANCH   4   6
BRANCH   2  18
ATOM     18  C   UNL d   1     -43.209-122.317 -50.265  0.00  0.00     0.067 A 
ATOM     19  C   UNL d   1     -43.766-122.753 -50.685  0.00  0.00     0.018 A 
ATOM     20  C   UNL d   1     -44.561-122.563 -50.643  0.00  0.00     0.002 A 
ATOM     21  C   UNL d   1     -44.811-121.933 -50.179  0.00  0.00     0.000 A 
ATOM     22  C   UNL d   1     -44.257-121.493 -49.755  0.00  0.00     0.002 A 
ATOM     23  C   UNL d   1     -43.454-121.685 -49.798  0.00  0.00     0.018 A 
ENDBRANCH   2  18
BRANCH   1  24
ATOM     24  S   UNL d   1     -42.355-123.504 -49.226  0.00  0.00    -0.043 SA
BRANCH  24  25
ATOM     25  C   UNL d   1     -41.942-123.630 -48.522  0.00  0.00     0.096 C 
ATOM     26  C   UNL d   1     -41.123-123.637 -48.522  0.00  0.00     0.013 C 
BRANCH  25  27
ATOM     27  C   UNL d   1     -42.351-123.750 -47.812  0.00  0.00     0.306 C 
ATOM     28  O   UNL d   1     -41.940-123.815 -47.104  0.00  0.00    -0.258 OA
BRANCH  27  29
ATOM     29  O   UNL d   1     -43.166-123.802 -47.828  0.00  0.00    -0.271 OA
BRANCH  29  30
ATOM     30  C   UNL d   1     -43.595-123.808 -47.114  0.00  0.00     0.126 C 
ATOM     31  C   UNL d   1     -44.400-123.814 -47.114  0.00  0.00     0.029 C 
ENDBRANCH  29  30
ENDBRANCH  27  29
ENDBRANCH  25  27
ENDBRANCH  24  25
ENDBRANCH   1  24
TORSDOF 10
ENDMDL
MODEL 2
REMARK VINA RESULT:      12.8      1.980      5.600
REMARK  10 active torsions:
REMARK  status: ('A' for Active; 'I' for Inactive)
REMARK    1  A    between atoms: S_6  and  C_1 
REMARK    2  A    between atoms: C_12  and  N_2 
REMARK    3  A    between atoms: C_11  and  C_4 
REMARK    4  A    between atoms: C_10  and  S_6 
REMARK       I    between atoms: C_7  and  N_9 
REMARK    5  A    between atoms: C_13  and  C_7 
REMARK    6  A    between atoms: C_8  and  C_10 
REMARK    7  A    between atoms: O_18  and  C_8 
REMARK    8  A    between atoms: N_9  and  C_11 
REMARK    9  A    between atoms: C_26  and  O_18 
REMARK   10  A    between atoms: O_22  and  C_19 
ROOT
ATOM      1  C   UNL d   1     -41.317-120.843 -52.172  0.00  0.00     0.201 A 
ATOM      2  N   UNL d   1     -41.451-121.636 -52.354  0.00  0.00    -0.268 N 
ATOM      3  N   UNL d   1     -41.123-120.787 -51.368  0.00  0.00    -0.121 NA
ATOM      4  C   UNL d   1     -41.337-122.069 -51.652  0.00  0.00     0.190 A 
ATOM      5  N   UNL d   1     -41.134-121.536 -51.047  0.00  0.00    -0.126 NA
ENDROOT
BRANCH   4   6
ATOM      6  C   UNL d   1     -41.411-122.888 -51.569  0.00  0.00     0.141 C 
BRANCH   6   7
ATOM      7  N   UNL d   1     -41.459-122.992 -50.748  0.00  0.00    -0.203 NA
ATOM      8  C   UNL d   1     -42.093-123.414 -50.424  0.00  0.00     0.279 C 
ATOM      9  O   UNL d   1     -42.673-123.731 -50.911  0.00  0.00    -0.265 OA
BRANCH   8  10
ATOM     10  C   UNL d   1     -42.133-123.514 -49.606  0.00  0.00     0.058 A 
ATOM     11  C   UNL d   1     -41.451-123.541 -49.155  0.00  0.00     0.007 A 
ATOM     12  C   UNL d   1     -41.494-123.641 -48.337  0.00  0.00     0.024 A 
ATOM     13  C   UNL d   1     -42.234-123.712 -47.975  0.00  0.00     0.094 A 
ATOM     14  C   UNL d   1     -42.916-123.685 -48.428  0.00  0.00     0.024 A 
ATOM     15  C   UNL d   1     -42.874-123.585 -49.245  0.00  0.00     0.007 A 
BRANCH  13  16
ATOM     16  O   UNL d   1     -42.275-123.812 -47.158  0.00  0.00    -0.328 OA
ATOM     17  C   UNL d   1     -41.643-123.587 -46.689  0.00  0.00     0.181 C 
ENDBRANCH  13  16
ENDBRANCH   8  10
ENDBRANCH   6   7
ENDBRANCH   4   6
BRANCH   2  18
ATOM     18  C   UNL d   1     -41.655-121.936 -53.083  0.00  0.00     0.067 A 
ATOM     19  C   UNL d   1     -41.240-122.569 -53.405  0.00  0.00     0.018 A 
ATOM     20  C   UNL d   1     -41.446-122.871 -54.138  0.00  0.00     0.002 A 
ATOM     21  C   UNL d   1     -42.070-122.544 -54.558  0.00  0.00     0.000 A 
ATOM     22  C   UNL d   1     -42.490-121.909 -54.240  0.00  0.00     0.002 A 
ATOM     23  C   UNL d   1     -42.282-121.604 -53.500  0.00  0.00     0.018 A 
ENDBRANCH   2  18
BRANCH   1  24
ATOM     24  S   UNL d   1     -41.367-120.207 -52.700  0.00  0.00    -0.043 SA
BRANCH  24  25
ATOM     25  C   UNL d   1     -41.271-119.432 -52.432  0.00  0.00     0.096 C 
ATOM     26  C   UNL d   1     -41.143-119.286 -51.637  0.00  0.00     0.013 C 
BRANCH  25  27
ATOM     27  C   UNL d   1     -41.303-118.798 -52.963  0.00  0.00     0.306 C 
ATOM     28  O   UNL d   1     -41.492-118.928 -53.751  0.00  0.00    -0.258 OA
BRANCH  27  29
ATOM     29  O   UNL d   1     -41.144-118.044 -52.691  0.00  0.00    -0.271 OA
BRANCH  29  30
ATOM     30  C   UNL d   1     -41.176-117.398 -53.216  0.00  0.00     0.126 C 
ATOM     31  C   UNL d   1     -41.835-117.250 -53.652  0.00  0.00     0.029 C 
ENDBRANCH  29  30
ENDBRANCH  27  29
ENDBRANCH  25  27
ENDBRANCH  24  25
ENDBRANCH   1  24
TORSDOF 10
ENDMDL
