MODEL 1
REMARK VINA RESULT:     -10.4      0.000      0.000
REMARK  3 active torsions:
REMARK  status: ('A' for Active; 'I' for Inactive)
REMARK    1  A    between atoms: C_11  and  C_3 
REMARK       I    between atoms: C_7  and  N_9 
REMARK    2  A    between atoms: C_8  and  C_7 
REMARK    3  A    between atoms: N_9  and  C_13 
ROOT
ATOM      1  C   UNL d   1      49.094  34.962  52.316  0.00  0.00     0.021 A 
ATOM      2  C   UNL d   1      50.363  34.372  52.602  0.00  0.00     0.085 A 
ATOM      3  C   UNL d   1      49.707  34.809  52.846  0.00  0.00     0.021 A 
ATOM      4  C   UNL d   1      49.137  34.679  51.542  0.00  0.00     0.002 A 
ATOM      5  C   UNL d   1      49.794  34.242  51.298  0.00  0.00     0.002 A 
ATOM      6  C   UNL d   1      50.407  34.089  51.828  0.00  0.00     0.019 A 
ENDROOT
BRANCH   2   7
ATOM      7  N   UNL d   1      50.974  34.220  53.129  0.00  0.00    -0.207 NA
ATOM      8  C   UNL d   1      51.739  34.443  52.949  0.00  0.00     0.297 C 
ATOM      9  O   UNL d   1      51.904  34.827  52.229  0.00  0.00    -0.264 OA
BRANCH   8  10
ATOM     10  C   UNL d   1      52.352  34.290  53.479  0.00  0.00     0.139 A 
ATOM     11  N   UNL d   1      52.618  33.525  53.593  0.00  0.00    -0.241 NA
ATOM     12  C   UNL d   1      53.232  33.372  54.124  0.00  0.00     0.082 A 
ATOM     13  C   UNL d   1      53.497  32.599  54.235  0.00  0.00     0.019 A 
ATOM     14  C   UNL d   1      53.579  33.984  54.540  0.00  0.00     0.018 A 
ATOM     15  C   UNL d   1      54.110  32.446  54.765  0.00  0.00     0.002 A 
ATOM     16  C   UNL d   1      54.459  33.066  55.184  0.00  0.00     0.000 A 
ATOM     17  C   UNL d   1      54.193  33.831  55.070  0.00  0.00     0.002 A 
ATOM     18  C   UNL d   1      53.315  34.767  54.430  0.00  0.00     0.003 A 
ATOM     19  C   UNL d   1      52.702  34.920  53.900  0.00  0.00     0.024 A 
ENDBRANCH   8  10
ENDBRANCH   2   7
BRANCH   1  20
ATOM     20  C   UNL d   1      48.436  35.398  52.560  0.00  0.00     0.101 A 
ATOM     21  N   UNL d   1      48.319  35.796  53.276  0.00  0.00    -0.221 NA
ATOM     22  C   UNL d   1      47.583  36.140  53.244  0.00  0.00     0.179 A 
ATOM     23  N   UNL d   1      47.238  35.963  52.517  0.00  0.00    -0.282 N 
ATOM     24  S   UNL d   1      47.053  36.599  53.667  0.00  0.00    -0.048 SA
ATOM     25  C   UNL d   1      47.771  35.501  52.091  0.00  0.00     0.101 A 
ATOM     26  C   UNL d   1      46.487  36.323  52.501  0.00  0.00     0.089 A 
ATOM     27  C   UNL d   1      46.381  36.710  53.207  0.00  0.00     0.057 A 
ENDBRANCH   1  20
TORSDOF 3
ENDMDL
MODEL 2
REMARK VINA RESULT:     -10.3      2.099      5.900
REMARK  3 active torsions:
REMARK  status: ('A' for Active; 'I' for Inactive)
REMARK    1  A    between atoms: C_11  and  C_3 
REMARK       I    between atoms: C_7  and  N_9 
REMARK    2  A    between atoms: C_8  and  C_7 
REMARK    3  A    between atoms: N_9  and  C_13 
ROOT
ATOM      1  C   UNL d   1      52.581  33.126  53.120  0.00  0.00     0.021 A 
ATOM      2  C   UNL d   1      51.704  34.183  52.724  0.00  0.00     0.085 A 
ATOM      3  C   UNL d   1      51.878  33.377  52.767  0.00  0.00     0.021 A 
ATOM      4  C   UNL d   1      53.109  33.681  53.429  0.00  0.00     0.002 A 
ATOM      5  C   UNL d   1      52.934  34.486  53.385  0.00  0.00     0.002 A 
ATOM      6  C   UNL d   1      52.232  34.738  53.033  0.00  0.00     0.019 A 
ENDROOT
BRANCH   2   7
ATOM      7  N   UNL d   1      51.005  34.433  52.374  0.00  0.00    -0.207 NA
ATOM      8  C   UNL d   1      50.312  34.453  52.806  0.00  0.00     0.297 C 
ATOM      9  O   UNL d   1      50.311  34.220  53.606  0.00  0.00    -0.264 OA
BRANCH   8  10
ATOM     10  C   UNL d   1      49.609  34.704  52.454  0.00  0.00     0.139 A 
ATOM     11  N   UNL d   1      49.123  35.239  52.837  0.00  0.00    -0.241 NA
ATOM     12  C   UNL d   1      48.421  35.490  52.485  0.00  0.00     0.082 A 
ATOM     13  C   UNL d   1      47.934  36.030  52.876  0.00  0.00     0.019 A 
ATOM     14  C   UNL d   1      48.204  35.207  51.749  0.00  0.00     0.018 A 
ATOM     15  C   UNL d   1      47.231  36.281  52.523  0.00  0.00     0.002 A 
ATOM     16  C   UNL d   1      47.016  35.992  51.780  0.00  0.00     0.000 A 
ATOM     17  C   UNL d   1      47.502  35.458  51.397  0.00  0.00     0.002 A 
ATOM     18  C   UNL d   1      48.693  34.662  51.351  0.00  0.00     0.003 A 
ATOM     19  C   UNL d   1      49.396  34.411  51.703  0.00  0.00     0.024 A 
ENDBRANCH   8  10
ENDBRANCH   2   7
BRANCH   1  20
ATOM     20  C   UNL d   1      52.756  32.321  53.163  0.00  0.00     0.101 A 
ATOM     21  N   UNL d   1      52.465  31.704  52.694  0.00  0.00    -0.221 NA
ATOM     22  C   UNL d   1      52.807  31.017  52.959  0.00  0.00     0.179 A 
ATOM     23  N   UNL d   1      53.308  31.193  53.589  0.00  0.00    -0.282 N 
ATOM     24  S   UNL d   1      52.840  30.208  52.834  0.00  0.00    -0.048 SA
ATOM     25  C   UNL d   1      53.276  32.007  53.716  0.00  0.00     0.101 A 
ATOM     26  C   UNL d   1      53.649  30.479  53.847  0.00  0.00     0.089 A 
ATOM     27  C   UNL d   1      53.358  29.881  53.381  0.00  0.00     0.057 A 
ENDBRANCH   1  20
TORSDOF 3
ENDMDL
MODEL 3
REMARK VINA RESULT:      -8.9      2.092      3.178
REMARK  3 active torsions:
REMARK  status: ('A' for Active; 'I' for Inactive)
REMARK    1  A    between atoms: C_11  and  C_3 
REMARK       I    between atoms: C_7  and  N_9 
REMARK    2  A    between atoms: C_8  and  C_7 
REMARK    3  A    between atoms: N_9  and  C_13 
ROOT
ATOM      1  C   UNL d   1      51.110  34.209  52.827  0.00  0.00     0.021 A 
ATOM      2  C   UNL d   1      51.991  33.198  53.321  0.00  0.00     0.085 A 
ATOM      3  C   UNL d   1      51.258  33.419  53.014  0.00  0.00     0.021 A 
ATOM      4  C   UNL d   1      51.696  34.778  52.946  0.00  0.00     0.002 A 
ATOM      5  C   UNL d   1      52.430  34.556  53.253  0.00  0.00     0.002 A 
ATOM      6  C   UNL d   1      52.578  33.766  53.441  0.00  0.00     0.019 A 
ENDROOT
BRANCH   2   7
ATOM      7  N   UNL d   1      52.138  32.412  53.507  0.00  0.00    -0.207 NA
ATOM      8  C   UNL d   1      52.705  31.990  53.096  0.00  0.00     0.297 C 
ATOM      9  O   UNL d   1      53.136  32.356  52.485  0.00  0.00    -0.264 OA
BRANCH   8  10
ATOM     10  C   UNL d   1      52.852  31.200  53.283  0.00  0.00     0.139 A 
ATOM     11  N   UNL d   1      53.011  30.981  54.055  0.00  0.00    -0.241 NA
ATOM     12  C   UNL d   1      53.158  30.191  54.242  0.00  0.00     0.082 A 
ATOM     13  C   UNL d   1      53.318  29.976  55.022  0.00  0.00     0.019 A 
ATOM     14  C   UNL d   1      53.147  29.620  53.657  0.00  0.00     0.018 A 
ATOM     15  C   UNL d   1      53.466  29.186  55.209  0.00  0.00     0.002 A 
ATOM     16  C   UNL d   1      53.453  28.612  54.616  0.00  0.00     0.000 A 
ATOM     17  C   UNL d   1      53.294  28.831  53.844  0.00  0.00     0.002 A 
ATOM     18  C   UNL d   1      52.986  29.834  52.868  0.00  0.00     0.003 A 
ATOM     19  C   UNL d   1      52.839  30.624  52.681  0.00  0.00     0.024 A 
ENDBRANCH   8  10
ENDBRANCH   2   7
BRANCH   1  20
ATOM     20  C   UNL d   1      50.377  34.430  52.519  0.00  0.00     0.101 A 
ATOM     21  N   UNL d   1      49.758  34.828  52.899  0.00  0.00    -0.221 NA
ATOM     22  C   UNL d   1      49.158  34.914  52.358  0.00  0.00     0.179 A 
ATOM     23  N   UNL d   1      49.391  34.575  51.645  0.00  0.00    -0.282 N 
ATOM     24  S   UNL d   1      48.402  35.213  52.257  0.00  0.00    -0.048 SA
ATOM     25  C   UNL d   1      50.152  34.273  51.745  0.00  0.00     0.101 A 
ATOM     26  C   UNL d   1      48.766  34.671  51.104  0.00  0.00     0.089 A 
ATOM     27  C   UNL d   1      48.165  35.062  51.485  0.00  0.00     0.057 A 
ENDBRANCH   1  20
TORSDOF 3
ENDMDL
MODEL 4
REMARK VINA RESULT:      -8.7      2.014      5.784
REMARK  3 active torsions:
REMARK  status: ('A' for Active; 'I' for Inactive)
REMARK    1  A    between atoms: C_11  and  C_3 
REMARK       I    between atoms: C_7  and  N_9 
REMARK    2  A    between atoms: C_8  and  C_7 
REMARK    3  A    between atoms: N_9  and  C_13 
ROOT
ATOM      1  C   UNL d   1      52.820  32.825  53.612  0.00  0.00     0.021 A 
ATOM      2  C   UNL d   1      51.481  33.025  53.154  0.00  0.00     0.085 A 
ATOM      3  C   UNL d   1      52.126  33.272  53.605  0.00  0.00     0.021 A 
ATOM      4  C   UNL d   1      52.868  32.131  53.168  0.00  0.00     0.002 A 
ATOM      5  C   UNL d   1      52.223  31.884  52.716  0.00  0.00     0.002 A 
ATOM      6  C   UNL d   1      51.529  32.331  52.709  0.00  0.00     0.019 A 
ENDROOT
BRANCH   2   7
ATOM      7  N   UNL d   1      50.791  33.469  53.147  0.00  0.00    -0.207 NA
ATOM      8  C   UNL d   1      50.681  34.050  52.583  0.00  0.00     0.297 C 
ATOM      9  O   UNL d   1      51.270  34.194  52.011  0.00  0.00    -0.264 OA
BRANCH   8  10
ATOM     10  C   UNL d   1      49.988  34.497  52.576  0.00  0.00     0.139 A 
ATOM     11  N   UNL d   1      49.491  34.479  51.926  0.00  0.00    -0.241 NA
ATOM     12  C   UNL d   1      48.797  34.925  51.919  0.00  0.00     0.082 A 
ATOM     13  C   UNL d   1      48.300  34.903  51.262  0.00  0.00     0.019 A 
ATOM     14  C   UNL d   1      48.601  35.391  52.562  0.00  0.00     0.018 A 
ATOM     15  C   UNL d   1      47.606  35.350  51.255  0.00  0.00     0.002 A 
ATOM     16  C   UNL d   1      47.410  35.819  51.906  0.00  0.00     0.000 A 
ATOM     17  C   UNL d   1      47.907  35.837  52.555  0.00  0.00     0.002 A 
ATOM     18  C   UNL d   1      49.100  35.416  53.228  0.00  0.00     0.003 A 
ATOM     19  C   UNL d   1      49.794  34.969  53.235  0.00  0.00     0.024 A 
ENDBRANCH   8  10
ENDBRANCH   2   7
BRANCH   1  20
ATOM     20  C   UNL d   1      53.466  33.072  54.064  0.00  0.00     0.101 A 
ATOM     21  N   UNL d   1      53.510  33.182  54.883  0.00  0.00    -0.221 NA
ATOM     22  C   UNL d   1      54.265  33.428  55.053  0.00  0.00     0.179 A 
ATOM     23  N   UNL d   1      54.695  33.474  54.353  0.00  0.00    -0.282 N 
ATOM     24  S   UNL d   1      54.762  33.649  55.666  0.00  0.00    -0.048 SA
ATOM     25  C   UNL d   1      54.196  33.252  53.735  0.00  0.00     0.101 A 
ATOM     26  C   UNL d   1      55.464  33.727  54.545  0.00  0.00     0.089 A 
ATOM     27  C   UNL d   1      55.498  33.832  55.350  0.00  0.00     0.057 A 
ENDBRANCH   1  20
TORSDOF 3
ENDMDL
MODEL 5
REMARK VINA RESULT:      -8.2      1.013      1.449
REMARK  3 active torsions:
REMARK  status: ('A' for Active; 'I' for Inactive)
REMARK    1  A    between atoms: C_11  and  C_3 
REMARK       I    between atoms: C_7  and  N_9 
REMARK    2  A    between atoms: C_8  and  C_7 
REMARK    3  A    between atoms: N_9  and  C_13 
ROOT
ATOM      1  C   UNL d   1      48.259  35.423  52.785  0.00  0.00     0.021 A 
ATOM      2  C   UNL d   1      49.544  34.823  52.613  0.00  0.00     0.085 A 
ATOM      3  C   UNL d   1      48.961  35.133  53.107  0.00  0.00     0.021 A 
ATOM      4  C   UNL d   1      48.140  35.402  51.968  0.00  0.00     0.002 A 
ATOM      5  C   UNL d   1      48.725  35.091  51.474  0.00  0.00     0.002 A 
ATOM      6  C   UNL d   1      49.427  34.802  51.796  0.00  0.00     0.019 A 
ENDROOT
BRANCH   2   7
ATOM      7  N   UNL d   1      50.243  34.535  52.934  0.00  0.00    -0.207 NA
ATOM      8  C   UNL d   1      50.833  34.248  52.446  0.00  0.00     0.297 C 
ATOM      9  O   UNL d   1      50.728  34.246  51.620  0.00  0.00    -0.264 OA
BRANCH   8  10
ATOM     10  C   UNL d   1      51.535  33.959  52.769  0.00  0.00     0.139 A 
ATOM     11  N   UNL d   1      51.721  33.164  52.708  0.00  0.00    -0.241 NA
ATOM     12  C   UNL d   1      52.423  32.875  53.031  0.00  0.00     0.082 A 
ATOM     13  C   UNL d   1      52.605  32.073  52.967  0.00  0.00     0.019 A 
ATOM     14  C   UNL d   1      52.939  33.380  53.414  0.00  0.00     0.018 A 
ATOM     15  C   UNL d   1      53.307  31.783  53.290  0.00  0.00     0.002 A 
ATOM     16  C   UNL d   1      53.827  32.296  53.676  0.00  0.00     0.000 A 
ATOM     17  C   UNL d   1      53.641  33.090  53.736  0.00  0.00     0.002 A 
ATOM     18  C   UNL d   1      52.758  34.190  53.480  0.00  0.00     0.003 A 
ATOM     19  C   UNL d   1      52.056  34.480  53.158  0.00  0.00     0.024 A 
ENDBRANCH   8  10
ENDBRANCH   2   7
BRANCH   1  20
ATOM     20  C   UNL d   1      47.675  35.734  53.279  0.00  0.00     0.101 A 
ATOM     21  N   UNL d   1      46.857  35.763  53.154  0.00  0.00    -0.221 NA
ATOM     22  C   UNL d   1      46.527  36.123  53.803  0.00  0.00     0.179 A 
ATOM     23  N   UNL d   1      47.126  36.319  54.334  0.00  0.00    -0.282 N 
ATOM     24  S   UNL d   1      45.815  36.364  54.130  0.00  0.00    -0.048 SA
ATOM     25  C   UNL d   1      47.842  36.076  54.006  0.00  0.00     0.101 A 
ATOM     26  C   UNL d   1      46.770  36.685  54.991  0.00  0.00     0.089 A 
ATOM     27  C   UNL d   1      45.969  36.709  54.860  0.00  0.00     0.057 A 
ENDBRANCH   1  20
TORSDOF 3
ENDMDL
MODEL 6
REMARK VINA RESULT:      -7.9      1.682      5.817
REMARK  3 active torsions:
REMARK  status: ('A' for Active; 'I' for Inactive)
REMARK    1  A    between atoms: C_11  and  C_3 
REMARK       I    between atoms: C_7  and  N_9 
REMARK    2  A    between atoms: C_8  and  C_7 
REMARK    3  A    between atoms: N_9  and  C_13 
ROOT
ATOM      1  C   UNL d   1      51.649  34.067  53.004  0.00  0.00     0.021 A 
ATOM      2  C   UNL d   1      50.355  34.624  52.770  0.00  0.00     0.085 A 
ATOM      3  C   UNL d   1      50.973  34.445  53.286  0.00  0.00     0.021 A 
ATOM      4  C   UNL d   1      51.707  33.867  52.204  0.00  0.00     0.002 A 
ATOM      5  C   UNL d   1      51.088  34.047  51.688  0.00  0.00     0.002 A 
ATOM      6  C   UNL d   1      50.412  34.425  51.971  0.00  0.00     0.019 A 
ENDROOT
BRANCH   2   7
ATOM      7  N   UNL d   1      49.681  35.000  53.051  0.00  0.00    -0.207 NA
ATOM      8  C   UNL d   1      49.072  35.191  52.541  0.00  0.00     0.297 C 
ATOM      9  O   UNL d   1      49.132  35.004  51.731  0.00  0.00    -0.264 OA
BRANCH   8  10
ATOM     10  C   UNL d   1      48.396  35.569  52.823  0.00  0.00     0.139 A 
ATOM     11  N   UNL d   1      47.709  35.573  52.380  0.00  0.00    -0.241 NA
ATOM     12  C   UNL d   1      47.032  35.951  52.662  0.00  0.00     0.082 A 
ATOM     13  C   UNL d   1      46.341  35.952  52.211  0.00  0.00     0.019 A 
ATOM     14  C   UNL d   1      47.043  36.326  53.389  0.00  0.00     0.018 A 
ATOM     15  C   UNL d   1      45.665  36.330  52.494  0.00  0.00     0.002 A 
ATOM     16  C   UNL d   1      45.679  36.708  53.228  0.00  0.00     0.000 A 
ATOM     17  C   UNL d   1      46.366  36.704  53.672  0.00  0.00     0.002 A 
ATOM     18  C   UNL d   1      47.738  36.328  53.848  0.00  0.00     0.003 A 
ATOM     19  C   UNL d   1      48.414  35.949  53.565  0.00  0.00     0.024 A 
ENDBRANCH   8  10
ENDBRANCH   2   7
BRANCH   1  20
ATOM     20  C   UNL d   1      52.268  33.887  53.520  0.00  0.00     0.101 A 
ATOM     21  N   UNL d   1      52.742  34.407  53.956  0.00  0.00    -0.221 NA
ATOM     22  C   UNL d   1      53.270  33.956  54.378  0.00  0.00     0.179 A 
ATOM     23  N   UNL d   1      53.134  33.161  54.212  0.00  0.00    -0.282 N 
ATOM     24  S   UNL d   1      53.892  33.997  54.910  0.00  0.00    -0.048 SA
ATOM     25  C   UNL d   1      52.509  33.118  53.677  0.00  0.00     0.101 A 
ATOM     26  C   UNL d   1      53.683  32.714  54.651  0.00  0.00     0.089 A 
ATOM     27  C   UNL d   1      54.143  33.232  55.075  0.00  0.00     0.057 A 
ENDBRANCH   1  20
TORSDOF 3
ENDMDL
MODEL 7
REMARK VINA RESULT:      -7.4     10.314     11.205
REMARK  3 active torsions:
REMARK  status: ('A' for Active; 'I' for Inactive)
REMARK    1  A    between atoms: C_11  and  C_3 
REMARK       I    between atoms: C_7  and  N_9 
REMARK    2  A    between atoms: C_8  and  C_7 
REMARK    3  A    between atoms: N_9  and  C_13 
ROOT
ATOM      1  C   UNL d   1      44.574  25.636  57.484  0.00  0.00     0.021 A 
ATOM      2  C   UNL d   1      44.502  26.922  58.101  0.00  0.00     0.085 A 
ATOM      3  C   UNL d   1      44.496  26.455  57.421  0.00  0.00     0.021 A 
ATOM      4  C   UNL d   1      44.658  25.285  58.226  0.00  0.00     0.002 A 
ATOM      5  C   UNL d   1      44.665  25.753  58.906  0.00  0.00     0.002 A 
ATOM      6  C   UNL d   1      44.587  26.572  58.844  0.00  0.00     0.019 A 
ENDROOT
BRANCH   2   7
ATOM      7  N   UNL d   1      44.425  27.737  58.039  0.00  0.00    -0.207 NA
ATOM      8  C   UNL d   1      45.088  28.215  58.038  0.00  0.00     0.297 C 
ATOM      9  O   UNL d   1      45.847  27.877  58.100  0.00  0.00    -0.264 OA
BRANCH   8  10
ATOM     10  C   UNL d   1      45.010  29.034  57.975  0.00  0.00     0.139 A 
ATOM     11  N   UNL d   1      44.787  29.375  57.266  0.00  0.00    -0.241 NA
ATOM     12  C   UNL d   1      44.709  30.194  57.203  0.00  0.00     0.082 A 
ATOM     13  C   UNL d   1      44.484  30.533  56.485  0.00  0.00     0.019 A 
ATOM     14  C   UNL d   1      44.854  30.672  57.850  0.00  0.00     0.018 A 
ATOM     15  C   UNL d   1      44.406  31.352  56.423  0.00  0.00     0.002 A 
ATOM     16  C   UNL d   1      44.553  31.832  57.078  0.00  0.00     0.000 A 
ATOM     17  C   UNL d   1      44.776  31.491  57.787  0.00  0.00     0.002 A 
ATOM     18  C   UNL d   1      45.082  30.334  58.577  0.00  0.00     0.003 A 
ATOM     19  C   UNL d   1      45.159  29.515  58.639  0.00  0.00     0.024 A 
ENDBRANCH   8  10
ENDBRANCH   2   7
BRANCH   1  20
ATOM     20  C   UNL d   1      44.567  25.167  56.804  0.00  0.00     0.101 A 
ATOM     21  N   UNL d   1      44.586  25.407  56.013  0.00  0.00    -0.221 NA
ATOM     22  C   UNL d   1      44.570  24.736  55.556  0.00  0.00     0.179 A 
ATOM     23  N   UNL d   1      44.541  24.078  56.050  0.00  0.00    -0.282 N 
ATOM     24  S   UNL d   1      44.571  24.467  54.782  0.00  0.00    -0.048 SA
ATOM     25  C   UNL d   1      44.539  24.347  56.829  0.00  0.00     0.101 A 
ATOM     26  C   UNL d   1      44.525  23.400  55.566  0.00  0.00     0.089 A 
ATOM     27  C   UNL d   1      44.543  23.646  54.792  0.00  0.00     0.057 A 
ENDBRANCH   1  20
TORSDOF 3
ENDMDL
