MODEL 1
REMARK VINA RESULT:      -3.7      0.000      0.000
REMARK  3 active torsions:
REMARK  status: ('A' for Active; 'I' for Inactive)
REMARK       I    between atoms: C_2  and  N_1 
REMARK    1  A    between atoms: C_4  and  N_1 
REMARK    2  A    between atoms: C_5  and  N_1 
REMARK    3  A    between atoms: C_6  and  C_2 
ROOT
ATOM      1  N   UNL d   1      60.068  -8.706  35.528  0.00  0.00    -0.274 N 
ATOM      2  C   UNL d   1      60.095  -8.876  34.705  0.00  0.00     0.276 C 
ATOM      3  O   UNL d   1      60.230  -8.276  34.174  0.00  0.00    -0.266 OA
ENDROOT
BRANCH   1   4
ATOM      4  C   UNL d   1      60.179  -7.936  35.796  0.00  0.00     0.067 A 
ATOM      5  C   UNL d   1      60.917  -7.683  36.065  0.00  0.00     0.018 A 
ATOM      6  C   UNL d   1      60.994  -6.900  36.328  0.00  0.00     0.002 A 
ATOM      7  C   UNL d   1      60.350  -6.385  36.321  0.00  0.00     0.000 A 
ATOM      8  C   UNL d   1      59.627  -6.644  36.054  0.00  0.00     0.002 A 
ATOM      9  C   UNL d   1      59.533  -7.422  35.788  0.00  0.00     0.018 A 
ENDBRANCH   1   4
BRANCH   1  10
ATOM     10  C   UNL d   1      59.931  -9.322  36.050  0.00  0.00     0.067 C 
ATOM     11  C   UNL d   1      59.139  -9.461  36.311  0.00  0.00     0.019 C 
ATOM     12  C   UNL d   1      60.530  -9.810  36.330  0.00  0.00     0.019 C 
ENDBRANCH   1  10
BRANCH   2  13
ATOM     13  C   UNL d   1      59.983  -9.649  34.453  0.00  0.00     0.129 C 
ATOM     14 CL   UNL d   1      60.029  -9.811  33.642  0.00  0.00    -0.076 Cl
ENDBRANCH   2  13
TORSDOF 3
ENDMDL
MODEL 2
REMARK VINA RESULT:      -3.5      1.417      2.658
REMARK  3 active torsions:
REMARK  status: ('A' for Active; 'I' for Inactive)
REMARK       I    between atoms: C_2  and  N_1 
REMARK    1  A    between atoms: C_4  and  N_1 
REMARK    2  A    between atoms: C_5  and  N_1 
REMARK    3  A    between atoms: C_6  and  C_2 
ROOT
ATOM      1  N   UNL d   1      59.829  -8.845  35.292  0.00  0.00    -0.274 N 
ATOM      2  C   UNL d   1      59.592  -8.050  35.429  0.00  0.00     0.276 C 
ATOM      3  O   UNL d   1      59.466  -7.553  34.797  0.00  0.00    -0.266 OA
ENDROOT
BRANCH   1   4
ATOM      4  C   UNL d   1      59.933  -9.120  34.523  0.00  0.00     0.067 A 
ATOM      5  C   UNL d   1      60.662  -9.051  34.143  0.00  0.00     0.018 A 
ATOM      6  C   UNL d   1      60.732  -9.339  33.368  0.00  0.00     0.002 A 
ATOM      7  C   UNL d   1      60.090  -9.687  32.985  0.00  0.00     0.000 A 
ATOM      8  C   UNL d   1      59.376  -9.750  33.369  0.00  0.00     0.002 A 
ATOM      9  C   UNL d   1      59.289  -9.468  34.142  0.00  0.00     0.018 A 
ENDBRANCH   1   4
BRANCH   1  10
ATOM     10  C   UNL d   1      59.953  -9.332  35.938  0.00  0.00     0.067 C 
ATOM     11  C   UNL d   1      60.727  -9.365  36.277  0.00  0.00     0.019 C 
ATOM     12  C   UNL d   1      59.357  -9.790  36.271  0.00  0.00     0.019 C 
ENDBRANCH   1  10
BRANCH   2  13
ATOM     13  C   UNL d   1      59.494  -7.789  36.200  0.00  0.00     0.129 C 
ATOM     14 CL   UNL d   1      59.275  -7.001  36.326  0.00  0.00    -0.076 Cl
ENDBRANCH   2  13
TORSDOF 3
ENDMDL
MODEL 3
REMARK VINA RESULT:      -2.6      9.457     10.288
REMARK  3 active torsions:
REMARK  status: ('A' for Active; 'I' for Inactive)
REMARK       I    between atoms: C_2  and  N_1 
REMARK    1  A    between atoms: C_4  and  N_1 
REMARK    2  A    between atoms: C_5  and  N_1 
REMARK    3  A    between atoms: C_6  and  C_2 
ROOT
ATOM      1  N   UNL d   1      58.557   0.074  30.060  0.00  0.00    -0.274 N 
ATOM      2  C   UNL d   1      59.305   0.385  30.282  0.00  0.00     0.276 C 
ATOM      3  O   UNL d   1      59.430   0.624  31.050  0.00  0.00    -0.266 OA
ENDROOT
BRANCH   1   4
ATOM      4  C   UNL d   1      57.952   0.011  30.616  0.00  0.00     0.067 A 
ATOM      5  C   UNL d   1      57.553   0.682  30.885  0.00  0.00     0.018 A 
ATOM      6  C   UNL d   1      56.949   0.583  31.445  0.00  0.00     0.002 A 
ATOM      7  C   UNL d   1      56.750  -0.165  31.728  0.00  0.00     0.000 A 
ATOM      8  C   UNL d   1      57.150  -0.819  31.456  0.00  0.00     0.002 A 
ATOM      9  C   UNL d   1      57.756  -0.739  30.897  0.00  0.00     0.018 A 
ENDBRANCH   1   4
BRANCH   1  10
ATOM     10  C   UNL d   1      58.447  -0.162  29.284  0.00  0.00     0.067 C 
ATOM     11  C   UNL d   1      58.158   0.405  28.727  0.00  0.00     0.019 C 
ATOM     12  C   UNL d   1      58.605  -0.925  29.024  0.00  0.00     0.019 C 
ENDBRANCH   1  10
BRANCH   2  13
ATOM     13  C   UNL d   1      59.898   0.442  29.719  0.00  0.00     0.129 C 
ATOM     14 CL   UNL d   1      60.652   0.681  29.960  0.00  0.00    -0.076 Cl
ENDBRANCH   2  13
TORSDOF 3
ENDMDL
MODEL 4
REMARK VINA RESULT:      -2.2      8.904      9.826
REMARK  3 active torsions:
REMARK  status: ('A' for Active; 'I' for Inactive)
REMARK       I    between atoms: C_2  and  N_1 
REMARK    1  A    between atoms: C_4  and  N_1 
REMARK    2  A    between atoms: C_5  and  N_1 
REMARK    3  A    between atoms: C_6  and  C_2 
ROOT
ATOM      1  N   UNL d   1      58.831  -1.013  29.438  0.00  0.00    -0.274 N 
ATOM      2  C   UNL d   1      58.234  -0.892  30.016  0.00  0.00     0.276 C 
ATOM      3  O   UNL d   1      57.843  -1.532  30.331  0.00  0.00    -0.266 OA
ENDROOT
BRANCH   1   4
ATOM      4  C   UNL d   1      59.021  -1.775  29.190  0.00  0.00     0.067 A 
ATOM      5  C   UNL d   1      58.519  -2.193  28.685  0.00  0.00     0.018 A 
ATOM      6  C   UNL d   1      58.740  -2.959  28.455  0.00  0.00     0.002 A 
ATOM      7  C   UNL d   1      59.443  -3.297  28.723  0.00  0.00     0.000 A 
ATOM      8  C   UNL d   1      59.929  -2.876  29.221  0.00  0.00     0.002 A 
ATOM      9  C   UNL d   1      59.724  -2.111  29.460  0.00  0.00     0.018 A 
ENDBRANCH   1   4
BRANCH   1  10
ATOM     10  C   UNL d   1      59.216  -0.359  29.130  0.00  0.00     0.067 C 
ATOM     11  C   UNL d   1      58.882   0.025  28.455  0.00  0.00     0.019 C 
ATOM     12  C   UNL d   1      59.911  -0.060  29.450  0.00  0.00     0.019 C 
ENDBRANCH   1  10
BRANCH   2  13
ATOM     13  C   UNL d   1      58.056  -0.127  30.253  0.00  0.00     0.129 C 
ATOM     14 CL   UNL d   1      57.486  -0.019  30.844  0.00  0.00    -0.076 Cl
ENDBRANCH   2  13
TORSDOF 3
ENDMDL
MODEL 5
REMARK VINA RESULT:      -1.8      9.169      9.967
REMARK  3 active torsions:
REMARK  status: ('A' for Active; 'I' for Inactive)
REMARK       I    between atoms: C_2  and  N_1 
REMARK    1  A    between atoms: C_4  and  N_1 
REMARK    2  A    between atoms: C_5  and  N_1 
REMARK    3  A    between atoms: C_6  and  C_2 
ROOT
ATOM      1  N   UNL d   1      59.848  -1.064  29.176  0.00  0.00    -0.274 N 
ATOM      2  C   UNL d   1      59.635  -1.877  29.181  0.00  0.00     0.276 C 
ATOM      3  O   UNL d   1      58.849  -2.087  29.200  0.00  0.00    -0.266 OA
ENDROOT
BRANCH   1   4
ATOM      4  C   UNL d   1      59.265  -0.482  29.190  0.00  0.00     0.067 A 
ATOM      5  C   UNL d   1      58.958  -0.209  29.906  0.00  0.00     0.018 A 
ATOM      6  C   UNL d   1      58.372   0.377  29.885  0.00  0.00     0.002 A 
ATOM      7  C   UNL d   1      58.101   0.682  29.168  0.00  0.00     0.000 A 
ATOM      8  C   UNL d   1      58.412   0.406  28.468  0.00  0.00     0.002 A 
ATOM      9  C   UNL d   1      58.997  -0.180  28.471  0.00  0.00     0.018 A 
ENDBRANCH   1   4
BRANCH   1  10
ATOM     10  C   UNL d   1      60.643  -0.869  29.156  0.00  0.00     0.067 C 
ATOM     11  C   UNL d   1      61.046  -0.745  29.888  0.00  0.00     0.019 C 
ATOM     12  C   UNL d   1      61.064  -0.789  28.455  0.00  0.00     0.019 C 
ENDBRANCH   1  10
BRANCH   2  13
ATOM     13  C   UNL d   1      60.225  -2.445  29.166  0.00  0.00     0.129 C 
ATOM     14 CL   UNL d   1      60.007  -3.244  29.173  0.00  0.00    -0.076 Cl
ENDBRANCH   2  13
TORSDOF 3
ENDMDL
MODEL 6
REMARK VINA RESULT:      -1.3      9.476     10.277
REMARK  3 active torsions:
REMARK  status: ('A' for Active; 'I' for Inactive)
REMARK       I    between atoms: C_2  and  N_1 
REMARK    1  A    between atoms: C_4  and  N_1 
REMARK    2  A    between atoms: C_5  and  N_1 
REMARK    3  A    between atoms: C_6  and  C_2 
ROOT
ATOM      1  N   UNL d   1      58.996  -0.616  29.477  0.00  0.00    -0.274 N 
ATOM      2  C   UNL d   1      58.532  -0.208  30.047  0.00  0.00     0.276 C 
ATOM      3  O   UNL d   1      58.781   0.513  30.328  0.00  0.00    -0.266 OA
ENDROOT
BRANCH   1   4
ATOM      4  C   UNL d   1      59.700  -0.287  29.203  0.00  0.00     0.067 A 
ATOM      5  C   UNL d   1      59.695   0.376  28.713  0.00  0.00     0.018 A 
ATOM      6  C   UNL d   1      60.422   0.682  28.455  0.00  0.00     0.002 A 
ATOM      7  C   UNL d   1      61.133   0.333  28.683  0.00  0.00     0.000 A 
ATOM      8  C   UNL d   1      61.126  -0.321  29.166  0.00  0.00     0.002 A 
ATOM      9  C   UNL d   1      60.410  -0.639  29.432  0.00  0.00     0.018 A 
ENDBRANCH   1   4
BRANCH   1  10
ATOM     10  C   UNL d   1      58.730  -1.341  29.204  0.00  0.00     0.067 C 
ATOM     11  C   UNL d   1      58.332  -1.370  28.459  0.00  0.00     0.019 C 
ATOM     12  C   UNL d   1      58.836  -2.040  29.622  0.00  0.00     0.019 C 
ENDBRANCH   1  10
BRANCH   2  13
ATOM     13  C   UNL d   1      57.833  -0.547  30.310  0.00  0.00     0.129 C 
ATOM     14 CL   UNL d   1      57.449  -0.209  30.961  0.00  0.00    -0.076 Cl
ENDBRANCH   2  13
TORSDOF 3
ENDMDL
