MODEL 1
REMARK VINA RESULT:       0.9      0.000      0.000
REMARK  8 active torsions:
REMARK  status: ('A' for Active; 'I' for Inactive)
REMARK    1  A    between atoms: O_10  and  C_1 
REMARK    2  A    between atoms: C_12  and  C_4 
REMARK    3  A    between atoms: N_7  and  C_12 
REMARK    4  A    between atoms: C_15  and  N_8 
REMARK    5  A    between atoms: C_9  and  C_16 
REMARK       I    between atoms: N_11  and  C_9 
REMARK    6  A    between atoms: C_16  and  O_10 
REMARK    7  A    between atoms: C_22  and  N_11 
REMARK    8  A    between atoms: C_21  and  C_15 
ROOT
ATOM      1  C   UNL d   1      32.579  18.733 -23.702  0.00  0.00     0.164 A 
ATOM      2  C   UNL d   1      33.126  19.850 -24.283  0.00  0.00     0.070 A 
ATOM      3  C   UNL d   1      32.924  19.074 -24.335  0.00  0.00     0.222 A 
ATOM      4  C   UNL d   1      32.984  20.267 -23.615  0.00  0.00     0.121 A 
ATOM      5  C   UNL d   1      32.437  19.149 -23.034  0.00  0.00     0.150 A 
ATOM      6  O   UNL d   1      32.639  19.911 -22.993  0.00  0.00    -0.301 OA
ATOM      7  O   UNL d   1      33.065  18.662 -24.996  0.00  0.00    -0.284 OA
ENDROOT
BRANCH   4   8
ATOM      8  C   UNL d   1      33.189  21.037 -23.574  0.00  0.00     0.105 C 
BRANCH   8   9
ATOM      9  N   UNL d   1      33.074  21.458 -22.875  0.00  0.00    -0.298 N 
ATOM     10  C   UNL d   1      33.231  21.106 -22.138  0.00  0.00     0.100 A 
ATOM     11  C   UNL d   1      33.113  21.534 -21.434  0.00  0.00     0.100 A 
ATOM     12  N   UNL d   1      32.839  22.312 -21.461  0.00  0.00    -0.300 N 
ATOM     13  C   UNL d   1      32.679  22.672 -22.199  0.00  0.00     0.100 A 
ATOM     14  C   UNL d   1      32.797  22.243 -22.897  0.00  0.00     0.100 A 
BRANCH  12  15
ATOM     15  C   UNL d   1      32.660  22.895 -20.909  0.00  0.00     0.080 C 
BRANCH  15  16
ATOM     16  C   UNL d   1      32.661  22.935 -20.077  0.00  0.00     0.018 A 
ATOM     17  C   UNL d   1      32.842  22.263 -19.626  0.00  0.00     0.002 A 
ATOM     18  C   UNL d   1      32.841  22.312 -18.802  0.00  0.00     0.000 A 
ATOM     19  C   UNL d   1      32.662  23.022 -18.426  0.00  0.00     0.000 A 
ATOM     20  C   UNL d   1      32.480  23.701 -18.882  0.00  0.00     0.000 A 
ATOM     21  C   UNL d   1      32.482  23.649 -19.707  0.00  0.00     0.002 A 
ENDBRANCH  15  16
ENDBRANCH  12  15
ENDBRANCH   8   9
ENDBRANCH   4   8
BRANCH   1  22
ATOM     22  O   UNL d   1      32.261  18.082 -23.364  0.00  0.00    -0.295 OA
BRANCH  22  23
ATOM     23  C   UNL d   1      32.268  17.354 -23.766  0.00  0.00     0.185 C 
BRANCH  23  24
ATOM     24  C   UNL d   1      31.820  16.731 -23.470  0.00  0.00     0.304 C 
ATOM     25  N   UNL d   1      31.141  16.252 -23.517  0.00  0.00    -0.206 NA
ATOM     26  O   UNL d   1      32.062  16.302 -22.810  0.00  0.00    -0.263 OA
BRANCH  25  27
ATOM     27  C   UNL d   1      30.426  16.054 -23.895  0.00  0.00     0.085 C 
ATOM     28  C   UNL d   1      30.418  15.469 -24.476  0.00  0.00     0.021 C 
ATOM     29  C   UNL d   1      29.724  16.440 -23.689  0.00  0.00     0.021 C 
ENDBRANCH  25  27
ENDBRANCH  23  24
ENDBRANCH  22  23
ENDBRANCH   1  22
TORSDOF 8
ENDMDL
MODEL 2
REMARK VINA RESULT:       3.7      0.719      1.003
REMARK  8 active torsions:
REMARK  status: ('A' for Active; 'I' for Inactive)
REMARK    1  A    between atoms: O_10  and  C_1 
REMARK    2  A    between atoms: C_12  and  C_4 
REMARK    3  A    between atoms: N_7  and  C_12 
REMARK    4  A    between atoms: C_15  and  N_8 
REMARK    5  A    between atoms: C_9  and  C_16 
REMARK       I    between atoms: N_11  and  C_9 
REMARK    6  A    between atoms: C_16  and  O_10 
REMARK    7  A    between atoms: C_22  and  N_11 
REMARK    8  A    between atoms: C_21  and  C_15 
ROOT
ATOM      1  C   UNL d   1      32.657  18.874 -23.868  0.00  0.00     0.164 A 
ATOM      2  C   UNL d   1      33.134  20.149 -24.048  0.00  0.00     0.070 A 
ATOM      3  C   UNL d   1      33.011  19.410 -24.340  0.00  0.00     0.222 A 
ATOM      4  C   UNL d   1      32.907  20.339 -23.305  0.00  0.00     0.121 A 
ATOM      5  C   UNL d   1      32.430  19.064 -23.125  0.00  0.00     0.150 A 
ATOM      6  O   UNL d   1      32.555  19.792 -22.846  0.00  0.00    -0.301 OA
ATOM      7  O   UNL d   1      33.236  19.222 -25.075  0.00  0.00    -0.284 OA
ENDROOT
BRANCH   4   8
ATOM      8  C   UNL d   1      33.034  21.076 -23.024  0.00  0.00     0.105 C 
BRANCH   8   9
ATOM      9  N   UNL d   1      32.779  21.278 -22.267  0.00  0.00    -0.298 N 
ATOM     10  C   UNL d   1      32.100  21.745 -22.159  0.00  0.00     0.100 A 
ATOM     11  C   UNL d   1      31.846  21.948 -21.393  0.00  0.00     0.100 A 
ATOM     12  N   UNL d   1      32.267  21.686 -20.733  0.00  0.00    -0.300 N 
ATOM     13  C   UNL d   1      32.951  21.216 -20.834  0.00  0.00     0.100 A 
ATOM     14  C   UNL d   1      33.201  21.016 -21.598  0.00  0.00     0.100 A 
BRANCH  12  15
ATOM     15  C   UNL d   1      32.195  21.766 -19.917  0.00  0.00     0.080 C 
BRANCH  15  16
ATOM     16  C   UNL d   1      32.489  22.304 -19.352  0.00  0.00     0.018 A 
ATOM     17  C   UNL d   1      32.860  22.027 -18.665  0.00  0.00     0.002 A 
ATOM     18  C   UNL d   1      33.147  22.567 -18.111  0.00  0.00     0.000 A 
ATOM     19  C   UNL d   1      33.068  23.377 -18.236  0.00  0.00     0.000 A 
ATOM     20  C   UNL d   1      32.693  23.656 -18.932  0.00  0.00     0.000 A 
ATOM     21  C   UNL d   1      32.406  23.112 -19.485  0.00  0.00     0.002 A 
ENDBRANCH  15  16
ENDBRANCH  12  15
ENDBRANCH   8   9
ENDBRANCH   4   8
BRANCH   1  22
ATOM     22  O   UNL d   1      32.379  18.132 -23.763  0.00  0.00    -0.295 OA
BRANCH  22  23
ATOM     23  C   UNL d   1      31.625  18.009 -23.435  0.00  0.00     0.185 C 
BRANCH  23  24
ATOM     24  C   UNL d   1      31.257  17.282 -23.545  0.00  0.00     0.304 C 
ATOM     25  N   UNL d   1      30.620  16.840 -23.847  0.00  0.00    -0.206 NA
ATOM     26  O   UNL d   1      31.589  16.584 -23.259  0.00  0.00    -0.263 OA
BRANCH  25  27
ATOM     27  C   UNL d   1      29.895  16.812 -24.256  0.00  0.00     0.085 C 
ATOM     28  C   UNL d   1      29.538  17.511 -24.507  0.00  0.00     0.021 C 
ATOM     29  C   UNL d   1      29.533  16.084 -24.413  0.00  0.00     0.021 C 
ENDBRANCH  25  27
ENDBRANCH  23  24
ENDBRANCH  22  23
ENDBRANCH   1  22
TORSDOF 8
ENDMDL
