MODEL 1
REMARK VINA RESULT:     107.5      0.000      0.000
REMARK  9 active torsions:
REMARK  status: ('A' for Active; 'I' for Inactive)
REMARK    1  A    between atoms: C_14  and  N_1 
REMARK    2  A    between atoms: C_8  and  C_2 
REMARK    3  A    between atoms: C_3  and  N_11 
REMARK    4  A    between atoms: S_16  and  C_4 
REMARK    5  A    between atoms: C_10  and  C_8 
REMARK       I    between atoms: N_11  and  C_17 
REMARK    6  A    between atoms: C_23  and  C_14 
REMARK    7  A    between atoms: C_22  and  S_16 
REMARK    8  A    between atoms: C_17  and  C_22 
REMARK    9  A    between atoms: C_25  and  C_23 
ROOT
ATOM      1  N   UNL d   1     -56.039-102.177 -38.867  0.00  0.00    -0.268 N 
ATOM      2  C   UNL d   1     -55.770-102.160 -38.086  0.00  0.00     0.172 A 
ATOM      3  C   UNL d   1     -55.398-102.030 -39.364  0.00  0.00     0.201 A 
ATOM      4  N   UNL d   1     -54.964-102.003 -38.099  0.00  0.00    -0.128 NA
ATOM      5  N   UNL d   1     -54.727-101.922 -38.885  0.00  0.00    -0.121 NA
ENDROOT
BRANCH   3   6
ATOM      6  S   UNL d   1     -55.414-101.996 -40.183  0.00  0.00    -0.043 SA
BRANCH   6   7
ATOM      7  C   UNL d   1     -54.764-101.709 -40.600  0.00  0.00     0.101 C 
BRANCH   7   8
ATOM      8  C   UNL d   1     -54.802-101.630 -41.422  0.00  0.00     0.288 C 
ATOM      9  N   UNL d   1     -54.730-102.293 -41.898  0.00  0.00    -0.182 NA
ATOM     10  O   UNL d   1     -54.913-100.885 -41.759  0.00  0.00    -0.265 OA
BRANCH   9  11
ATOM     11  C   UNL d   1     -54.767-102.219 -42.713  0.00  0.00     0.197 A 
ATOM     12  N   UNL d   1     -54.823-102.841 -43.258  0.00  0.00    -0.221 NA
ATOM     13  C   UNL d   1     -54.846-102.518 -44.012  0.00  0.00     0.090 A 
ATOM     14  C   UNL d   1     -54.898-102.860 -44.754  0.00  0.00     0.020 A 
ATOM     15  C   UNL d   1     -54.805-101.695 -43.945  0.00  0.00     0.050 A 
ATOM     16  C   UNL d   1     -54.911-102.391 -45.432  0.00  0.00     0.002 A 
ATOM     17  C   UNL d   1     -54.870-101.567 -45.357  0.00  0.00     0.001 A 
ATOM     18  C   UNL d   1     -54.817-101.226 -44.623  0.00  0.00     0.008 A 
ATOM     19  S   UNL d   1     -54.756-101.498 -43.142  0.00  0.00    -0.047 SA
ENDBRANCH   9  11
ENDBRANCH   7   8
ENDBRANCH   6   7
ENDBRANCH   3   6
BRANCH   1  20
ATOM     20  C   UNL d   1     -56.816-102.317 -39.106  0.00  0.00     0.084 C 
BRANCH  20  21
ATOM     21  C   UNL d   1     -57.414-101.766 -38.917  0.00  0.00     0.019 C 
BRANCH  21  22
ATOM     22  C   UNL d   1     -58.209-101.948 -39.066  0.00  0.00     0.002 A 
ATOM     23  C   UNL d   1     -58.690-101.390 -39.423  0.00  0.00     0.000 A 
ATOM     24  C   UNL d   1     -59.480-101.575 -39.570  0.00  0.00     0.000 A 
ATOM     25  C   UNL d   1     -59.778-102.319 -39.357  0.00  0.00     0.000 A 
ATOM     26  C   UNL d   1     -59.285-102.878 -38.996  0.00  0.00     0.000 A 
ATOM     27  C   UNL d   1     -58.497-102.682 -38.854  0.00  0.00     0.000 A 
ENDBRANCH  21  22
ENDBRANCH  20  21
ENDBRANCH   1  20
BRANCH   2  28
ATOM     28  C   UNL d   1     -56.230-102.279 -37.409  0.00  0.00     0.057 C 
BRANCH  28  29
ATOM     29  C   UNL d   1     -55.898-102.190 -36.662  0.00  0.00     0.067 A 
ATOM     30  N   UNL d   1     -56.221-102.450 -35.947  0.00  0.00    -0.303 N 
ATOM     31  C   UNL d   1     -55.702-102.242 -35.340  0.00  0.00     0.080 A 
ATOM     32  C   UNL d   1     -56.937-102.847 -35.862  0.00  0.00     0.100 C 
ATOM     33  C   UNL d   1     -55.058-101.854 -35.673  0.00  0.00     0.021 A 
ATOM     34  C   UNL d   1     -55.175-101.819 -36.488  0.00  0.00     0.019 A 
ENDBRANCH  28  29
ENDBRANCH   2  28
TORSDOF 9
ENDMDL
