MODEL 1
REMARK VINA RESULT:      62.3      0.000      0.000
REMARK  5 active torsions:
REMARK  status: ('A' for Active; 'I' for Inactive)
REMARK    1  A    between atoms: N_2  and  C_1 
REMARK    2  A    between atoms: C_13  and  N_6 
REMARK    3  A    between atoms: C_12  and  C_7 
REMARK    4  A    between atoms: O_22  and  C_19 
REMARK    5  A    between atoms: C_25  and  O_22 
ROOT
ATOM      1  N   UNL d   1      44.306 -13.592  44.197  0.00  0.00    -0.288 N 
ATOM      2  C   UNL d   1      44.438 -14.359  44.482  0.00  0.00     0.196 A 
ATOM      3  S   UNL d   1      43.777 -14.555  44.944  0.00  0.00    -0.092 SA
ATOM      4  C   UNL d   1      43.581 -13.330  44.481  0.00  0.00     0.268 A 
ATOM      5  C   UNL d   1      43.264 -13.955  44.952  0.00  0.00     0.093 A 
ATOM      6  O   UNL d   1      43.248 -12.612  44.333  0.00  0.00    -0.266 OA
ENDROOT
BRANCH   1   7
ATOM      7  C   UNL d   1      44.854 -13.240  43.725  0.00  0.00     0.139 A 
ATOM      8  C   UNL d   1      44.765 -13.159  42.939  0.00  0.00     0.296 A 
ATOM      9  N   UNL d   1      45.421 -12.780  42.637  0.00  0.00    -0.209 N 
ATOM     10  O   UNL d   1      44.097 -13.425  42.504  0.00  0.00    -0.264 OA
ATOM     11  N   UNL d   1      45.919 -12.628  43.253  0.00  0.00    -0.238 N 
ATOM     12  C   UNL d   1      45.553 -12.923  43.945  0.00  0.00     0.102 A 
ATOM     13  C   UNL d   1      46.640 -12.258  43.210  0.00  0.00     0.120 C 
ATOM     14  C   UNL d   1      45.850 -12.901  44.736  0.00  0.00     0.022 C 
BRANCH   9  15
ATOM     15  C   UNL d   1      45.635 -12.552  41.884  0.00  0.00     0.085 A 
ATOM     16  C   UNL d   1      45.063 -12.334  41.338  0.00  0.00     0.019 A 
ATOM     17  C   UNL d   1      45.280 -12.106  40.585  0.00  0.00     0.002 A 
ATOM     18  C   UNL d   1      46.071 -12.089  40.358  0.00  0.00     0.000 A 
ATOM     19  C   UNL d   1      46.636 -12.311  40.915  0.00  0.00     0.002 A 
ATOM     20  C   UNL d   1      46.422 -12.538  41.664  0.00  0.00     0.019 A 
ENDBRANCH   9  15
ENDBRANCH   1   7
BRANCH   2  21
ATOM     21  C   UNL d   1      45.016 -14.937  44.428  0.00  0.00    -0.001 A 
ATOM     22  C   UNL d   1      45.881 -14.803  44.591  0.00  0.00    -0.000 A 
ATOM     23  C   UNL d   1      46.436 -15.479  44.509  0.00  0.00     0.024 A 
ATOM     24  C   UNL d   1      46.108 -16.246  44.272  0.00  0.00     0.100 A 
ATOM     25  C   UNL d   1      45.293 -16.338  44.126  0.00  0.00     0.024 A 
ATOM     26  C   UNL d   1      44.737 -15.711  44.196  0.00  0.00    -0.000 A 
BRANCH  24  27
ATOM     27  O   UNL d   1      46.640 -16.853  44.203  0.00  0.00    -0.305 OA
BRANCH  27  28
ATOM     28  C   UNL d   1      46.457 -17.525  43.639  0.00  0.00     0.123 C 
ATOM     29  C   UNL d   1      46.505 -18.311  43.937  0.00  0.00     0.029 C 
ENDBRANCH  27  28
ENDBRANCH  24  27
ENDBRANCH   2  21
TORSDOF 5
ENDMDL
