MODEL 1
REMARK VINA RESULT:      -3.4      0.000      0.000
REMARK  3 active torsions:
REMARK  status: ('A' for Active; 'I' for Inactive)
REMARK    1  A    between atoms: C_6  and  N_1 
REMARK    2  A    between atoms: C_11  and  C_6 
REMARK    3  A    between atoms: C_9  and  C_11 
ROOT
ATOM      1  N   UNL d   1      33.240  20.482 -22.148  0.00  0.00    -0.240 N 
ATOM      2  C   UNL d   1      33.240  20.405 -22.965  0.00  0.00     0.267 A 
ATOM      3  C   UNL d   1      33.240  19.723 -21.828  0.00  0.00     0.267 A 
ATOM      4  C   UNL d   1      33.240  19.605 -23.151  0.00  0.00     0.061 A 
ATOM      5  C   UNL d   1      33.240  19.181 -22.444  0.00  0.00     0.061 A 
ATOM      6  O   UNL d   1      33.240  21.064 -23.505  0.00  0.00    -0.267 OA
ATOM      7  O   UNL d   1      33.240  19.567 -21.009  0.00  0.00    -0.267 OA
ATOM      8  C   UNL d   1      33.240  18.380 -22.462  0.00  0.00     0.005 A 
ATOM      9  C   UNL d   1      33.240  19.222 -23.866  0.00  0.00     0.005 A 
ATOM     10  C   UNL d   1      33.241  18.387 -23.882  0.00  0.00     0.000 A 
ATOM     11  C   UNL d   1      33.241  17.963 -23.174  0.00  0.00     0.000 A 
ENDROOT
BRANCH   1  12
ATOM     12  C   UNL d   1      33.239  21.190 -21.724  0.00  0.00     0.086 C 
BRANCH  12  13
ATOM     13  C   UNL d   1      32.554  21.445 -21.331  0.00  0.00     0.019 C 
BRANCH  13  14
ATOM     14  C   UNL d   1      32.562  22.172 -20.944  0.00  0.00     0.002 A 
ATOM     15  C   UNL d   1      33.025  22.289 -20.292  0.00  0.00     0.000 A 
ATOM     16  C   UNL d   1      33.031  23.029 -19.901  0.00  0.00     0.000 A 
ATOM     17  C   UNL d   1      32.556  23.650 -20.183  0.00  0.00     0.000 A 
ATOM     18  C   UNL d   1      32.095  23.528 -20.834  0.00  0.00     0.000 A 
ATOM     19  C   UNL d   1      32.086  22.791 -21.229  0.00  0.00     0.000 A 
ENDBRANCH  13  14
ENDBRANCH  12  13
ENDBRANCH   1  12
TORSDOF 3
ENDMDL
MODEL 2
REMARK VINA RESULT:      -3.2      0.195      1.400
REMARK  3 active torsions:
REMARK  status: ('A' for Active; 'I' for Inactive)
REMARK    1  A    between atoms: C_6  and  N_1 
REMARK    2  A    between atoms: C_11  and  C_6 
REMARK    3  A    between atoms: C_9  and  C_11 
ROOT
ATOM      1  N   UNL d   1      33.239  20.276 -22.126  0.00  0.00    -0.240 N 
ATOM      2  C   UNL d   1      33.239  19.507 -21.839  0.00  0.00     0.267 A 
ATOM      3  C   UNL d   1      33.238  20.233 -22.948  0.00  0.00     0.267 A 
ATOM      4  C   UNL d   1      33.238  18.991 -22.478  0.00  0.00     0.061 A 
ATOM      5  C   UNL d   1      33.237  19.443 -23.168  0.00  0.00     0.061 A 
ATOM      6  O   UNL d   1      33.240  19.308 -21.010  0.00  0.00    -0.267 OA
ATOM      7  O   UNL d   1      33.237  20.902 -23.446  0.00  0.00    -0.267 OA
ATOM      8  C   UNL d   1      33.236  19.077 -23.880  0.00  0.00     0.005 A 
ATOM      9  C   UNL d   1      33.237  18.181 -22.511  0.00  0.00     0.005 A 
ATOM     10  C   UNL d   1      33.236  17.803 -23.255  0.00  0.00     0.000 A 
ATOM     11  C   UNL d   1      33.235  18.255 -23.946  0.00  0.00     0.000 A 
ENDROOT
BRANCH   1  12
ATOM     12  C   UNL d   1      33.240  20.966 -21.674  0.00  0.00     0.086 C 
BRANCH  12  13
ATOM     13  C   UNL d   1      32.529  21.282 -21.386  0.00  0.00     0.019 C 
BRANCH  13  14
ATOM     14  C   UNL d   1      32.543  22.001 -20.983  0.00  0.00     0.002 A 
ATOM     15  C   UNL d   1      32.130  22.638 -21.259  0.00  0.00     0.000 A 
ATOM     16  C   UNL d   1      32.146  23.367 -20.848  0.00  0.00     0.000 A 
ATOM     17  C   UNL d   1      32.591  23.438 -20.149  0.00  0.00     0.000 A 
ATOM     18  C   UNL d   1      33.002  22.798 -19.878  0.00  0.00     0.000 A 
ATOM     19  C   UNL d   1      32.989  22.068 -20.284  0.00  0.00     0.000 A 
ENDBRANCH  13  14
ENDBRANCH  12  13
ENDBRANCH   1  12
TORSDOF 3
ENDMDL
MODEL 3
REMARK VINA RESULT:      -2.4      1.016      2.002
REMARK  3 active torsions:
REMARK  status: ('A' for Active; 'I' for Inactive)
REMARK    1  A    between atoms: C_6  and  N_1 
REMARK    2  A    between atoms: C_11  and  C_6 
REMARK    3  A    between atoms: C_9  and  C_11 
ROOT
ATOM      1  N   UNL d   1      33.105  19.259 -23.087  0.00  0.00    -0.240 N 
ATOM      2  C   UNL d   1      33.103  18.465 -22.883  0.00  0.00     0.267 A 
ATOM      3  C   UNL d   1      32.965  19.308 -23.897  0.00  0.00     0.267 A 
ATOM      4  C   UNL d   1      32.963  18.023 -23.561  0.00  0.00     0.061 A 
ATOM      5  C   UNL d   1      32.876  18.547 -24.192  0.00  0.00     0.061 A 
ATOM      6  O   UNL d   1      33.229  18.176 -22.092  0.00  0.00    -0.267 OA
ATOM      7  O   UNL d   1      32.925  20.027 -24.318  0.00  0.00    -0.267 OA
ATOM      8  C   UNL d   1      32.733  18.263 -24.927  0.00  0.00     0.005 A 
ATOM      9  C   UNL d   1      32.904  17.222 -23.675  0.00  0.00     0.005 A 
ATOM     10  C   UNL d   1      32.755  16.928 -24.442  0.00  0.00     0.000 A 
ATOM     11  C   UNL d   1      32.669  17.453 -25.073  0.00  0.00     0.000 A 
ENDROOT
BRANCH   1  12
ATOM     12  C   UNL d   1      33.226  19.895 -22.575  0.00  0.00     0.086 C 
BRANCH  12  13
ATOM     13  C   UNL d   1      32.658  20.088 -22.002  0.00  0.00     0.019 C 
BRANCH  13  14
ATOM     14  C   UNL d   1      32.766  20.763 -21.541  0.00  0.00     0.002 A 
ATOM     15  C   UNL d   1      33.028  20.704 -20.780  0.00  0.00     0.000 A 
ATOM     16  C   UNL d   1      33.138  21.391 -20.313  0.00  0.00     0.000 A 
ATOM     17  C   UNL d   1      32.976  22.140 -20.635  0.00  0.00     0.000 A 
ATOM     18  C   UNL d   1      32.714  22.192 -21.397  0.00  0.00     0.000 A 
ATOM     19  C   UNL d   1      32.603  21.510 -21.867  0.00  0.00     0.000 A 
ENDBRANCH  13  14
ENDBRANCH  12  13
ENDBRANCH   1  12
TORSDOF 3
ENDMDL
MODEL 4
REMARK VINA RESULT:      -2.0      3.858      5.864
REMARK  3 active torsions:
REMARK  status: ('A' for Active; 'I' for Inactive)
REMARK    1  A    between atoms: C_6  and  N_1 
REMARK    2  A    between atoms: C_11  and  C_6 
REMARK    3  A    between atoms: C_9  and  C_11 
ROOT
ATOM      1  N   UNL d   1      30.964  17.040 -24.113  0.00  0.00    -0.240 N 
ATOM      2  C   UNL d   1      31.146  17.750 -24.481  0.00  0.00     0.267 A 
ATOM      3  C   UNL d   1      31.560  16.885 -23.565  0.00  0.00     0.267 A 
ATOM      4  C   UNL d   1      31.849  18.034 -24.165  0.00  0.00     0.061 A 
ATOM      5  C   UNL d   1      32.107  17.496 -23.595  0.00  0.00     0.061 A 
ATOM      6  O   UNL d   1      30.667  18.109 -25.087  0.00  0.00    -0.267 OA
ATOM      7  O   UNL d   1      31.575  16.209 -23.077  0.00  0.00    -0.267 OA
ATOM      8  C   UNL d   1      32.786  17.637 -23.196  0.00  0.00     0.005 A 
ATOM      9  C   UNL d   1      32.276  18.705 -24.326  0.00  0.00     0.005 A 
ATOM     10  C   UNL d   1      32.984  18.849 -23.907  0.00  0.00     0.000 A 
ATOM     11  C   UNL d   1      33.241  18.310 -23.338  0.00  0.00     0.000 A 
ENDROOT
BRANCH   1  12
ATOM     12  C   UNL d   1      30.305  16.567 -24.262  0.00  0.00     0.086 C 
BRANCH  12  13
ATOM     13  C   UNL d   1      29.552  16.906 -24.340  0.00  0.00     0.019 C 
BRANCH  13  14
ATOM     14  C   UNL d   1      28.887  16.451 -24.164  0.00  0.00     0.002 A 
ATOM     15  C   UNL d   1      28.514  16.524 -23.451  0.00  0.00     0.000 A 
ATOM     16  C   UNL d   1      27.840  16.061 -23.274  0.00  0.00     0.000 A 
ATOM     17  C   UNL d   1      27.549  15.522 -23.836  0.00  0.00     0.000 A 
ATOM     18  C   UNL d   1      27.926  15.453 -24.547  0.00  0.00     0.000 A 
ATOM     19  C   UNL d   1      28.600  15.913 -24.728  0.00  0.00     0.000 A 
ENDBRANCH  13  14
ENDBRANCH  12  13
ENDBRANCH   1  12
TORSDOF 3
ENDMDL
MODEL 5
REMARK VINA RESULT:      -1.8      1.894      3.155
REMARK  3 active torsions:
REMARK  status: ('A' for Active; 'I' for Inactive)
REMARK    1  A    between atoms: C_6  and  N_1 
REMARK    2  A    between atoms: C_11  and  C_6 
REMARK    3  A    between atoms: C_9  and  C_11 
ROOT
ATOM      1  N   UNL d   1      32.761  22.268 -20.422  0.00  0.00    -0.240 N 
ATOM      2  C   UNL d   1      32.689  21.496 -20.691  0.00  0.00     0.267 A 
ATOM      3  C   UNL d   1      32.975  22.735 -21.066  0.00  0.00     0.267 A 
ATOM      4  C   UNL d   1      32.857  21.483 -21.495  0.00  0.00     0.061 A 
ATOM      5  C   UNL d   1      33.035  22.254 -21.728  0.00  0.00     0.061 A 
ATOM      6  O   UNL d   1      32.474  20.837 -20.195  0.00  0.00    -0.267 OA
ATOM      7  O   UNL d   1      33.102  23.558 -21.018  0.00  0.00    -0.267 OA
ATOM      8  C   UNL d   1      33.221  22.404 -22.492  0.00  0.00     0.005 A 
ATOM      9  C   UNL d   1      32.868  20.874 -22.029  0.00  0.00     0.005 A 
ATOM     10  C   UNL d   1      33.063  21.033 -22.825  0.00  0.00     0.000 A 
ATOM     11  C   UNL d   1      33.241  21.804 -23.059  0.00  0.00     0.000 A 
ENDROOT
BRANCH   1  12
ATOM     12  C   UNL d   1      32.641  22.529 -19.649  0.00  0.00     0.086 C 
BRANCH  12  13
ATOM     13  C   UNL d   1      33.241  22.454 -19.081  0.00  0.00     0.019 C 
BRANCH  13  14
ATOM     14  C   UNL d   1      33.090  22.687 -18.305  0.00  0.00     0.002 A 
ATOM     15  C   UNL d   1      32.999  23.468 -18.119  0.00  0.00     0.000 A 
ATOM     16  C   UNL d   1      32.845  23.702 -17.330  0.00  0.00     0.000 A 
ATOM     17  C   UNL d   1      32.787  23.128 -16.732  0.00  0.00     0.000 A 
ATOM     18  C   UNL d   1      32.879  22.349 -16.923  0.00  0.00     0.000 A 
ATOM     19  C   UNL d   1      33.032  22.110 -17.709  0.00  0.00     0.000 A 
ENDBRANCH  13  14
ENDBRANCH  12  13
ENDBRANCH   1  12
TORSDOF 3
ENDMDL
