MODEL 1
REMARK VINA RESULT:       1.4      0.000      0.000
REMARK  4 active torsions:
REMARK  status: ('A' for Active; 'I' for Inactive)
REMARK    1  A    between atoms: C_4  and  C_1 
REMARK    2  A    between atoms: C_12  and  N_2 
REMARK    3  A    between atoms: C_11  and  N_5 
REMARK    4  A    between atoms: C_14  and  C_12 
ROOT
ATOM      1  C   UNL d   1      33.055  20.795 -23.260  0.00  0.00     0.149 A 
ATOM      2  N   UNL d   1      33.149  21.370 -22.656  0.00  0.00    -0.289 N 
ATOM      3  N   UNL d   1      33.011  21.191 -23.985  0.00  0.00    -0.227 NA
ATOM      4  C   UNL d   1      33.161  22.117 -23.022  0.00  0.00     0.083 A 
ATOM      5  C   UNL d   1      33.077  22.012 -23.839  0.00  0.00     0.099 A 
ATOM      6  C   UNL d   1      33.240  22.886 -22.709  0.00  0.00     0.019 A 
ATOM      7  C   UNL d   1      33.070  22.660 -24.345  0.00  0.00     0.021 A 
ATOM      8  C   UNL d   1      33.233  23.536 -23.224  0.00  0.00     0.002 A 
ATOM      9  C   UNL d   1      33.148  23.423 -24.040  0.00  0.00     0.002 A 
ENDROOT
BRANCH   1  10
ATOM     10  C   UNL d   1      33.014  19.981 -23.143  0.00  0.00     0.057 A 
ATOM     11  C   UNL d   1      32.755  19.424 -23.689  0.00  0.00     0.081 A 
ATOM     12  N   UNL d   1      32.809  18.676 -23.335  0.00  0.00    -0.298 N 
ATOM     13  C   UNL d   1      33.101  18.775 -22.570  0.00  0.00     0.261 A 
ATOM     14  C   UNL d   1      33.229  19.582 -22.450  0.00  0.00     0.065 A 
ATOM     15  O   UNL d   1      33.241  18.177 -22.025  0.00  0.00    -0.267 OA
BRANCH  12  16
ATOM     16  C   UNL d   1      32.605  17.958 -23.687  0.00  0.00     0.071 C 
ATOM     17  C   UNL d   1      32.533  17.233 -24.060  0.00  0.00     0.023 C 
ATOM     18  C   UNL d   1      33.188  17.480 -24.010  0.00  0.00     0.023 C 
ATOM     19  C   UNL d   1      31.814  17.728 -23.712  0.00  0.00     0.023 C 
ENDBRANCH  12  16
ENDBRANCH   1  10
BRANCH   2  20
ATOM     20  C   UNL d   1      33.216  21.220 -21.852  0.00  0.00     0.082 C 
BRANCH  20  21
ATOM     21  C   UNL d   1      32.718  21.606 -21.315  0.00  0.00     0.018 A 
ATOM     22  C   UNL d   1      31.922  21.392 -21.271  0.00  0.00     0.002 A 
ATOM     23  C   UNL d   1      31.423  21.772 -20.738  0.00  0.00     0.000 A 
ATOM     24  C   UNL d   1      31.720  22.365 -20.251  0.00  0.00     0.000 A 
ATOM     25  C   UNL d   1      32.519  22.576 -20.299  0.00  0.00     0.000 A 
ATOM     26  C   UNL d   1      33.010  22.196 -20.829  0.00  0.00     0.002 A 
ENDBRANCH  20  21
ENDBRANCH   2  20
TORSDOF 4
ENDMDL
