MODEL 1
REMARK VINA RESULT:      47.2      0.000      0.000
REMARK  7 active torsions:
REMARK  status: ('A' for Active; 'I' for Inactive)
REMARK    1  A    between atoms: C_2  and  S_1 
REMARK    2  A    between atoms: N_3  and  S_1 
REMARK    3  A    between atoms: C_11  and  N_3 
REMARK    4  A    between atoms: C_4  and  C_7 
REMARK       I    between atoms: N_12  and  C_4 
REMARK    5  A    between atoms: C_22  and  N_12 
REMARK    6  A    between atoms: O_20  and  C_24 
REMARK    7  A    between atoms: C_24  and  C_22 
ROOT
ATOM      1  C   UNL d   1      13.583  12.351  -2.237  0.00  0.00     0.058 A 
ATOM      2  C   UNL d   1      13.121  12.721  -3.774  0.00  0.00     0.094 A 
ATOM      3  C   UNL d   1      13.632  11.780  -2.831  0.00  0.00     0.006 A 
ATOM      4  C   UNL d   1      13.303  13.108  -2.412  0.00  0.00     0.006 A 
ATOM      5  C   UNL d   1      13.401  11.965  -3.598  0.00  0.00     0.020 A 
ATOM      6  C   UNL d   1      13.072  13.293  -3.180  0.00  0.00     0.020 A 
ENDROOT
BRANCH   2   7
ATOM      7  N   UNL d   1      12.891  12.905  -4.540  0.00  0.00    -0.158 NA
BRANCH   7   8
ATOM      8  S   UNL d   1      13.322  13.456  -4.979  0.00  0.00     0.285 S 
ATOM      9  O   UNL d   1      13.871  12.872  -5.173  0.00  0.00    -0.198 OA
ATOM     10  O   UNL d   1      12.770  14.036  -4.782  0.00  0.00    -0.198 OA
BRANCH   8  11
ATOM     11  C   UNL d   1      13.745  14.011  -5.413  0.00  0.00     0.105 A 
ATOM     12  C   UNL d   1      14.316  13.771  -5.954  0.00  0.00     0.012 A 
ATOM     13  C   UNL d   1      14.736  14.334  -6.386  0.00  0.00     0.001 A 
ATOM     14  C   UNL d   1      14.459  12.957  -6.057  0.00  0.00     0.001 C 
ATOM     15  C   UNL d   1      14.588  15.134  -6.278  0.00  0.00     0.000 A 
ATOM     16  C   UNL d   1      14.016  15.378  -5.735  0.00  0.00     0.001 A 
ATOM     17  C   UNL d   1      13.592  14.823  -5.301  0.00  0.00     0.013 A 
ATOM     18  C   UNL d   1      13.868  16.194  -5.629  0.00  0.00     0.000 C 
ENDBRANCH   8  11
ENDBRANCH   7   8
ENDBRANCH   2   7
BRANCH   1  19
ATOM     19  C   UNL d   1      13.816  12.170  -1.458  0.00  0.00     0.279 C 
ATOM     20  O   UNL d   1      13.296  11.783  -0.948  0.00  0.00    -0.265 OA
ATOM     21  N   UNL d   1      14.568  12.382  -1.201  0.00  0.00    -0.204 NA
BRANCH  21  22
ATOM     22  C   UNL d   1      14.800  12.203  -0.430  0.00  0.00     0.128 C 
BRANCH  22  23
ATOM     23  C   UNL d   1      15.374  12.661  -0.055  0.00  0.00     0.137 C 
BRANCH  23  24
ATOM     24  O   UNL d   1      15.451  13.476  -0.245  0.00  0.00    -0.325 OA
ATOM     25  C   UNL d   1      16.123  13.888  -0.015  0.00  0.00     0.182 C 
ENDBRANCH  23  24
ENDBRANCH  22  23
ENDBRANCH  21  22
ENDBRANCH   1  19
TORSDOF 7
ENDMDL
MODEL 2
REMARK VINA RESULT:      47.4      2.592      4.718
REMARK  7 active torsions:
REMARK  status: ('A' for Active; 'I' for Inactive)
REMARK    1  A    between atoms: C_2  and  S_1 
REMARK    2  A    between atoms: N_3  and  S_1 
REMARK    3  A    between atoms: C_11  and  N_3 
REMARK    4  A    between atoms: C_4  and  C_7 
REMARK       I    between atoms: N_12  and  C_4 
REMARK    5  A    between atoms: C_22  and  N_12 
REMARK    6  A    between atoms: O_20  and  C_24 
REMARK    7  A    between atoms: C_24  and  C_22 
ROOT
ATOM      1  C   UNL d   1      15.469  15.658  -0.691  0.00  0.00     0.058 A 
ATOM      2  C   UNL d   1      15.238  14.029  -0.617  0.00  0.00     0.094 A 
ATOM      3  C   UNL d   1      15.055  15.272  -1.292  0.00  0.00     0.006 A 
ATOM      4  C   UNL d   1      15.767  15.228  -0.052  0.00  0.00     0.006 A 
ATOM      5  C   UNL d   1      14.940  14.460  -1.255  0.00  0.00     0.020 A 
ATOM      6  C   UNL d   1      15.652  14.414  -0.015  0.00  0.00     0.020 A 
ENDROOT
BRANCH   2   7
ATOM      7  N   UNL d   1      15.122  13.217  -0.580  0.00  0.00    -0.158 NA
BRANCH   7   8
ATOM      8  S   UNL d   1      14.558  12.859  -1.064  0.00  0.00     0.285 S 
ATOM      9  O   UNL d   1      13.956  13.193  -0.610  0.00  0.00    -0.198 OA
ATOM     10  O   UNL d   1      15.162  12.527  -1.516  0.00  0.00    -0.198 OA
BRANCH   8  11
ATOM     11  C   UNL d   1      14.001  12.499  -1.551  0.00  0.00     0.105 A 
ATOM     12  C   UNL d   1      13.336  12.138  -1.230  0.00  0.00     0.012 A 
ATOM     13  C   UNL d   1      12.783  11.779  -1.725  0.00  0.00     0.001 A 
ATOM     14  C   UNL d   1      13.233  12.142  -0.403  0.00  0.00     0.001 C 
ATOM     15  C   UNL d   1      12.893  11.780  -2.538  0.00  0.00     0.000 A 
ATOM     16  C   UNL d   1      13.560  12.142  -2.864  0.00  0.00     0.001 A 
ATOM     17  C   UNL d   1      14.116  12.502  -2.377  0.00  0.00     0.013 A 
ATOM     18  C   UNL d   1      13.667  12.141  -3.693  0.00  0.00     0.000 C 
ENDBRANCH   8  11
ENDBRANCH   7   8
ENDBRANCH   2   7
BRANCH   1  19
ATOM     19  C   UNL d   1      15.589  16.482  -0.723  0.00  0.00     0.279 C 
ATOM     20  O   UNL d   1      16.217  16.827  -0.315  0.00  0.00    -0.265 OA
ATOM     21  N   UNL d   1      15.075  16.948  -1.165  0.00  0.00    -0.204 NA
BRANCH  21  22
ATOM     22  C   UNL d   1      15.192  17.764  -1.198  0.00  0.00     0.128 C 
BRANCH  22  23
ATOM     23  C   UNL d   1      14.998  18.182  -1.881  0.00  0.00     0.137 C 
BRANCH  23  24
ATOM     24  O   UNL d   1      14.555  17.809  -2.490  0.00  0.00    -0.325 OA
ATOM     25  C   UNL d   1      14.933  17.319  -3.029  0.00  0.00     0.182 C 
ENDBRANCH  23  24
ENDBRANCH  22  23
ENDBRANCH  21  22
ENDBRANCH   1  19
TORSDOF 7
ENDMDL
MODEL 3
REMARK VINA RESULT:      49.0      1.187      1.650
REMARK  7 active torsions:
REMARK  status: ('A' for Active; 'I' for Inactive)
REMARK    1  A    between atoms: C_2  and  S_1 
REMARK    2  A    between atoms: N_3  and  S_1 
REMARK    3  A    between atoms: C_11  and  N_3 
REMARK    4  A    between atoms: C_4  and  C_7 
REMARK       I    between atoms: N_12  and  C_4 
REMARK    5  A    between atoms: C_22  and  N_12 
REMARK    6  A    between atoms: O_20  and  C_24 
REMARK    7  A    between atoms: C_24  and  C_22 
ROOT
ATOM      1  C   UNL d   1      13.333  12.777  -3.022  0.00  0.00     0.058 A 
ATOM      2  C   UNL d   1      13.151  13.776  -4.318  0.00  0.00     0.094 A 
ATOM      3  C   UNL d   1      13.315  12.463  -3.785  0.00  0.00     0.006 A 
ATOM      4  C   UNL d   1      13.260  13.591  -2.907  0.00  0.00     0.006 A 
ATOM      5  C   UNL d   1      13.224  12.962  -4.432  0.00  0.00     0.020 A 
ATOM      6  C   UNL d   1      13.169  14.091  -3.555  0.00  0.00     0.020 A 
ENDROOT
BRANCH   2   7
ATOM      7  N   UNL d   1      13.060  14.275  -4.965  0.00  0.00    -0.158 NA
BRANCH   7   8
ATOM      8  S   UNL d   1      13.502  14.970  -5.013  0.00  0.00     0.285 S 
ATOM      9  O   UNL d   1      14.137  14.545  -5.323  0.00  0.00    -0.198 OA
ATOM     10  O   UNL d   1      12.865  15.391  -4.703  0.00  0.00    -0.198 OA
BRANCH   8  11
ATOM     11  C   UNL d   1      13.936  15.668  -5.058  0.00  0.00     0.105 A 
ATOM     12  C   UNL d   1      13.922  16.124  -5.742  0.00  0.00     0.012 A 
ATOM     13  C   UNL d   1      14.360  16.822  -5.779  0.00  0.00     0.001 A 
ATOM     14  C   UNL d   1      13.463  15.871  -6.389  0.00  0.00     0.001 C 
ATOM     15  C   UNL d   1      14.809  17.064  -5.136  0.00  0.00     0.000 A 
ATOM     16  C   UNL d   1      14.825  16.608  -4.448  0.00  0.00     0.001 A 
ATOM     17  C   UNL d   1      14.391  15.910  -4.404  0.00  0.00     0.013 A 
ATOM     18  C   UNL d   1      15.284  16.858  -3.796  0.00  0.00     0.000 C 
ENDBRANCH   8  11
ENDBRANCH   7   8
ENDBRANCH   2   7
BRANCH   1  19
ATOM     19  C   UNL d   1      13.425  12.276  -2.362  0.00  0.00     0.279 C 
ATOM     20  O   UNL d   1      12.810  11.780  -2.128  0.00  0.00    -0.265 OA
ATOM     21  N   UNL d   1      14.134  12.282  -1.947  0.00  0.00    -0.204 NA
BRANCH  21  22
ATOM     22  C   UNL d   1      14.227  11.787  -1.293  0.00  0.00     0.128 C 
BRANCH  22  23
ATOM     23  C   UNL d   1      14.857  11.902  -0.774  0.00  0.00     0.137 C 
BRANCH  23  24
ATOM     24  O   UNL d   1      14.755  12.380  -0.089  0.00  0.00    -0.325 OA
ATOM     25  C   UNL d   1      14.816  13.196  -0.148  0.00  0.00     0.182 C 
ENDBRANCH  23  24
ENDBRANCH  22  23
ENDBRANCH  21  22
ENDBRANCH   1  19
TORSDOF 7
ENDMDL
MODEL 4
REMARK VINA RESULT:      49.1      2.473      4.968
REMARK  7 active torsions:
REMARK  status: ('A' for Active; 'I' for Inactive)
REMARK    1  A    between atoms: C_2  and  S_1 
REMARK    2  A    between atoms: N_3  and  S_1 
REMARK    3  A    between atoms: C_11  and  N_3 
REMARK    4  A    between atoms: C_4  and  C_7 
REMARK       I    between atoms: N_12  and  C_4 
REMARK    5  A    between atoms: C_22  and  N_12 
REMARK    6  A    between atoms: O_20  and  C_24 
REMARK    7  A    between atoms: C_24  and  C_22 
ROOT
ATOM      1  C   UNL d   1      14.571  16.524  -4.468  0.00  0.00     0.058 A 
ATOM      2  C   UNL d   1      14.017  15.238  -3.603  0.00  0.00     0.094 A 
ATOM      3  C   UNL d   1      14.836  16.401  -3.696  0.00  0.00     0.006 A 
ATOM      4  C   UNL d   1      14.028  16.003  -4.807  0.00  0.00     0.006 A 
ATOM      5  C   UNL d   1      14.560  15.759  -3.264  0.00  0.00     0.020 A 
ATOM      6  C   UNL d   1      13.750  15.360  -4.375  0.00  0.00     0.020 A 
ENDROOT
BRANCH   2   7
ATOM      7  N   UNL d   1      13.740  14.595  -3.171  0.00  0.00    -0.158 NA
BRANCH   7   8
ATOM      8  S   UNL d   1      13.550  13.891  -3.557  0.00  0.00     0.285 S 
ATOM      9  O   UNL d   1      12.801  14.189  -3.732  0.00  0.00    -0.198 OA
ATOM     10  O   UNL d   1      14.299  13.597  -3.381  0.00  0.00    -0.198 OA
BRANCH   8  11
ATOM     11  C   UNL d   1      13.368  13.187  -3.940  0.00  0.00     0.105 A 
ATOM     12  C   UNL d   1      13.326  12.481  -3.520  0.00  0.00     0.012 A 
ATOM     13  C   UNL d   1      13.143  11.779  -3.911  0.00  0.00     0.001 A 
ATOM     14  C   UNL d   1      13.470  12.490  -2.699  0.00  0.00     0.001 C 
ATOM     15  C   UNL d   1      13.002  11.780  -4.719  0.00  0.00     0.000 A 
ATOM     16  C   UNL d   1      13.043  12.487  -5.145  0.00  0.00     0.001 A 
ATOM     17  C   UNL d   1      13.225  13.191  -4.761  0.00  0.00     0.013 A 
ATOM     18  C   UNL d   1      12.899  12.483  -5.968  0.00  0.00     0.000 C 
ENDBRANCH   8  11
ENDBRANCH   7   8
ENDBRANCH   2   7
BRANCH   1  19
ATOM     19  C   UNL d   1      14.848  17.174  -4.911  0.00  0.00     0.279 C 
ATOM     20  O   UNL d   1      15.652  17.354  -4.927  0.00  0.00    -0.265 OA
ATOM     21  N   UNL d   1      14.312  17.633  -5.331  0.00  0.00    -0.204 NA
BRANCH  21  22
ATOM     22  C   UNL d   1      14.583  18.277  -5.770  0.00  0.00     0.128 C 
BRANCH  22  23
ATOM     23  C   UNL d   1      14.407  19.045  -5.530  0.00  0.00     0.137 C 
BRANCH  23  24
ATOM     24  O   UNL d   1      14.319  19.654  -6.104  0.00  0.00    -0.325 OA
ATOM     25  C   UNL d   1      14.563  20.418  -5.929  0.00  0.00     0.182 C 
ENDBRANCH  23  24
ENDBRANCH  22  23
ENDBRANCH  21  22
ENDBRANCH   1  19
TORSDOF 7
ENDMDL
MODEL 5
REMARK VINA RESULT:      49.1      3.034      5.743
REMARK  7 active torsions:
REMARK  status: ('A' for Active; 'I' for Inactive)
REMARK    1  A    between atoms: C_2  and  S_1 
REMARK    2  A    between atoms: N_3  and  S_1 
REMARK    3  A    between atoms: C_11  and  N_3 
REMARK    4  A    between atoms: C_4  and  C_7 
REMARK       I    between atoms: N_12  and  C_4 
REMARK    5  A    between atoms: C_22  and  N_12 
REMARK    6  A    between atoms: O_20  and  C_24 
REMARK    7  A    between atoms: C_24  and  C_22 
ROOT
ATOM      1  C   UNL d   1      15.204  16.411  -2.324  0.00  0.00     0.058 A 
ATOM      2  C   UNL d   1      14.825  15.640  -0.920  0.00  0.00     0.094 A 
ATOM      3  C   UNL d   1      14.610  15.838  -2.315  0.00  0.00     0.006 A 
ATOM      4  C   UNL d   1      15.609  16.599  -1.629  0.00  0.00     0.006 A 
ATOM      5  C   UNL d   1      14.421  15.453  -1.614  0.00  0.00     0.020 A 
ATOM      6  C   UNL d   1      15.419  16.213  -0.927  0.00  0.00     0.020 A 
ENDROOT
BRANCH   2   7
ATOM      7  N   UNL d   1      14.636  15.255  -0.219  0.00  0.00    -0.158 NA
BRANCH   7   8
ATOM      8  S   UNL d   1      14.704  14.434  -0.169  0.00  0.00     0.285 S 
ATOM      9  O   UNL d   1      13.894  14.376  -0.027  0.00  0.00    -0.198 OA
ATOM     10  O   UNL d   1      15.513  14.497  -0.311  0.00  0.00    -0.198 OA
BRANCH   8  11
ATOM     11  C   UNL d   1      14.779  13.617  -0.121  0.00  0.00     0.105 A 
ATOM     12  C   UNL d   1      15.523  13.267  -0.088  0.00  0.00     0.012 A 
ATOM     13  C   UNL d   1      15.590  12.447  -0.040  0.00  0.00     0.001 A 
ATOM     14  C   UNL d   1      16.199  13.753  -0.104  0.00  0.00     0.001 C 
ATOM     15  C   UNL d   1      14.918  11.976  -0.024  0.00  0.00     0.000 A 
ATOM     16  C   UNL d   1      14.169  12.325  -0.057  0.00  0.00     0.001 A 
ATOM     17  C   UNL d   1      14.095  13.142  -0.105  0.00  0.00     0.013 A 
ATOM     18  C   UNL d   1      13.488  11.841  -0.040  0.00  0.00     0.000 C 
ENDBRANCH   8  11
ENDBRANCH   7   8
ENDBRANCH   2   7
BRANCH   1  19
ATOM     19  C   UNL d   1      15.400  16.805  -3.032  0.00  0.00     0.279 C 
ATOM     20  O   UNL d   1      16.124  17.193  -3.106  0.00  0.00    -0.265 OA
ATOM     21  N   UNL d   1      14.865  16.803  -3.656  0.00  0.00    -0.204 NA
BRANCH  21  22
ATOM     22  C   UNL d   1      15.057  17.192  -4.358  0.00  0.00     0.128 C 
BRANCH  22  23
ATOM     23  C   UNL d   1      14.577  17.107  -5.023  0.00  0.00     0.137 C 
BRANCH  23  24
ATOM     24  O   UNL d   1      14.482  17.749  -5.557  0.00  0.00    -0.325 OA
ATOM     25  C   UNL d   1      13.864  17.743  -6.097  0.00  0.00     0.182 C 
ENDBRANCH  23  24
ENDBRANCH  22  23
ENDBRANCH  21  22
ENDBRANCH   1  19
TORSDOF 7
ENDMDL
