MODEL 1
REMARK VINA RESULT:      -1.8      0.000      0.000
REMARK  3 active torsions:
REMARK  status: ('A' for Active; 'I' for Inactive)
REMARK    1  A    between atoms: C_8  and  C_1 
REMARK    2  A    between atoms: N_4  and  C_2 
REMARK       I    between atoms: C_6  and  N_4 
REMARK    3  A    between atoms: C_9  and  C_6 
ROOT
ATOM      1  C   UNL d   1     -43.173-122.480 -49.685  0.00  0.00     0.177 A 
ATOM      2  C   UNL d   1     -42.540-122.941 -49.947  0.00  0.00     0.114 A 
ATOM      3  O   UNL d   1     -43.140-122.438 -48.852  0.00  0.00    -0.301 OA
ATOM      4  C   UNL d   1     -42.112-123.189 -49.288  0.00  0.00     0.043 A 
ATOM      5  C   UNL d   1     -42.491-122.871 -48.601  0.00  0.00     0.102 A 
ATOM      6  C   UNL d   1     -41.440-123.652 -49.209  0.00  0.00     0.004 A 
ATOM      7  C   UNL d   1     -42.179-123.032 -47.861  0.00  0.00     0.025 A 
ATOM      8  C   UNL d   1     -41.123-123.815 -48.461  0.00  0.00     0.000 A 
ATOM      9  C   UNL d   1     -41.483-123.511 -47.792  0.00  0.00     0.002 A 
ENDROOT
BRANCH   2  10
ATOM     10  N   UNL d   1     -42.380-123.117 -50.761  0.00  0.00    -0.206 NA
ATOM     11  C   UNL d   1     -41.770-122.719 -51.150  0.00  0.00     0.279 C 
ATOM     12  O   UNL d   1     -41.299-122.139 -50.758  0.00  0.00    -0.265 OA
BRANCH  11  13
ATOM     13  C   UNL d   1     -41.606-122.885 -51.949  0.00  0.00     0.058 A 
ATOM     14  C   UNL d   1     -41.463-123.645 -52.215  0.00  0.00     0.007 A 
ATOM     15  C   UNL d   1     -41.301-123.789 -53.018  0.00  0.00     0.030 A 
ATOM     16  C   UNL d   1     -41.284-123.161 -53.552  0.00  0.00     0.140 A 
ATOM     17  C   UNL d   1     -41.425-122.400 -53.299  0.00  0.00     0.030 A 
ATOM     18  F   UNL d   1     -41.125-123.292 -54.349  0.00  0.00    -0.204 F 
ATOM     19  C   UNL d   1     -41.588-122.250 -52.497  0.00  0.00     0.007 A 
ENDBRANCH  11  13
ENDBRANCH   2  10
BRANCH   1  20
ATOM     20  C   UNL d   1     -43.725-122.134 -50.187  0.00  0.00     0.321 C 
ATOM     21  O   UNL d   1     -44.355-122.594 -50.497  0.00  0.00    -0.261 OA
ATOM     22  N   UNL d   1     -43.664-121.325 -50.392  0.00  0.00    -0.101 N 
ENDBRANCH   1  20
TORSDOF 3
ENDMDL
MODEL 2
REMARK VINA RESULT:       0.0      1.929      2.731
REMARK  3 active torsions:
REMARK  status: ('A' for Active; 'I' for Inactive)
REMARK    1  A    between atoms: C_8  and  C_1 
REMARK    2  A    between atoms: N_4  and  C_2 
REMARK       I    between atoms: C_6  and  N_4 
REMARK    3  A    between atoms: C_9  and  C_6 
ROOT
ATOM      1  C   UNL d   1     -41.167-121.127 -51.468  0.00  0.00     0.177 A 
ATOM      2  C   UNL d   1     -41.235-121.800 -51.940  0.00  0.00     0.114 A 
ATOM      3  O   UNL d   1     -41.124-121.369 -50.670  0.00  0.00    -0.301 OA
ATOM      4  C   UNL d   1     -41.235-122.460 -51.449  0.00  0.00     0.043 A 
ATOM      5  C   UNL d   1     -41.165-122.188 -50.651  0.00  0.00     0.102 A 
ATOM      6  C   UNL d   1     -41.287-123.264 -51.604  0.00  0.00     0.004 A 
ATOM      7  C   UNL d   1     -41.151-122.733 -50.040  0.00  0.00     0.025 A 
ATOM      8  C   UNL d   1     -41.273-123.817 -50.987  0.00  0.00     0.000 A 
ATOM      9  C   UNL d   1     -41.206-123.561 -50.213  0.00  0.00     0.002 A 
ENDROOT
BRANCH   2  10
ATOM     10  N   UNL d   1     -41.294-121.787 -52.786  0.00  0.00    -0.206 NA
ATOM     11  C   UNL d   1     -41.973-122.080 -53.151  0.00  0.00     0.279 C 
ATOM     12  O   UNL d   1     -42.616-122.393 -52.704  0.00  0.00    -0.265 OA
BRANCH  11  13
ATOM     13  C   UNL d   1     -42.039-122.071 -53.981  0.00  0.00     0.058 A 
ATOM     14  C   UNL d   1     -41.463-122.389 -54.467  0.00  0.00     0.007 A 
ATOM     15  C   UNL d   1     -41.547-122.371 -55.293  0.00  0.00     0.030 A 
ATOM     16  C   UNL d   1     -42.219-122.028 -55.629  0.00  0.00     0.140 A 
ATOM     17  C   UNL d   1     -42.799-121.708 -55.156  0.00  0.00     0.030 A 
ATOM     18  F   UNL d   1     -42.313-122.004 -56.447  0.00  0.00    -0.204 F 
ATOM     19  C   UNL d   1     -42.719-121.725 -54.328  0.00  0.00     0.007 A 
ENDBRANCH  11  13
ENDBRANCH   2  10
BRANCH   1  20
ATOM     20  C   UNL d   1     -41.148-120.359 -51.764  0.00  0.00     0.321 C 
ATOM     21  O   UNL d   1     -41.123-120.232 -52.594  0.00  0.00    -0.261 OA
ATOM     22  N   UNL d   1     -41.154-119.703 -51.245  0.00  0.00    -0.101 N 
ENDBRANCH   1  20
TORSDOF 3
ENDMDL
