MODEL 1
REMARK VINA RESULT:       6.1      0.000      0.000
REMARK  5 active torsions:
REMARK  status: ('A' for Active; 'I' for Inactive)
REMARK    1  A    between atoms: N_7  and  C_1 
REMARK    2  A    between atoms: C_14  and  N_4 
REMARK    3  A    between atoms: S_5  and  N_8 
REMARK    4  A    between atoms: C_13  and  S_5 
REMARK       I    between atoms: C_9  and  N_7 
REMARK    5  A    between atoms: C_15  and  C_9 
ROOT
ATOM      1  N   UNL d   1     -42.558-122.500 -50.914  0.00  0.00    -0.202 NA
ATOM      2  C   UNL d   1     -42.281-123.037 -51.488  0.00  0.00     0.279 C 
ATOM      3  O   UNL d   1     -42.080-123.814 -51.274  0.00  0.00    -0.265 OA
ENDROOT
BRANCH   2   4
ATOM      4  C   UNL d   1     -42.204-122.801 -52.274  0.00  0.00     0.061 A 
ATOM      5  C   UNL d   1     -41.672-123.175 -52.783  0.00  0.00     0.025 A 
ATOM      6  C   UNL d   1     -41.602-122.934 -53.567  0.00  0.00     0.092 A 
ATOM      7  N   UNL d   1     -42.062-122.315 -53.851  0.00  0.00    -0.229 N 
ATOM      8  C   UNL d   1     -42.603-121.929 -53.348  0.00  0.00     0.092 A 
ATOM      9  C   UNL d   1     -42.674-122.169 -52.567  0.00  0.00     0.025 A 
BRANCH   7  10
ATOM     10  S   UNL d   1     -41.988-122.072 -54.648  0.00  0.00     0.271 S 
ATOM     11  O   UNL d   1     -42.494-121.434 -54.501  0.00  0.00    -0.200 OA
ATOM     12  O   UNL d   1     -41.480-122.719 -54.780  0.00  0.00    -0.200 OA
BRANCH  10  13
ATOM     13  C   UNL d   1     -41.909-121.839 -55.435  0.00  0.00     0.104 A 
ATOM     14  C   UNL d   1     -41.203-121.504 -55.699  0.00  0.00     0.013 A 
ATOM     15  C   UNL d   1     -41.124-121.271 -56.486  0.00  0.00     0.001 A 
ATOM     16  C   UNL d   1     -41.755-121.373 -57.012  0.00  0.00     0.000 A 
ATOM     17  C   UNL d   1     -42.465-121.710 -56.749  0.00  0.00     0.001 A 
ATOM     18  C   UNL d   1     -42.541-121.944 -55.954  0.00  0.00     0.013 A 
ENDBRANCH  10  13
ENDBRANCH   7  10
ENDBRANCH   2   4
BRANCH   1  19
ATOM     19  C   UNL d   1     -42.633-122.740 -50.129  0.00  0.00     0.160 A 
ATOM     20  C   UNL d   1     -42.062-122.654 -49.542  0.00  0.00     0.298 A 
ATOM     21  N   UNL d   1     -42.367-122.968 -48.846  0.00  0.00    -0.209 N 
ATOM     22  O   UNL d   1     -41.321-122.315 -49.638  0.00  0.00    -0.263 OA
ATOM     23  N   UNL d   1     -43.123-123.246 -49.004  0.00  0.00    -0.238 N 
ATOM     24  C   UNL d   1     -43.289-123.106 -49.796  0.00  0.00     0.104 A 
ATOM     25  C   UNL d   1     -43.627-123.604 -48.460  0.00  0.00     0.120 C 
ATOM     26  C   UNL d   1     -43.989-123.298 -50.188  0.00  0.00     0.022 C 
BRANCH  21  27
ATOM     27  C   UNL d   1     -41.978-122.996 -48.121  0.00  0.00     0.085 A 
ATOM     28  C   UNL d   1     -41.520-123.653 -47.939  0.00  0.00     0.019 A 
ATOM     29  C   UNL d   1     -41.127-123.687 -47.214  0.00  0.00     0.002 A 
ATOM     30  C   UNL d   1     -41.197-123.060 -46.676  0.00  0.00     0.000 A 
ATOM     31  C   UNL d   1     -41.661-122.401 -46.867  0.00  0.00     0.002 A 
ATOM     32  C   UNL d   1     -42.050-122.370 -47.589  0.00  0.00     0.019 A 
ENDBRANCH  21  27
ENDBRANCH   1  19
TORSDOF 5
ENDMDL
