MODEL 1
REMARK VINA RESULT:      53.0      0.000      0.000
REMARK  4 active torsions:
REMARK  status: ('A' for Active; 'I' for Inactive)
REMARK    1  A    between atoms: N_6  and  C_1 
REMARK    2  A    between atoms: C_10  and  C_2 
REMARK       I    between atoms: C_9  and  N_6 
REMARK    3  A    between atoms: C_11  and  C_9 
REMARK    4  A    between atoms: O_20  and  C_10 
ROOT
ATOM      1  C   UNL d   1     -51.395  25.927  33.353  0.00  0.00     0.119 A 
ATOM      2  C   UNL d   1     -50.576  26.020  33.352  0.00  0.00     0.087 A 
ATOM      3  C   UNL d   1     -50.417  26.824  33.342  0.00  0.00     0.008 A 
ATOM      4  C   UNL d   1     -51.123  27.230  33.337  0.00  0.00     0.028 A 
ATOM      5  S   UNL d   1     -51.738  26.678  33.344  0.00  0.00    -0.070 SA
ATOM      6  C   UNL d   1     -51.133  28.059  33.327  0.00  0.00     0.104 A 
ATOM      7  N   UNL d   1     -50.423  28.474  33.322  0.00  0.00    -0.294 NA
ATOM      8  C   UNL d   1     -49.706  28.063  33.327  0.00  0.00     0.099 A 
ATOM      9  C   UNL d   1     -49.699  27.235  33.337  0.00  0.00    -0.004 A 
ATOM     10  C   UNL d   1     -51.343  28.859  33.318  0.00  0.00     0.029 C 
ATOM     11  C   UNL d   1     -51.927  27.841  33.330  0.00  0.00     0.029 C 
ATOM     12  C   UNL d   1     -48.989  27.651  33.332  0.00  0.00     0.029 C 
ATOM     13  C   UNL d   1     -49.705  28.885  33.317  0.00  0.00     0.029 C 
ENDROOT
BRANCH   1  14
ATOM     14  N   UNL d   1     -51.806  25.210  33.362  0.00  0.00    -0.200 NA
ATOM     15  C   UNL d   1     -52.631  25.208  33.371  0.00  0.00     0.302 C 
ATOM     16  O   UNL d   1     -53.045  25.921  33.371  0.00  0.00    -0.263 OA
BRANCH  15  17
ATOM     17  C   UNL d   1     -53.041  24.494  33.380  0.00  0.00     0.158 A 
ATOM     18  O   UNL d   1     -52.717  23.744  33.310  0.00  0.00    -0.300 OA
ATOM     19  C   UNL d   1     -53.345  23.190  33.349  0.00  0.00     0.123 A 
ATOM     20  C   UNL d   1     -54.040  23.605  33.442  0.00  0.00     0.029 A 
ATOM     21  C   UNL d   1     -53.873  24.419  33.463  0.00  0.00     0.032 A 
ENDBRANCH  15  17
ENDBRANCH   1  14
BRANCH   2  22
ATOM     22  C   UNL d   1     -50.031  25.408  33.359  0.00  0.00     0.298 C 
ATOM     23  O   UNL d   1     -50.304  24.628  33.322  0.00  0.00    -0.259 OA
BRANCH  22  24
ATOM     24  O   UNL d   1     -49.215  25.569  33.402  0.00  0.00    -0.296 OA
ATOM     25  C   UNL d   1     -48.679  24.950  33.481  0.00  0.00     0.185 C 
ENDBRANCH  22  24
ENDBRANCH   2  22
TORSDOF 4
ENDMDL
