MODEL 1
REMARK VINA RESULT:      -1.9      0.000      0.000
REMARK  6 active torsions:
REMARK  status: ('A' for Active; 'I' for Inactive)
REMARK    1  A    between atoms: C_7  and  C_1 
REMARK    2  A    between atoms: N_6  and  C_3 
REMARK    3  A    between atoms: N_8  and  N_6 
REMARK    4  A    between atoms: O_12  and  C_7 
REMARK    5  A    between atoms: C_9  and  N_8 
REMARK    6  A    between atoms: C_18  and  O_12 
ROOT
ATOM      1  C   UNL d   1      32.775  18.688 -23.750  0.00  0.00     0.084 A 
ATOM      2  N   UNL d   1      33.240  19.884 -23.897  0.00  0.00    -0.225 NA
ATOM      3  C   UNL d   1      33.040  19.804 -23.107  0.00  0.00     0.184 A 
ATOM      4  C   UNL d   1      33.072  19.182 -24.297  0.00  0.00     0.088 A 
ATOM      5  C   UNL d   1      32.745  19.039 -23.019  0.00  0.00     0.044 A 
ATOM      6  C   UNL d   1      33.173  18.983 -25.097  0.00  0.00     0.021 C 
ATOM      7  C   UNL d   1      32.472  18.707 -22.312  0.00  0.00     0.003 C 
ENDROOT
BRANCH   3   8
ATOM      8  N   UNL d   1      33.083  20.302 -22.468  0.00  0.00    -0.129 NA
BRANCH   8   9
ATOM      9  N   UNL d   1      33.228  21.116 -22.557  0.00  0.00    -0.147 NA
BRANCH   9  10
ATOM     10  C   UNL d   1      33.201  21.654 -21.916  0.00  0.00     0.103 A 
ATOM     11  C   UNL d   1      33.206  22.465 -22.042  0.00  0.00     0.019 A 
ATOM     12  C   UNL d   1      33.241  22.786 -22.857  0.00  0.00     0.002 C 
ATOM     13  C   UNL d   1      33.180  22.989 -21.419  0.00  0.00     0.002 A 
ATOM     14  C   UNL d   1      33.148  22.695 -20.660  0.00  0.00     0.000 A 
ATOM     15  C   UNL d   1      33.141  21.908 -20.503  0.00  0.00     0.002 A 
ATOM     16  C   UNL d   1      33.168  21.391 -21.135  0.00  0.00     0.021 A 
ENDBRANCH   9  10
ENDBRANCH   8   9
ENDBRANCH   3   8
BRANCH   1  17
ATOM     17  C   UNL d   1      32.530  17.896 -23.939  0.00  0.00     0.302 C 
ATOM     18  O   UNL d   1      33.107  17.279 -23.871  0.00  0.00    -0.259 OA
BRANCH  17  19
ATOM     19  O   UNL d   1      31.765  17.746 -24.177  0.00  0.00    -0.271 OA
BRANCH  19  20
ATOM     20  C   UNL d   1      31.558  16.964 -24.405  0.00  0.00     0.126 C 
ATOM     21  C   UNL d   1      30.779  16.815 -24.688  0.00  0.00     0.029 C 
ENDBRANCH  19  20
ENDBRANCH  17  19
ENDBRANCH   1  17
TORSDOF 6
ENDMDL
MODEL 2
REMARK VINA RESULT:      -1.8      2.363      4.962
REMARK  6 active torsions:
REMARK  status: ('A' for Active; 'I' for Inactive)
REMARK    1  A    between atoms: C_7  and  C_1 
REMARK    2  A    between atoms: N_6  and  C_3 
REMARK    3  A    between atoms: N_8  and  N_6 
REMARK    4  A    between atoms: O_12  and  C_7 
REMARK    5  A    between atoms: C_9  and  N_8 
REMARK    6  A    between atoms: C_18  and  O_12 
ROOT
ATOM      1  C   UNL d   1      32.442  22.115 -20.690  0.00  0.00     0.084 A 
ATOM      2  N   UNL d   1      32.610  21.936 -21.959  0.00  0.00    -0.225 NA
ATOM      3  C   UNL d   1      32.788  21.224 -21.593  0.00  0.00     0.184 A 
ATOM      4  C   UNL d   1      32.393  22.491 -21.388  0.00  0.00     0.088 A 
ATOM      5  C   UNL d   1      32.679  21.345 -20.785  0.00  0.00     0.044 A 
ATOM      6  C   UNL d   1      32.165  23.286 -21.472  0.00  0.00     0.021 C 
ATOM      7  C   UNL d   1      32.794  20.776 -20.194  0.00  0.00     0.003 C 
ENDROOT
BRANCH   3   8
ATOM      8  N   UNL d   1      33.028  20.501 -21.871  0.00  0.00    -0.129 NA
BRANCH   8   9
ATOM      9  N   UNL d   1      32.900  20.270 -22.660  0.00  0.00    -0.147 NA
BRANCH   9  10
ATOM     10  C   UNL d   1      33.016  19.485 -22.927  0.00  0.00     0.103 A 
ATOM     11  C   UNL d   1      33.119  19.319 -23.724  0.00  0.00     0.019 A 
ATOM     12  C   UNL d   1      33.110  19.966 -24.316  0.00  0.00     0.002 C 
ATOM     13  C   UNL d   1      33.231  18.556 -23.985  0.00  0.00     0.002 A 
ATOM     14  C   UNL d   1      33.241  17.952 -23.438  0.00  0.00     0.000 A 
ATOM     15  C   UNL d   1      33.143  18.080 -22.652  0.00  0.00     0.002 A 
ATOM     16  C   UNL d   1      33.031  18.850 -22.401  0.00  0.00     0.021 A 
ENDBRANCH   9  10
ENDBRANCH   8   9
ENDBRANCH   3   8
BRANCH   1  17
ATOM     17  C   UNL d   1      32.261  22.499 -19.953  0.00  0.00     0.302 C 
ATOM     18  O   UNL d   1      31.452  22.506 -19.703  0.00  0.00    -0.259 OA
BRANCH  17  19
ATOM     19  O   UNL d   1      32.852  22.845 -19.511  0.00  0.00    -0.271 OA
BRANCH  19  20
ATOM     20  C   UNL d   1      32.640  23.295 -18.834  0.00  0.00     0.126 C 
ATOM     21  C   UNL d   1      33.240  23.514 -18.286  0.00  0.00     0.029 C 
ENDBRANCH  19  20
ENDBRANCH  17  19
ENDBRANCH   1  17
TORSDOF 6
ENDMDL
MODEL 3
REMARK VINA RESULT:       0.1      1.986      4.794
REMARK  6 active torsions:
REMARK  status: ('A' for Active; 'I' for Inactive)
REMARK    1  A    between atoms: C_7  and  C_1 
REMARK    2  A    between atoms: N_6  and  C_3 
REMARK    3  A    between atoms: N_8  and  N_6 
REMARK    4  A    between atoms: O_12  and  C_7 
REMARK    5  A    between atoms: C_9  and  N_8 
REMARK    6  A    between atoms: C_18  and  O_12 
ROOT
ATOM      1  C   UNL d   1      33.150  21.207 -21.688  0.00  0.00     0.084 A 
ATOM      2  N   UNL d   1      33.212  19.920 -21.586  0.00  0.00    -0.225 NA
ATOM      3  C   UNL d   1      33.207  20.094 -22.387  0.00  0.00     0.184 A 
ATOM      4  C   UNL d   1      33.176  20.621 -21.152  0.00  0.00     0.088 A 
ATOM      5  C   UNL d   1      33.167  20.916 -22.445  0.00  0.00     0.044 A 
ATOM      6  C   UNL d   1      33.166  20.743 -20.330  0.00  0.00     0.021 C 
ATOM      7  C   UNL d   1      33.150  21.348 -23.151  0.00  0.00     0.003 C 
ENDROOT
BRANCH   3   8
ATOM      8  N   UNL d   1      33.232  19.637 -23.056  0.00  0.00    -0.129 NA
BRANCH   8   9
ATOM      9  N   UNL d   1      33.230  18.807 -23.019  0.00  0.00    -0.147 NA
BRANCH   9  10
ATOM     10  C   UNL d   1      33.080  18.323 -23.686  0.00  0.00     0.103 A 
ATOM     11  C   UNL d   1      33.018  17.508 -23.615  0.00  0.00     0.019 A 
ATOM     12  C   UNL d   1      33.108  17.124 -22.832  0.00  0.00     0.002 C 
ATOM     13  C   UNL d   1      32.872  17.037 -24.263  0.00  0.00     0.002 A 
ATOM     14  C   UNL d   1      32.788  17.390 -24.993  0.00  0.00     0.000 A 
ATOM     15  C   UNL d   1      32.843  18.184 -25.097  0.00  0.00     0.002 A 
ATOM     16  C   UNL d   1      32.989  18.647 -24.440  0.00  0.00     0.021 A 
ENDBRANCH   9  10
ENDBRANCH   8   9
ENDBRANCH   3   8
BRANCH   1  17
ATOM     17  C   UNL d   1      33.109  22.026 -21.464  0.00  0.00     0.302 C 
ATOM     18  O   UNL d   1      33.241  22.217 -20.649  0.00  0.00    -0.259 OA
BRANCH  17  19
ATOM     19  O   UNL d   1      32.948  22.600 -22.020  0.00  0.00    -0.271 OA
BRANCH  19  20
ATOM     20  C   UNL d   1      32.651  23.342 -21.761  0.00  0.00     0.126 C 
ATOM     21  C   UNL d   1      32.022  23.701 -22.191  0.00  0.00     0.029 C 
ENDBRANCH  19  20
ENDBRANCH  17  19
ENDBRANCH   1  17
TORSDOF 6
ENDMDL
