MODEL 1
REMARK VINA RESULT:      -8.7      0.000      0.000
REMARK  2 active torsions:
REMARK  status: ('A' for Active; 'I' for Inactive)
REMARK       I    between atoms: N_2  and  C_1 
REMARK    1  A    between atoms: C_4  and  C_1 
REMARK    2  A    between atoms: C_7  and  N_3 
ROOT
ATOM      1  C   UNL d   1      53.391  32.145  53.342  0.00  0.00     0.265 C 
ATOM      2  N   UNL d   1      52.727  32.615  53.215  0.00  0.00    -0.269 N 
ATOM      3  N   UNL d   1      51.397  33.561  52.960  0.00  0.00    -0.301 N 
ATOM      4  C   UNL d   1      52.817  33.434  53.118  0.00  0.00     0.102 A 
ATOM      5  C   UNL d   1      51.978  32.268  53.185  0.00  0.00     0.102 A 
ATOM      6  C   UNL d   1      51.318  32.739  53.058  0.00  0.00     0.100 A 
ATOM      7  C   UNL d   1      52.149  33.901  52.991  0.00  0.00     0.100 A 
ATOM      8  O   UNL d   1      54.143  32.488  53.373  0.00  0.00    -0.267 OA
ENDROOT
BRANCH   1   9
ATOM      9  C   UNL d   1      53.302  31.327  53.439  0.00  0.00     0.059 A 
ATOM     10  C   UNL d   1      53.358  31.000  54.195  0.00  0.00     0.031 A 
ATOM     11  C   UNL d   1      53.270  30.176  54.306  0.00  0.00     0.119 A 
ATOM     12  O   UNL d   1      53.297  29.693  54.977  0.00  0.00    -0.300 OA
ATOM     13  C   UNL d   1      53.124  29.681  53.643  0.00  0.00     0.119 A 
ATOM     14  C   UNL d   1      53.168  28.905  54.737  0.00  0.00     0.304 A 
ATOM     15  O   UNL d   1      53.061  28.896  53.910  0.00  0.00    -0.300 OA
ATOM     16  C   UNL d   1      53.068  30.019  52.880  0.00  0.00     0.026 A 
ATOM     17  C   UNL d   1      53.156  30.832  52.777  0.00  0.00     0.007 A 
ENDBRANCH   1   9
BRANCH   3  18
ATOM     18  C   UNL d   1      50.729  34.029  52.832  0.00  0.00     0.064 A 
ATOM     19  C   UNL d   1      50.396  34.063  52.081  0.00  0.00     0.018 A 
ATOM     20  C   UNL d   1      49.733  34.530  51.960  0.00  0.00     0.013 A 
ATOM     21  C   UNL d   1      49.406  34.959  52.585  0.00  0.00     0.058 A 
ATOM     22  C   UNL d   1      49.749  34.917  53.336  0.00  0.00     0.013 A 
ATOM     23 CL   UNL d   1      48.738  35.427  52.457  0.00  0.00    -0.082 Cl
ATOM     24  C   UNL d   1      50.409  34.452  53.453  0.00  0.00     0.018 A 
ENDBRANCH   3  18
TORSDOF 2
ENDMDL
MODEL 2
REMARK VINA RESULT:      -8.6      2.522      5.024
REMARK  2 active torsions:
REMARK  status: ('A' for Active; 'I' for Inactive)
REMARK       I    between atoms: N_2  and  C_1 
REMARK    1  A    between atoms: C_4  and  C_1 
REMARK    2  A    between atoms: C_7  and  N_3 
ROOT
ATOM      1  C   UNL d   1      51.965  34.160  52.645  0.00  0.00     0.265 C 
ATOM      2  N   UNL d   1      52.204  33.401  52.855  0.00  0.00    -0.269 N 
ATOM      3  N   UNL d   1      52.688  31.878  53.278  0.00  0.00    -0.301 N 
ATOM      4  C   UNL d   1      53.005  33.252  53.011  0.00  0.00     0.102 A 
ATOM      5  C   UNL d   1      51.646  32.795  52.909  0.00  0.00     0.102 A 
ATOM      6  C   UNL d   1      51.887  32.039  53.119  0.00  0.00     0.100 A 
ATOM      7  C   UNL d   1      53.241  32.490  53.222  0.00  0.00     0.100 A 
ATOM      8  O   UNL d   1      52.521  34.770  52.589  0.00  0.00    -0.267 OA
ENDROOT
BRANCH   1   9
ATOM      9  C   UNL d   1      51.165  34.310  52.489  0.00  0.00     0.059 A 
ATOM     10  C   UNL d   1      50.885  34.249  51.716  0.00  0.00     0.031 A 
ATOM     11  C   UNL d   1      50.080  34.397  51.545  0.00  0.00     0.119 A 
ATOM     12  O   UNL d   1      49.641  34.382  50.843  0.00  0.00    -0.300 OA
ATOM     13  C   UNL d   1      49.556  34.610  52.167  0.00  0.00     0.119 A 
ATOM     14  C   UNL d   1      48.852  34.583  51.024  0.00  0.00     0.304 A 
ATOM     15  O   UNL d   1      48.798  34.724  51.845  0.00  0.00    -0.300 OA
ATOM     16  C   UNL d   1      49.847  34.670  52.949  0.00  0.00     0.026 A 
ATOM     17  C   UNL d   1      50.642  34.522  53.111  0.00  0.00     0.007 A 
ENDBRANCH   1   9
BRANCH   3  18
ATOM     18  C   UNL d   1      52.924  31.117  53.489  0.00  0.00     0.064 A 
ATOM     19  C   UNL d   1      52.747  30.485  52.991  0.00  0.00     0.018 A 
ATOM     20  C   UNL d   1      52.984  29.730  53.206  0.00  0.00     0.013 A 
ATOM     21  C   UNL d   1      53.394  29.607  53.911  0.00  0.00     0.058 A 
ATOM     22  C   UNL d   1      53.567  30.249  54.403  0.00  0.00     0.013 A 
ATOM     23 CL   UNL d   1      53.631  28.846  54.121  0.00  0.00    -0.082 Cl
ATOM     24  C   UNL d   1      53.330  30.999  54.188  0.00  0.00     0.018 A 
ENDBRANCH   3  18
TORSDOF 2
ENDMDL
MODEL 3
REMARK VINA RESULT:      -8.6      1.513      2.569
REMARK  2 active torsions:
REMARK  status: ('A' for Active; 'I' for Inactive)
REMARK       I    between atoms: N_2  and  C_1 
REMARK    1  A    between atoms: C_4  and  C_1 
REMARK    2  A    between atoms: C_7  and  N_3 
ROOT
ATOM      1  C   UNL d   1      53.117  32.339  53.522  0.00  0.00     0.265 C 
ATOM      2  N   UNL d   1      52.457  32.777  53.298  0.00  0.00    -0.269 N 
ATOM      3  N   UNL d   1      51.130  33.652  52.847  0.00  0.00    -0.301 N 
ATOM      4  C   UNL d   1      51.808  32.393  52.952  0.00  0.00     0.102 A 
ATOM      5  C   UNL d   1      52.445  33.594  53.420  0.00  0.00     0.102 A 
ATOM      6  C   UNL d   1      51.786  34.028  53.195  0.00  0.00     0.100 A 
ATOM      7  C   UNL d   1      51.148  32.835  52.729  0.00  0.00     0.100 A 
ATOM      8  O   UNL d   1      53.133  31.521  53.403  0.00  0.00    -0.267 OA
ENDROOT
BRANCH   1   9
ATOM      9  C   UNL d   1      53.765  32.723  53.868  0.00  0.00     0.059 A 
ATOM     10  C   UNL d   1      53.765  32.867  54.680  0.00  0.00     0.031 A 
ATOM     11  C   UNL d   1      54.413  33.253  55.041  0.00  0.00     0.119 A 
ATOM     12  O   UNL d   1      54.573  33.472  55.823  0.00  0.00    -0.300 OA
ATOM     13  C   UNL d   1      55.066  33.494  54.572  0.00  0.00     0.119 A 
ATOM     14  C   UNL d   1      55.318  33.845  55.843  0.00  0.00     0.304 A 
ATOM     15  O   UNL d   1      55.625  33.859  55.067  0.00  0.00    -0.300 OA
ATOM     16  C   UNL d   1      55.061  33.345  53.749  0.00  0.00     0.026 A 
ATOM     17  C   UNL d   1      54.419  32.963  53.399  0.00  0.00     0.007 A 
ENDBRANCH   1   9
BRANCH   3  18
ATOM     18  C   UNL d   1      50.470  34.094  52.624  0.00  0.00     0.064 A 
ATOM     19  C   UNL d   1      50.071  34.541  53.188  0.00  0.00     0.018 A 
ATOM     20  C   UNL d   1      49.416  34.978  52.960  0.00  0.00     0.013 A 
ATOM     21  C   UNL d   1      49.161  34.968  52.176  0.00  0.00     0.058 A 
ATOM     22  C   UNL d   1      49.569  34.515  51.617  0.00  0.00     0.013 A 
ATOM     23 CL   UNL d   1      48.501  35.410  51.952  0.00  0.00    -0.082 Cl
ATOM     24  C   UNL d   1      50.221  34.082  51.846  0.00  0.00     0.018 A 
ENDBRANCH   3  18
TORSDOF 2
ENDMDL
MODEL 4
REMARK VINA RESULT:      -7.5      1.994      2.391
REMARK  2 active torsions:
REMARK  status: ('A' for Active; 'I' for Inactive)
REMARK       I    between atoms: N_2  and  C_1 
REMARK    1  A    between atoms: C_4  and  C_1 
REMARK    2  A    between atoms: C_7  and  N_3 
ROOT
ATOM      1  C   UNL d   1      52.816  31.050  52.869  0.00  0.00     0.265 C 
ATOM      2  N   UNL d   1      52.863  31.820  53.154  0.00  0.00    -0.269 N 
ATOM      3  N   UNL d   1      52.956  33.369  53.724  0.00  0.00    -0.301 N 
ATOM      4  C   UNL d   1      52.540  32.442  52.711  0.00  0.00     0.102 A 
ATOM      5  C   UNL d   1      53.231  31.968  53.879  0.00  0.00     0.102 A 
ATOM      6  C   UNL d   1      53.277  32.737  54.160  0.00  0.00     0.100 A 
ATOM      7  C   UNL d   1      52.589  33.213  53.001  0.00  0.00     0.100 A 
ATOM      8  O   UNL d   1      52.448  30.897  52.144  0.00  0.00    -0.267 OA
ENDROOT
BRANCH   1   9
ATOM      9  C   UNL d   1      53.139  30.428  53.312  0.00  0.00     0.059 A 
ATOM     10  C   UNL d   1      52.669  30.039  53.867  0.00  0.00     0.031 A 
ATOM     11  C   UNL d   1      52.982  29.410  54.319  0.00  0.00     0.119 A 
ATOM     12  O   UNL d   1      52.659  28.922  54.905  0.00  0.00    -0.300 OA
ATOM     13  C   UNL d   1      53.781  29.175  54.206  0.00  0.00     0.119 A 
ATOM     14  C   UNL d   1      53.249  28.388  55.155  0.00  0.00     0.304 A 
ATOM     15  O   UNL d   1      53.946  28.544  54.722  0.00  0.00    -0.300 OA
ATOM     16  C   UNL d   1      54.253  29.574  53.642  0.00  0.00     0.026 A 
ATOM     17  C   UNL d   1      53.937  30.193  53.198  0.00  0.00     0.007 A 
ENDBRANCH   1   9
BRANCH   3  18
ATOM     18  C   UNL d   1      53.005  34.140  54.013  0.00  0.00     0.064 A 
ATOM     19  C   UNL d   1      53.252  34.267  54.788  0.00  0.00     0.018 A 
ATOM     20  C   UNL d   1      53.299  35.036  55.069  0.00  0.00     0.013 A 
ATOM     21  C   UNL d   1      53.101  35.671  54.581  0.00  0.00     0.058 A 
ATOM     22  C   UNL d   1      52.854  35.531  53.805  0.00  0.00     0.013 A 
ATOM     23 CL   UNL d   1      53.150  36.442  54.870  0.00  0.00    -0.082 Cl
ATOM     24  C   UNL d   1      52.808  34.766  53.527  0.00  0.00     0.018 A 
ENDBRANCH   3  18
TORSDOF 2
ENDMDL
MODEL 5
REMARK VINA RESULT:      -7.4      2.330      3.330
REMARK  2 active torsions:
REMARK  status: ('A' for Active; 'I' for Inactive)
REMARK       I    between atoms: N_2  and  C_1 
REMARK    1  A    between atoms: C_4  and  C_1 
REMARK    2  A    between atoms: C_7  and  N_3 
ROOT
ATOM      1  C   UNL d   1      51.424  33.995  52.373  0.00  0.00     0.265 C 
ATOM      2  N   UNL d   1      50.700  34.368  52.493  0.00  0.00    -0.269 N 
ATOM      3  N   UNL d   1      49.246  35.117  52.731  0.00  0.00    -0.301 N 
ATOM      4  C   UNL d   1      50.106  34.304  51.919  0.00  0.00     0.102 A 
ATOM      5  C   UNL d   1      50.572  34.803  53.184  0.00  0.00     0.102 A 
ATOM      6  C   UNL d   1      49.850  35.174  53.301  0.00  0.00     0.100 A 
ATOM      7  C   UNL d   1      49.382  34.680  52.043  0.00  0.00     0.100 A 
ATOM      8  O   UNL d   1      51.557  33.559  51.683  0.00  0.00    -0.267 OA
ENDROOT
BRANCH   1   9
ATOM      9  C   UNL d   1      52.019  34.059  52.947  0.00  0.00     0.059 A 
ATOM     10  C   UNL d   1      52.194  33.408  53.423  0.00  0.00     0.031 A 
ATOM     11  C   UNL d   1      52.791  33.460  54.006  0.00  0.00     0.119 A 
ATOM     12  O   UNL d   1      53.089  32.917  54.556  0.00  0.00    -0.300 OA
ATOM     13  C   UNL d   1      53.214  34.179  54.104  0.00  0.00     0.119 A 
ATOM     14  C   UNL d   1      53.691  33.293  54.994  0.00  0.00     0.304 A 
ATOM     15  O   UNL d   1      53.770  34.076  54.714  0.00  0.00    -0.300 OA
ATOM     16  C   UNL d   1      53.032  34.835  53.618  0.00  0.00     0.026 A 
ATOM     17  C   UNL d   1      52.441  34.778  53.045  0.00  0.00     0.007 A 
ENDBRANCH   1   9
BRANCH   3  18
ATOM     18  C   UNL d   1      48.522  35.492  52.855  0.00  0.00     0.064 A 
ATOM     19  C   UNL d   1      47.979  35.538  52.238  0.00  0.00     0.018 A 
ATOM     20  C   UNL d   1      47.261  35.912  52.367  0.00  0.00     0.013 A 
ATOM     21  C   UNL d   1      47.087  36.238  53.105  0.00  0.00     0.058 A 
ATOM     22  C   UNL d   1      47.640  36.185  53.717  0.00  0.00     0.013 A 
ATOM     23 CL   UNL d   1      46.363  36.613  53.228  0.00  0.00    -0.082 Cl
ATOM     24  C   UNL d   1      48.354  35.813  53.587  0.00  0.00     0.018 A 
ENDBRANCH   3  18
TORSDOF 2
ENDMDL
MODEL 6
REMARK VINA RESULT:      -6.9      3.658      6.318
REMARK  2 active torsions:
REMARK  status: ('A' for Active; 'I' for Inactive)
REMARK       I    between atoms: N_2  and  C_1 
REMARK    1  A    between atoms: C_4  and  C_1 
REMARK    2  A    between atoms: C_7  and  N_3 
ROOT
ATOM      1  C   UNL d   1      48.213  35.090  51.467  0.00  0.00     0.265 C 
ATOM      2  N   UNL d   1      48.916  34.846  51.817  0.00  0.00    -0.269 N 
ATOM      3  N   UNL d   1      50.330  34.353  52.517  0.00  0.00    -0.301 N 
ATOM      4  C   UNL d   1      49.470  34.420  51.370  0.00  0.00     0.102 A 
ATOM      5  C   UNL d   1      49.065  35.026  52.609  0.00  0.00     0.102 A 
ATOM      6  C   UNL d   1      49.767  34.780  52.956  0.00  0.00     0.100 A 
ATOM      7  C   UNL d   1      50.174  34.177  51.725  0.00  0.00     0.100 A 
ATOM      8  O   UNL d   1      48.060  34.913  50.674  0.00  0.00    -0.267 OA
ENDROOT
BRANCH   1   9
ATOM      9  C   UNL d   1      47.659  35.516  51.913  0.00  0.00     0.059 A 
ATOM     10  C   UNL d   1      46.930  35.171  52.090  0.00  0.00     0.031 A 
ATOM     11  C   UNL d   1      46.363  35.590  52.539  0.00  0.00     0.119 A 
ATOM     12  O   UNL d   1      45.601  35.400  52.801  0.00  0.00    -0.300 OA
ATOM     13  C   UNL d   1      46.538  36.365  52.810  0.00  0.00     0.119 A 
ATOM     14  C   UNL d   1      45.304  36.049  53.232  0.00  0.00     0.304 A 
ATOM     15  O   UNL d   1      45.884  36.649  53.238  0.00  0.00    -0.300 OA
ATOM     16  C   UNL d   1      47.278  36.709  52.628  0.00  0.00     0.026 A 
ATOM     17  C   UNL d   1      47.834  36.291  52.184  0.00  0.00     0.007 A 
ENDBRANCH   1   9
BRANCH   3  18
ATOM     18  C   UNL d   1      51.034  34.110  52.871  0.00  0.00     0.064 A 
ATOM     19  C   UNL d   1      51.715  34.560  52.769  0.00  0.00     0.018 A 
ATOM     20  C   UNL d   1      52.412  34.313  53.124  0.00  0.00     0.013 A 
ATOM     21  C   UNL d   1      52.429  33.622  53.575  0.00  0.00     0.058 A 
ATOM     22  C   UNL d   1      51.738  33.177  53.669  0.00  0.00     0.013 A 
ATOM     23 CL   UNL d   1      53.133  33.378  53.928  0.00  0.00    -0.082 Cl
ATOM     24  C   UNL d   1      51.046  33.425  53.316  0.00  0.00     0.018 A 
ENDBRANCH   3  18
TORSDOF 2
ENDMDL
MODEL 7
REMARK VINA RESULT:      -6.9      2.780      5.019
REMARK  2 active torsions:
REMARK  status: ('A' for Active; 'I' for Inactive)
REMARK       I    between atoms: N_2  and  C_1 
REMARK    1  A    between atoms: C_4  and  C_1 
REMARK    2  A    between atoms: C_7  and  N_3 
ROOT
ATOM      1  C   UNL d   1      52.434  33.407  52.837  0.00  0.00     0.265 C 
ATOM      2  N   UNL d   1      52.608  32.650  53.109  0.00  0.00    -0.269 N 
ATOM      3  N   UNL d   1      52.954  31.129  53.653  0.00  0.00    -0.301 N 
ATOM      4  C   UNL d   1      52.312  31.990  52.702  0.00  0.00     0.102 A 
ATOM      5  C   UNL d   1      53.073  32.554  53.785  0.00  0.00     0.102 A 
ATOM      6  C   UNL d   1      53.245  31.797  54.054  0.00  0.00     0.100 A 
ATOM      7  C   UNL d   1      52.489  31.233  52.979  0.00  0.00     0.100 A 
ATOM      8  O   UNL d   1      51.968  33.509  52.161  0.00  0.00    -0.267 OA
ENDROOT
BRANCH   1   9
ATOM      9  C   UNL d   1      52.729  34.067  53.243  0.00  0.00     0.059 A 
ATOM     10  C   UNL d   1      52.233  34.482  53.755  0.00  0.00     0.031 A 
ATOM     11  C   UNL d   1      52.518  35.149  54.171  0.00  0.00     0.119 A 
ATOM     12  O   UNL d   1      52.166  35.669  54.710  0.00  0.00    -0.300 OA
ATOM     13  C   UNL d   1      53.314  35.396  54.064  0.00  0.00     0.119 A 
ATOM     14  C   UNL d   1      52.735  36.234  54.938  0.00  0.00     0.304 A 
ATOM     15  O   UNL d   1      53.448  36.065  54.538  0.00  0.00    -0.300 OA
ATOM     16  C   UNL d   1      53.812  34.970  53.544  0.00  0.00     0.026 A 
ATOM     17  C   UNL d   1      53.525  34.313  53.137  0.00  0.00     0.007 A 
ENDBRANCH   1   9
BRANCH   3  18
ATOM     18  C   UNL d   1      53.130  30.371  53.929  0.00  0.00     0.064 A 
ATOM     19  C   UNL d   1      53.364  29.790  53.395  0.00  0.00     0.018 A 
ATOM     20  C   UNL d   1      53.538  29.039  53.675  0.00  0.00     0.013 A 
ATOM     21  C   UNL d   1      53.478  28.870  54.480  0.00  0.00     0.058 A 
ATOM     22  C   UNL d   1      53.241  29.462  55.008  0.00  0.00     0.013 A 
ATOM     23 CL   UNL d   1      53.654  28.113  54.756  0.00  0.00    -0.082 Cl
ATOM     24  C   UNL d   1      53.069  30.208  54.727  0.00  0.00     0.018 A 
ENDBRANCH   3  18
TORSDOF 2
ENDMDL
