MODEL 1
REMARK VINA RESULT:      -8.4      0.000      0.000
REMARK  2 active torsions:
REMARK  status: ('A' for Active; 'I' for Inactive)
REMARK    1  A    between atoms: N_9  and  C_3 
REMARK    2  A    between atoms: C_11  and  C_4 
ROOT
ATOM      1  N   UNL d   1      52.914  33.908  53.754  0.00  0.00    -0.196 N 
ATOM      2  C   UNL d   1      52.237  33.820  53.245  0.00  0.00     0.167 A 
ATOM      3  C   UNL d   1      53.367  33.258  53.913  0.00  0.00     0.152 A 
ATOM      4  C   UNL d   1      51.770  34.461  53.075  0.00  0.00     0.057 A 
ATOM      5  N   UNL d   1      52.613  35.291  53.893  0.00  0.00    -0.161 NA
ATOM      6  N   UNL d   1      52.058  33.088  52.929  0.00  0.00    -0.227 NA
ATOM      7  C   UNL d   1      53.195  32.516  53.599  0.00  0.00     0.057 A 
ATOM      8  C   UNL d   1      51.957  35.206  53.400  0.00  0.00     0.124 A 
ATOM      9  C   UNL d   1      52.529  32.430  53.098  0.00  0.00     0.086 A 
ATOM     10  C   UNL d   1      52.341  31.659  52.765  0.00  0.00     0.021 C 
ENDROOT
BRANCH   4  11
ATOM     11  C   UNL d   1      51.114  34.376  52.582  0.00  0.00     0.005 A 
ATOM     12  C   UNL d   1      50.371  34.299  52.906  0.00  0.00     0.001 A 
ATOM     13  C   UNL d   1      49.725  34.215  52.421  0.00  0.00     0.011 A 
ATOM     14  C   UNL d   1      49.814  34.207  51.604  0.00  0.00     0.058 A 
ATOM     15  C   UNL d   1      50.558  34.283  51.280  0.00  0.00     0.011 A 
ATOM     16 CL   UNL d   1      49.126  34.117  51.087  0.00  0.00    -0.082 Cl
ATOM     17  C   UNL d   1      51.214  34.369  51.773  0.00  0.00     0.001 A 
ENDBRANCH   4  11
BRANCH   3  18
ATOM     18  N   UNL d   1      54.051  33.343  54.426  0.00  0.00    -0.289 N 
ATOM     19  C   UNL d   1      54.821  33.529  54.096  0.00  0.00     0.082 A 
ATOM     20  C   UNL d   1      55.501  33.614  54.601  0.00  0.00     0.019 A 
ATOM     21  C   UNL d   1      55.420  33.513  55.454  0.00  0.00     0.003 A 
ATOM     22  C   UNL d   1      54.645  33.327  55.779  0.00  0.00     0.019 A 
ATOM     23  C   UNL d   1      53.965  33.242  55.274  0.00  0.00     0.082 A 
ENDBRANCH   3  18
TORSDOF 2
ENDMDL
MODEL 2
REMARK VINA RESULT:      -7.1      2.026      3.468
REMARK  2 active torsions:
REMARK  status: ('A' for Active; 'I' for Inactive)
REMARK    1  A    between atoms: N_9  and  C_3 
REMARK    2  A    between atoms: C_11  and  C_4 
ROOT
ATOM      1  N   UNL d   1      52.849  32.186  53.616  0.00  0.00    -0.196 N 
ATOM      2  C   UNL d   1      53.056  32.991  53.795  0.00  0.00     0.167 A 
ATOM      3  C   UNL d   1      53.436  31.633  53.581  0.00  0.00     0.152 A 
ATOM      4  C   UNL d   1      52.479  33.561  53.834  0.00  0.00     0.057 A 
ATOM      5  N   UNL d   1      51.482  32.571  53.523  0.00  0.00    -0.161 NA
ATOM      6  N   UNL d   1      53.837  33.191  53.928  0.00  0.00    -0.227 NA
ATOM      7  C   UNL d   1      54.227  31.823  53.714  0.00  0.00     0.057 A 
ATOM      8  C   UNL d   1      51.683  33.352  53.697  0.00  0.00     0.124 A 
ATOM      9  C   UNL d   1      54.431  32.617  53.891  0.00  0.00     0.086 A 
ATOM     10  C   UNL d   1      55.253  32.826  54.031  0.00  0.00     0.021 C 
ENDROOT
BRANCH   4  11
ATOM     11  C   UNL d   1      52.680  34.342  54.008  0.00  0.00     0.005 A 
ATOM     12  C   UNL d   1      52.827  34.867  53.403  0.00  0.00     0.001 A 
ATOM     13  C   UNL d   1      53.024  35.635  53.574  0.00  0.00     0.011 A 
ATOM     14  C   UNL d   1      53.078  35.891  54.353  0.00  0.00     0.058 A 
ATOM     15  C   UNL d   1      52.931  35.365  54.959  0.00  0.00     0.011 A 
ATOM     16 CL   UNL d   1      53.289  36.709  54.536  0.00  0.00    -0.082 Cl
ATOM     17  C   UNL d   1      52.730  34.583  54.785  0.00  0.00     0.001 A 
ENDBRANCH   4  11
BRANCH   3  18
ATOM     18  N   UNL d   1      53.231  30.817  53.400  0.00  0.00    -0.289 N 
ATOM     19  C   UNL d   1      53.230  30.223  54.018  0.00  0.00     0.082 A 
ATOM     20  C   UNL d   1      53.027  29.415  53.842  0.00  0.00     0.019 A 
ATOM     21  C   UNL d   1      52.820  29.187  53.036  0.00  0.00     0.003 A 
ATOM     22  C   UNL d   1      52.823  29.789  52.421  0.00  0.00     0.019 A 
ATOM     23  C   UNL d   1      53.026  30.597  52.596  0.00  0.00     0.082 A 
ENDBRANCH   3  18
TORSDOF 2
ENDMDL
MODEL 3
REMARK VINA RESULT:      -6.9      1.871      4.338
REMARK  2 active torsions:
REMARK  status: ('A' for Active; 'I' for Inactive)
REMARK    1  A    between atoms: N_9  and  C_3 
REMARK    2  A    between atoms: C_11  and  C_4 
ROOT
ATOM      1  N   UNL d   1      51.831  34.311  53.262  0.00  0.00    -0.196 N 
ATOM      2  C   UNL d   1      52.537  34.025  53.641  0.00  0.00     0.167 A 
ATOM      3  C   UNL d   1      51.396  33.799  52.814  0.00  0.00     0.152 A 
ATOM      4  C   UNL d   1      52.986  34.526  54.095  0.00  0.00     0.057 A 
ATOM      5  N   UNL d   1      52.068  35.599  53.819  0.00  0.00    -0.161 NA
ATOM      6  N   UNL d   1      52.761  33.246  53.548  0.00  0.00    -0.227 NA
ATOM      7  C   UNL d   1      51.614  33.011  52.713  0.00  0.00     0.057 A 
ATOM      8  C   UNL d   1      52.753  35.321  54.187  0.00  0.00     0.124 A 
ATOM      9  C   UNL d   1      52.309  32.729  53.087  0.00  0.00     0.086 A 
ATOM     10  C   UNL d   1      52.545  31.908  52.989  0.00  0.00     0.021 C 
ENDROOT
BRANCH   4  11
ATOM     11  C   UNL d   1      53.670  34.248  54.463  0.00  0.00     0.005 A 
ATOM     12  C   UNL d   1      53.630  33.946  55.219  0.00  0.00     0.001 A 
ATOM     13  C   UNL d   1      54.303  33.673  55.581  0.00  0.00     0.011 A 
ATOM     14  C   UNL d   1      55.027  33.698  55.193  0.00  0.00     0.058 A 
ATOM     15  C   UNL d   1      55.067  34.001  54.437  0.00  0.00     0.011 A 
ATOM     16 CL   UNL d   1      55.745  33.407  55.579  0.00  0.00    -0.082 Cl
ATOM     17  C   UNL d   1      54.383  34.278  54.069  0.00  0.00     0.001 A 
ENDBRANCH   4  11
BRANCH   3  18
ATOM     18  N   UNL d   1      50.682  34.085  52.429  0.00  0.00    -0.289 N 
ATOM     19  C   UNL d   1      49.991  34.289  52.893  0.00  0.00     0.082 A 
ATOM     20  C   UNL d   1      49.282  34.572  52.516  0.00  0.00     0.019 A 
ATOM     21  C   UNL d   1      49.255  34.656  51.658  0.00  0.00     0.003 A 
ATOM     22  C   UNL d   1      49.952  34.449  51.197  0.00  0.00     0.019 A 
ATOM     23  C   UNL d   1      50.660  34.166  51.575  0.00  0.00     0.082 A 
ENDBRANCH   3  18
TORSDOF 2
ENDMDL
MODEL 4
REMARK VINA RESULT:      -6.6      2.068      3.570
REMARK  2 active torsions:
REMARK  status: ('A' for Active; 'I' for Inactive)
REMARK    1  A    between atoms: N_9  and  C_3 
REMARK    2  A    between atoms: C_11  and  C_4 
ROOT
ATOM      1  N   UNL d   1      53.232  33.260  53.898  0.00  0.00    -0.196 N 
ATOM      2  C   UNL d   1      53.003  32.469  53.684  0.00  0.00     0.167 A 
ATOM      3  C   UNL d   1      52.678  33.846  53.869  0.00  0.00     0.152 A 
ATOM      4  C   UNL d   1      53.546  31.867  53.707  0.00  0.00     0.057 A 
ATOM      5  N   UNL d   1      54.553  32.795  54.150  0.00  0.00    -0.161 NA
ATOM      6  N   UNL d   1      52.234  32.316  53.454  0.00  0.00    -0.227 NA
ATOM      7  C   UNL d   1      51.900  33.703  53.639  0.00  0.00     0.057 A 
ATOM      8  C   UNL d   1      54.331  32.028  53.942  0.00  0.00     0.124 A 
ATOM      9  C   UNL d   1      51.674  32.924  53.428  0.00  0.00     0.086 A 
ATOM     10  C   UNL d   1      50.864  32.764  53.186  0.00  0.00     0.021 C 
ENDROOT
BRANCH   4  11
ATOM     11  C   UNL d   1      53.324  31.100  53.500  0.00  0.00     0.005 A 
ATOM     12  C   UNL d   1      53.171  30.551  54.082  0.00  0.00     0.001 A 
ATOM     13  C   UNL d   1      52.952  29.797  53.878  0.00  0.00     0.011 A 
ATOM     14  C   UNL d   1      52.883  29.580  53.088  0.00  0.00     0.058 A 
ATOM     15  C   UNL d   1      53.036  30.129  52.506  0.00  0.00     0.011 A 
ATOM     16 CL   UNL d   1      52.650  28.776  52.870  0.00  0.00    -0.082 Cl
ATOM     17  C   UNL d   1      53.259  30.896  52.714  0.00  0.00     0.001 A 
ENDBRANCH   4  11
BRANCH   3  18
ATOM     18  N   UNL d   1      52.906  34.647  54.084  0.00  0.00    -0.289 N 
ATOM     19  C   UNL d   1      52.829  34.916  54.895  0.00  0.00     0.082 A 
ATOM     20  C   UNL d   1      53.054  35.708  55.112  0.00  0.00     0.019 A 
ATOM     21  C   UNL d   1      53.363  36.248  54.515  0.00  0.00     0.003 A 
ATOM     22  C   UNL d   1      53.437  35.971  53.703  0.00  0.00     0.019 A 
ATOM     23  C   UNL d   1      53.213  35.180  53.486  0.00  0.00     0.082 A 
ENDBRANCH   3  18
TORSDOF 2
ENDMDL
MODEL 5
REMARK VINA RESULT:      -6.2      2.516      4.492
REMARK  2 active torsions:
REMARK  status: ('A' for Active; 'I' for Inactive)
REMARK    1  A    between atoms: N_9  and  C_3 
REMARK    2  A    between atoms: C_11  and  C_4 
ROOT
ATOM      1  N   UNL d   1      52.869  32.286  53.457  0.00  0.00    -0.196 N 
ATOM      2  C   UNL d   1      53.136  31.560  53.813  0.00  0.00     0.167 A 
ATOM      3  C   UNL d   1      53.056  32.985  53.815  0.00  0.00     0.152 A 
ATOM      4  C   UNL d   1      52.958  30.848  53.467  0.00  0.00     0.057 A 
ATOM      5  N   UNL d   1      52.255  31.534  52.416  0.00  0.00    -0.161 NA
ATOM      6  N   UNL d   1      53.571  31.581  54.504  0.00  0.00    -0.227 NA
ATOM      7  C   UNL d   1      53.494  33.017  54.512  0.00  0.00     0.057 A 
ATOM      8  C   UNL d   1      52.513  30.831  52.761  0.00  0.00     0.124 A 
ATOM      9  C   UNL d   1      53.756  32.303  54.863  0.00  0.00     0.086 A 
ATOM     10  C   UNL d   1      54.215  32.326  55.590  0.00  0.00     0.021 C 
ENDROOT
BRANCH   4  11
ATOM     11  C   UNL d   1      53.216  30.144  53.812  0.00  0.00     0.005 A 
ATOM     12  C   UNL d   1      53.932  29.824  53.591  0.00  0.00     0.001 A 
ATOM     13  C   UNL d   1      54.186  29.131  53.930  0.00  0.00     0.011 A 
ATOM     14  C   UNL d   1      53.728  28.749  54.496  0.00  0.00     0.058 A 
ATOM     15  C   UNL d   1      53.012  29.071  54.717  0.00  0.00     0.011 A 
ATOM     16 CL   UNL d   1      53.999  28.012  54.858  0.00  0.00    -0.082 Cl
ATOM     17  C   UNL d   1      52.754  29.774  54.372  0.00  0.00     0.001 A 
ENDBRANCH   4  11
BRANCH   3  18
ATOM     18  N   UNL d   1      52.788  33.720  53.458  0.00  0.00    -0.289 N 
ATOM     19  C   UNL d   1      51.978  33.982  53.562  0.00  0.00     0.082 A 
ATOM     20  C   UNL d   1      51.710  34.710  53.210  0.00  0.00     0.019 A 
ATOM     21  C   UNL d   1      52.254  35.191  52.745  0.00  0.00     0.003 A 
ATOM     22  C   UNL d   1      53.066  34.922  52.645  0.00  0.00     0.019 A 
ATOM     23  C   UNL d   1      53.334  34.195  52.997  0.00  0.00     0.082 A 
ENDBRANCH   3  18
TORSDOF 2
ENDMDL
MODEL 6
REMARK VINA RESULT:      -6.0      0.708      1.736
REMARK  2 active torsions:
REMARK  status: ('A' for Active; 'I' for Inactive)
REMARK    1  A    between atoms: N_9  and  C_3 
REMARK    2  A    between atoms: C_11  and  C_4 
ROOT
ATOM      1  N   UNL d   1      53.005  33.811  53.818  0.00  0.00    -0.196 N 
ATOM      2  C   UNL d   1      52.284  34.089  53.462  0.00  0.00     0.167 A 
ATOM      3  C   UNL d   1      53.395  34.295  54.333  0.00  0.00     0.152 A 
ATOM      4  C   UNL d   1      51.878  33.616  52.942  0.00  0.00     0.057 A 
ATOM      5  N   UNL d   1      52.871  32.587  53.104  0.00  0.00    -0.161 NA
ATOM      6  N   UNL d   1      52.000  34.833  53.644  0.00  0.00    -0.227 NA
ATOM      7  C   UNL d   1      53.118  35.047  54.524  0.00  0.00     0.057 A 
ATOM      8  C   UNL d   1      52.172  32.857  52.758  0.00  0.00     0.124 A 
ATOM      9  C   UNL d   1      52.408  35.321  54.173  0.00  0.00     0.086 A 
ATOM     10  C   UNL d   1      52.109  36.104  54.365  0.00  0.00     0.021 C 
ENDROOT
BRANCH   4  11
ATOM     11  C   UNL d   1      51.179  33.885  52.596  0.00  0.00     0.005 A 
ATOM     12  C   UNL d   1      51.191  34.186  51.839  0.00  0.00     0.001 A 
ATOM     13  C   UNL d   1      50.503  34.452  51.499  0.00  0.00     0.011 A 
ATOM     14  C   UNL d   1      49.793  34.420  51.911  0.00  0.00     0.058 A 
ATOM     15  C   UNL d   1      49.782  34.118  52.669  0.00  0.00     0.011 A 
ATOM     16 CL   UNL d   1      49.060  34.702  51.549  0.00  0.00    -0.082 Cl
ATOM     17  C   UNL d   1      50.481  33.849  53.014  0.00  0.00     0.001 A 
ENDBRANCH   4  11
BRANCH   3  18
ATOM     18  N   UNL d   1      54.124  34.018  54.695  0.00  0.00    -0.289 N 
ATOM     19  C   UNL d   1      54.877  34.141  54.303  0.00  0.00     0.082 A 
ATOM     20  C   UNL d   1      55.601  33.868  54.659  0.00  0.00     0.019 A 
ATOM     21  C   UNL d   1      55.582  33.462  55.420  0.00  0.00     0.003 A 
ATOM     22  C   UNL d   1      54.823  33.341  55.807  0.00  0.00     0.019 A 
ATOM     23  C   UNL d   1      54.099  33.614  55.452  0.00  0.00     0.082 A 
ENDBRANCH   3  18
TORSDOF 2
ENDMDL
