MODEL 1
REMARK VINA RESULT:      -4.1      0.000      0.000
REMARK  8 active torsions:
REMARK  status: ('A' for Active; 'I' for Inactive)
REMARK    1  A    between atoms: C_2  and  S_1 
REMARK    2  A    between atoms: N_3  and  S_1 
REMARK    3  A    between atoms: C_17  and  N_3 
REMARK    4  A    between atoms: O_21  and  C_8 
REMARK    5  A    between atoms: O_22  and  C_16 
REMARK    6  A    between atoms: C_18  and  C_17 
REMARK    7  A    between atoms: C_23  and  O_21 
REMARK    8  A    between atoms: C_24  and  O_22 
ROOT
ATOM      1  S   UNL d   1      58.140   0.059  29.268  0.00  0.00     0.287 S 
ATOM      2  O   UNL d   1      58.206   0.163  28.456  0.00  0.00    -0.198 OA
ATOM      3  O   UNL d   1      57.572   0.681  29.290  0.00  0.00    -0.198 OA
ENDROOT
BRANCH   1   4
ATOM      4  C   UNL d   1      58.705  -0.560  29.253  0.00  0.00     0.130 A 
ATOM      5  C   UNL d   1      58.462  -1.346  29.319  0.00  0.00     0.040 A 
ATOM      6  C   UNL d   1      59.022  -1.943  29.303  0.00  0.00     0.101 A 
ATOM      7  C   UNL d   1      59.818  -1.764  29.222  0.00  0.00     0.027 A 
ATOM      8  C   UNL d   1      60.076  -0.982  29.155  0.00  0.00     0.028 A 
ATOM      9  C   UNL d   1      59.501  -0.381  29.172  0.00  0.00     0.112 A 
BRANCH   6  10
ATOM     10  O   UNL d   1      58.760  -2.749  29.372  0.00  0.00    -0.305 OA
BRANCH  10  11
ATOM     11  C   UNL d   1      58.808  -3.275  28.721  0.00  0.00     0.123 C 
ATOM     12  C   UNL d   1      58.423  -3.999  28.764  0.00  0.00     0.029 C 
ENDBRANCH  10  11
ENDBRANCH   6  10
BRANCH   9  13
ATOM     13  O   UNL d   1      59.762   0.441  29.103  0.00  0.00    -0.304 OA
BRANCH  13  14
ATOM     14  C   UNL d   1      60.562   0.604  28.901  0.00  0.00     0.123 C 
ATOM     15  C   UNL d   1      61.129   0.663  29.501  0.00  0.00     0.029 C 
ENDBRANCH  13  14
ENDBRANCH   9  13
ENDBRANCH   1   4
BRANCH   1  16
ATOM     16  N   UNL d   1      58.063  -0.036  30.100  0.00  0.00    -0.157 NA
BRANCH  16  17
ATOM     17  C   UNL d   1      57.648   0.535  30.556  0.00  0.00     0.112 C 
BRANCH  17  18
ATOM     18  C   UNL d   1      57.421   0.340  31.353  0.00  0.00     0.022 A 
ATOM     19  C   UNL d   1      56.742  -0.123  31.465  0.00  0.00     0.028 A 
ATOM     20  C   UNL d   1      56.516  -0.315  32.236  0.00  0.00     0.119 A 
ATOM     21  O   UNL d   1      55.879  -0.759  32.522  0.00  0.00    -0.300 OA
ATOM     22  C   UNL d   1      56.955  -0.055  32.878  0.00  0.00     0.119 A 
ATOM     23  C   UNL d   1      55.937  -0.763  33.342  0.00  0.00     0.304 A 
ATOM     24  O   UNL d   1      56.589  -0.337  33.562  0.00  0.00    -0.300 OA
ATOM     25  C   UNL d   1      57.627   0.403  32.762  0.00  0.00     0.026 A 
ATOM     26  C   UNL d   1      57.860   0.600  31.995  0.00  0.00     0.004 A 
ENDBRANCH  17  18
ENDBRANCH  16  17
ENDBRANCH   1  16
TORSDOF 8
ENDMDL
