MODEL 1
REMARK VINA RESULT:      91.4      0.000      0.000
REMARK  3 active torsions:
REMARK  status: ('A' for Active; 'I' for Inactive)
REMARK    1  A    between atoms: C_8  and  N_1 
REMARK    2  A    between atoms: C_2  and  C_7 
REMARK    3  A    between atoms: C_7  and  C_9 
ROOT
ATOM      1  N   UNL d   1     -48.440  28.534  35.011  0.00  0.00    -0.242 N 
ATOM      2  C   UNL d   1     -49.100  28.148  35.347  0.00  0.00     0.267 A 
ATOM      3  C   UNL d   1     -48.340  28.235  34.246  0.00  0.00     0.267 A 
ATOM      4  C   UNL d   1     -48.929  27.671  34.105  0.00  0.00     0.062 A 
ATOM      5  C   UNL d   1     -49.398  27.618  34.784  0.00  0.00     0.066 A 
ATOM      6  O   UNL d   1     -49.396  28.278  36.101  0.00  0.00    -0.267 OA
ATOM      7  O   UNL d   1     -47.747  28.466  33.716  0.00  0.00    -0.267 OA
ENDROOT
BRANCH   4   8
ATOM      8  C   UNL d   1     -49.029  27.240  33.410  0.00  0.00     0.018 C 
BRANCH   8   9
ATOM      9  C   UNL d   1     -49.730  26.815  33.389  0.00  0.00     0.045 A 
ATOM     10  N   UNL d   1     -49.803  25.998  33.406  0.00  0.00    -0.308 N 
ATOM     11  C   UNL d   1     -50.599  25.804  33.376  0.00  0.00     0.060 A 
ATOM     12  C   UNL d   1     -49.176  25.460  33.446  0.00  0.00     0.099 C 
ATOM     13  C   UNL d   1     -50.990  25.085  33.376  0.00  0.00     0.017 A 
ATOM     14  C   UNL d   1     -51.026  26.505  33.341  0.00  0.00    -0.002 A 
ATOM     15  C   UNL d   1     -51.818  25.062  33.341  0.00  0.00     0.002 A 
ATOM     16  C   UNL d   1     -52.242  25.772  33.306  0.00  0.00    -0.000 A 
ATOM     17  C   UNL d   1     -51.851  26.487  33.306  0.00  0.00    -0.003 A 
ATOM     18  C   UNL d   1     -50.489  27.133  33.349  0.00  0.00     0.054 A 
ATOM     19  C   UNL d   1     -51.296  27.321  33.310  0.00  0.00     0.010 C 
ATOM     20  C   UNL d   1     -50.730  27.927  33.320  0.00  0.00     0.010 C 
ENDBRANCH   8   9
ENDBRANCH   4   8
BRANCH   1  21
ATOM     21  C   UNL d   1     -47.976  29.103  35.372  0.00  0.00     0.070 A 
ATOM     22  C   UNL d   1     -48.004  29.891  35.118  0.00  0.00     0.016 A 
ATOM     23  C   UNL d   1     -47.532  30.458  35.487  0.00  0.00     0.001 A 
ATOM     24  C   UNL d   1     -48.497  30.107  34.505  0.00  0.00     0.001 A 
ATOM     25  C   UNL d   1     -47.560  31.239  35.236  0.00  0.00     0.000 A 
ATOM     26  C   UNL d   1     -47.035  30.244  36.104  0.00  0.00     0.000 A 
ATOM     27  C   UNL d   1     -48.054  31.460  34.621  0.00  0.00     0.000 A 
ATOM     28  C   UNL d   1     -48.526  30.888  34.254  0.00  0.00     0.000 A 
ATOM     29  C   UNL d   1     -47.006  29.455  36.358  0.00  0.00     0.002 A 
ATOM     30  C   UNL d   1     -47.475  28.885  35.993  0.00  0.00     0.018 A 
ENDBRANCH   1  21
TORSDOF 3
ENDMDL
