MODEL 1
REMARK VINA RESULT:      34.8      0.000      0.000
REMARK  3 active torsions:
REMARK  status: ('A' for Active; 'I' for Inactive)
REMARK    1  A    between atoms: C_4  and  S_1 
REMARK       I    between atoms: C_2  and  N_3 
REMARK    2  A    between atoms: C_9  and  C_2 
REMARK    3  A    between atoms: N_3  and  C_12 
ROOT
ATOM      1  C   UNL d   1      13.399  12.783  -4.332  0.00  0.00     0.107 A 
ATOM      2  C   UNL d   1      13.520  13.584  -4.465  0.00  0.00     0.015 A 
ATOM      3  C   UNL d   1      13.559  12.458  -3.587  0.00  0.00     0.015 A 
ATOM      4  C   UNL d   1      13.961  13.748  -3.118  0.00  0.00     0.085 A 
ATOM      5  C   UNL d   1      13.844  12.947  -2.972  0.00  0.00     0.020 A 
ATOM      6  C   UNL d   1      13.805  14.073  -3.850  0.00  0.00     0.020 A 
ENDROOT
BRANCH   4   7
ATOM      7  N   UNL d   1      14.249  14.244  -2.495  0.00  0.00    -0.208 NA
ATOM      8  C   UNL d   1      14.648  13.917  -1.853  0.00  0.00     0.279 C 
ATOM      9  O   UNL d   1      14.770  13.084  -1.813  0.00  0.00    -0.265 OA
BRANCH   8  10
ATOM     10  C   UNL d   1      14.928  14.399  -1.247  0.00  0.00     0.058 A 
ATOM     11  C   UNL d   1      14.769  15.231  -1.258  0.00  0.00     0.005 A 
ATOM     12  C   UNL d   1      15.050  15.714  -0.651  0.00  0.00     0.000 A 
ATOM     13  C   UNL d   1      15.497  15.376  -0.018  0.00  0.00     0.000 A 
ATOM     14  C   UNL d   1      15.648  14.565  -0.014  0.00  0.00     0.000 A 
ATOM     15  C   UNL d   1      15.367  14.082  -0.621  0.00  0.00     0.005 A 
ENDBRANCH   8  10
ENDBRANCH   4   7
BRANCH   1  16
ATOM     16  S   UNL d   1      13.112  12.289  -4.953  0.00  0.00     0.302 S 
ATOM     17  O   UNL d   1      13.449  12.807  -5.521  0.00  0.00    -0.197 OA
ATOM     18  O   UNL d   1      12.781  11.780  -4.394  0.00  0.00    -0.197 OA
ATOM     19  N   UNL d   1      12.831  11.806  -5.560  0.00  0.00    -0.043 N 
ENDBRANCH   1  16
TORSDOF 3
ENDMDL
