MODEL 1
REMARK VINA RESULT:      -8.8      0.000      0.000
REMARK  4 active torsions:
REMARK  status: ('A' for Active; 'I' for Inactive)
REMARK    1  A    between atoms: C_7  and  N_2 
REMARK    2  A    between atoms: C_10  and  C_7 
REMARK    3  A    between atoms: O_8  and  C_10 
REMARK    4  A    between atoms: C_9  and  O_8 
ROOT
ATOM      1  C   UNL d   1      54.244  33.522  54.870  0.00  0.00     0.296 A 
ATOM      2  N   UNL d   1      53.951  33.325  54.126  0.00  0.00    -0.266 N 
ATOM      3  S   UNL d   1      53.889  34.247  55.098  0.00  0.00    -0.025 SA
ATOM      4  C   UNL d   1      53.420  33.917  53.892  0.00  0.00     0.074 A 
ATOM      5  C   UNL d   1      53.382  34.482  54.487  0.00  0.00     0.050 A 
ATOM      6  O   UNL d   1      54.786  33.092  55.312  0.00  0.00    -0.259 OA
ATOM      7  C   UNL d   1      52.968  34.005  53.205  0.00  0.00     0.018 A 
ATOM      8  C   UNL d   1      52.892  35.147  54.408  0.00  0.00     0.008 A 
ATOM      9  C   UNL d   1      52.478  34.666  53.122  0.00  0.00     0.002 A 
ATOM     10  C   UNL d   1      52.440  35.230  53.717  0.00  0.00     0.001 A 
ENDROOT
BRANCH   2  11
ATOM     11  C   UNL d   1      54.150  32.654  53.690  0.00  0.00     0.110 C 
BRANCH  11  12
ATOM     12  C   UNL d   1      53.788  31.932  53.846  0.00  0.00     0.142 C 
BRANCH  12  13
ATOM     13  O   UNL d   1      53.963  31.260  53.395  0.00  0.00    -0.304 OA
BRANCH  13  14
ATOM     14  C   UNL d   1      53.522  30.569  53.488  0.00  0.00     0.100 A 
ATOM     15  C   UNL d   1      53.727  30.025  54.074  0.00  0.00     0.025 A 
ATOM     16  C   UNL d   1      53.287  29.338  54.166  0.00  0.00     0.002 A 
ATOM     17  C   UNL d   1      52.642  29.196  53.671  0.00  0.00     0.000 A 
ATOM     18  C   UNL d   1      52.439  29.744  53.084  0.00  0.00     0.002 A 
ATOM     19  C   UNL d   1      52.885  30.430  53.000  0.00  0.00     0.025 A 
ENDBRANCH  13  14
ENDBRANCH  12  13
ENDBRANCH  11  12
ENDBRANCH   2  11
TORSDOF 4
ENDMDL
MODEL 2
REMARK VINA RESULT:      -8.0      2.021      3.883
REMARK  4 active torsions:
REMARK  status: ('A' for Active; 'I' for Inactive)
REMARK    1  A    between atoms: C_7  and  N_2 
REMARK    2  A    between atoms: C_10  and  C_7 
REMARK    3  A    between atoms: O_8  and  C_10 
REMARK    4  A    between atoms: C_9  and  O_8 
ROOT
ATOM      1  C   UNL d   1      53.115  32.126  53.161  0.00  0.00     0.296 A 
ATOM      2  N   UNL d   1      53.145  32.944  53.250  0.00  0.00    -0.266 N 
ATOM      3  S   UNL d   1      53.523  31.786  53.809  0.00  0.00    -0.025 SA
ATOM      4  C   UNL d   1      53.565  33.114  53.944  0.00  0.00     0.074 A 
ATOM      5  C   UNL d   1      53.797  32.404  54.287  0.00  0.00     0.050 A 
ATOM      6  O   UNL d   1      52.753  31.713  52.550  0.00  0.00    -0.259 OA
ATOM      7  C   UNL d   1      53.763  33.833  54.301  0.00  0.00     0.018 A 
ATOM      8  C   UNL d   1      54.231  32.398  54.994  0.00  0.00     0.008 A 
ATOM      9  C   UNL d   1      54.195  33.832  55.006  0.00  0.00     0.002 A 
ATOM     10  C   UNL d   1      54.426  33.122  55.349  0.00  0.00     0.001 A 
ENDROOT
BRANCH   2  11
ATOM     11  C   UNL d   1      52.814  33.499  52.737  0.00  0.00     0.110 C 
BRANCH  11  12
ATOM     12  C   UNL d   1      52.002  33.633  52.735  0.00  0.00     0.142 C 
BRANCH  12  13
ATOM     13  O   UNL d   1      51.678  34.290  52.350  0.00  0.00    -0.304 OA
BRANCH  13  14
ATOM     14  C   UNL d   1      50.860  34.379  52.294  0.00  0.00     0.100 A 
ATOM     15  C   UNL d   1      50.425  34.609  52.956  0.00  0.00     0.025 A 
ATOM     16  C   UNL d   1      49.610  34.697  52.899  0.00  0.00     0.002 A 
ATOM     17  C   UNL d   1      49.233  34.556  52.180  0.00  0.00     0.000 A 
ATOM     18  C   UNL d   1      49.672  34.325  51.517  0.00  0.00     0.002 A 
ATOM     19  C   UNL d   1      50.488  34.239  51.583  0.00  0.00     0.025 A 
ENDBRANCH  13  14
ENDBRANCH  12  13
ENDBRANCH  11  12
ENDBRANCH   2  11
TORSDOF 4
ENDMDL
MODEL 3
REMARK VINA RESULT:      -7.9      1.179      1.633
REMARK  4 active torsions:
REMARK  status: ('A' for Active; 'I' for Inactive)
REMARK    1  A    between atoms: C_7  and  N_2 
REMARK    2  A    between atoms: C_10  and  C_7 
REMARK    3  A    between atoms: O_8  and  C_10 
REMARK    4  A    between atoms: C_9  and  O_8 
ROOT
ATOM      1  C   UNL d   1      52.221  33.734  52.778  0.00  0.00     0.296 A 
ATOM      2  N   UNL d   1      52.894  33.435  53.145  0.00  0.00    -0.266 N 
ATOM      3  S   UNL d   1      52.000  34.434  53.185  0.00  0.00    -0.025 SA
ATOM      4  C   UNL d   1      53.093  33.939  53.773  0.00  0.00     0.074 A 
ATOM      5  C   UNL d   1      52.546  34.550  53.798  0.00  0.00     0.050 A 
ATOM      6  O   UNL d   1      51.831  33.412  52.131  0.00  0.00    -0.259 OA
ATOM      7  C   UNL d   1      53.709  33.908  54.323  0.00  0.00     0.018 A 
ATOM      8  C   UNL d   1      52.602  35.146  54.373  0.00  0.00     0.008 A 
ATOM      9  C   UNL d   1      53.770  34.499  54.898  0.00  0.00     0.002 A 
ATOM     10  C   UNL d   1      53.223  35.111  54.923  0.00  0.00     0.001 A 
ENDROOT
BRANCH   2  11
ATOM     11  C   UNL d   1      53.301  32.751  52.926  0.00  0.00     0.110 C 
BRANCH  11  12
ATOM     12  C   UNL d   1      53.030  32.011  53.163  0.00  0.00     0.142 C 
BRANCH  12  13
ATOM     13  O   UNL d   1      53.407  31.318  52.911  0.00  0.00    -0.304 OA
BRANCH  13  14
ATOM     14  C   UNL d   1      53.222  30.594  53.259  0.00  0.00     0.100 A 
ATOM     15  C   UNL d   1      53.681  30.307  53.883  0.00  0.00     0.025 A 
ATOM     16  C   UNL d   1      53.496  29.586  54.228  0.00  0.00     0.002 A 
ATOM     17  C   UNL d   1      52.853  29.152  53.949  0.00  0.00     0.000 A 
ATOM     18  C   UNL d   1      52.394  29.441  53.324  0.00  0.00     0.002 A 
ATOM     19  C   UNL d   1      52.587  30.165  52.983  0.00  0.00     0.025 A 
ENDBRANCH  13  14
ENDBRANCH  12  13
ENDBRANCH  11  12
ENDBRANCH   2  11
TORSDOF 4
ENDMDL
MODEL 4
REMARK VINA RESULT:      -7.6      1.733      3.953
REMARK  4 active torsions:
REMARK  status: ('A' for Active; 'I' for Inactive)
REMARK    1  A    between atoms: C_7  and  N_2 
REMARK    2  A    between atoms: C_10  and  C_7 
REMARK    3  A    between atoms: O_8  and  C_10 
REMARK    4  A    between atoms: C_9  and  O_8 
ROOT
ATOM      1  C   UNL d   1      53.783  32.600  54.103  0.00  0.00     0.296 A 
ATOM      2  N   UNL d   1      53.337  32.456  53.425  0.00  0.00    -0.266 N 
ATOM      3  S   UNL d   1      53.948  31.859  54.459  0.00  0.00    -0.025 SA
ATOM      4  C   UNL d   1      53.225  31.637  53.358  0.00  0.00     0.074 A 
ATOM      5  C   UNL d   1      53.599  31.271  53.991  0.00  0.00     0.050 A 
ATOM      6  O   UNL d   1      54.024  33.333  54.383  0.00  0.00    -0.259 OA
ATOM      7  C   UNL d   1      52.825  31.185  52.793  0.00  0.00     0.018 A 
ATOM      8  C   UNL d   1      53.582  30.446  54.073  0.00  0.00     0.008 A 
ATOM      9  C   UNL d   1      52.805  30.362  52.871  0.00  0.00     0.002 A 
ATOM     10  C   UNL d   1      53.179  29.997  53.503  0.00  0.00     0.001 A 
ENDROOT
BRANCH   2  11
ATOM     11  C   UNL d   1      53.051  33.028  52.904  0.00  0.00     0.110 C 
BRANCH  11  12
ATOM     12  C   UNL d   1      52.335  33.405  53.051  0.00  0.00     0.142 C 
BRANCH  12  13
ATOM     13  O   UNL d   1      52.074  34.027  52.570  0.00  0.00    -0.304 OA
BRANCH  13  14
ATOM     14  C   UNL d   1      51.270  34.202  52.516  0.00  0.00     0.100 A 
ATOM     15  C   UNL d   1      50.854  34.438  53.188  0.00  0.00     0.025 A 
ATOM     16  C   UNL d   1      50.053  34.612  53.133  0.00  0.00     0.002 A 
ATOM     17  C   UNL d   1      49.670  34.549  52.406  0.00  0.00     0.000 A 
ATOM     18  C   UNL d   1      50.090  34.312  51.733  0.00  0.00     0.002 A 
ATOM     19  C   UNL d   1      50.892  34.139  51.797  0.00  0.00     0.025 A 
ENDBRANCH  13  14
ENDBRANCH  12  13
ENDBRANCH  11  12
ENDBRANCH   2  11
TORSDOF 4
ENDMDL
MODEL 5
REMARK VINA RESULT:      -6.9      1.448      4.430
REMARK  4 active torsions:
REMARK  status: ('A' for Active; 'I' for Inactive)
REMARK    1  A    between atoms: C_7  and  N_2 
REMARK    2  A    between atoms: C_10  and  C_7 
REMARK    3  A    between atoms: O_8  and  C_10 
REMARK    4  A    between atoms: C_9  and  O_8 
ROOT
ATOM      1  C   UNL d   1      52.872  30.947  52.754  0.00  0.00     0.296 A 
ATOM      2  N   UNL d   1      53.399  31.054  53.377  0.00  0.00    -0.266 N 
ATOM      3  S   UNL d   1      52.529  30.186  52.840  0.00  0.00    -0.025 SA
ATOM      4  C   UNL d   1      53.386  30.370  53.847  0.00  0.00     0.074 A 
ATOM      5  C   UNL d   1      52.853  29.839  53.519  0.00  0.00     0.050 A 
ATOM      6  O   UNL d   1      52.708  31.483  52.154  0.00  0.00    -0.259 OA
ATOM      7  C   UNL d   1      53.800  30.174  54.536  0.00  0.00     0.018 A 
ATOM      8  C   UNL d   1      52.721  29.100  53.871  0.00  0.00     0.008 A 
ATOM      9  C   UNL d   1      53.671  29.438  54.891  0.00  0.00     0.002 A 
ATOM     10  C   UNL d   1      53.138  28.907  54.562  0.00  0.00     0.001 A 
ENDROOT
BRANCH   2  11
ATOM     11  C   UNL d   1      53.861  31.724  53.511  0.00  0.00     0.110 C 
BRANCH  11  12
ATOM     12  C   UNL d   1      53.507  32.440  53.713  0.00  0.00     0.142 C 
BRANCH  12  13
ATOM     13  O   UNL d   1      53.963  33.118  53.845  0.00  0.00    -0.304 OA
BRANCH  13  14
ATOM     14  C   UNL d   1      53.603  33.822  54.080  0.00  0.00     0.100 A 
ATOM     15  C   UNL d   1      53.195  34.281  53.528  0.00  0.00     0.025 A 
ATOM     16  C   UNL d   1      52.838  34.981  53.763  0.00  0.00     0.002 A 
ATOM     17  C   UNL d   1      52.888  35.222  54.551  0.00  0.00     0.000 A 
ATOM     18  C   UNL d   1      53.298  34.760  55.102  0.00  0.00     0.002 A 
ATOM     19  C   UNL d   1      53.654  34.059  54.857  0.00  0.00     0.025 A 
ENDBRANCH  13  14
ENDBRANCH  12  13
ENDBRANCH  11  12
ENDBRANCH   2  11
TORSDOF 4
ENDMDL
MODEL 6
REMARK VINA RESULT:      -6.1      2.081      3.311
REMARK  4 active torsions:
REMARK  status: ('A' for Active; 'I' for Inactive)
REMARK    1  A    between atoms: C_7  and  N_2 
REMARK    2  A    between atoms: C_10  and  C_7 
REMARK    3  A    between atoms: O_8  and  C_10 
REMARK    4  A    between atoms: C_9  and  O_8 
ROOT
ATOM      1  C   UNL d   1      51.742  32.039  53.050  0.00  0.00     0.296 A 
ATOM      2  N   UNL d   1      52.227  32.703  53.003  0.00  0.00    -0.266 N 
ATOM      3  S   UNL d   1      50.947  32.305  53.021  0.00  0.00    -0.025 SA
ATOM      4  C   UNL d   1      51.744  33.374  52.947  0.00  0.00     0.074 A 
ATOM      5  C   UNL d   1      50.960  33.130  52.958  0.00  0.00     0.050 A 
ATOM      6  O   UNL d   1      51.986  31.258  53.112  0.00  0.00    -0.259 OA
ATOM      7  C   UNL d   1      51.930  34.177  52.887  0.00  0.00     0.018 A 
ATOM      8  C   UNL d   1      50.344  33.685  52.909  0.00  0.00     0.008 A 
ATOM      9  C   UNL d   1      51.320  34.733  52.838  0.00  0.00     0.002 A 
ATOM     10  C   UNL d   1      50.536  34.490  52.849  0.00  0.00     0.001 A 
ENDROOT
BRANCH   2  11
ATOM     11  C   UNL d   1      53.052  32.700  53.012  0.00  0.00     0.110 C 
BRANCH  11  12
ATOM     12  C   UNL d   1      53.462  32.623  53.722  0.00  0.00     0.142 C 
BRANCH  12  13
ATOM     13  O   UNL d   1      54.288  32.669  53.745  0.00  0.00    -0.304 OA
BRANCH  13  14
ATOM     14  C   UNL d   1      54.665  33.087  54.347  0.00  0.00     0.100 A 
ATOM     15  C   UNL d   1      54.399  33.018  55.125  0.00  0.00     0.025 A 
ATOM     16  C   UNL d   1      54.776  33.435  55.724  0.00  0.00     0.002 A 
ATOM     17  C   UNL d   1      55.417  33.920  55.544  0.00  0.00     0.000 A 
ATOM     18  C   UNL d   1      55.682  33.988  54.762  0.00  0.00     0.002 A 
ATOM     19  C   UNL d   1      55.299  33.566  54.168  0.00  0.00     0.025 A 
ENDBRANCH  13  14
ENDBRANCH  12  13
ENDBRANCH  11  12
ENDBRANCH   2  11
TORSDOF 4
ENDMDL
