MODEL 1
REMARK VINA RESULT:      44.6      0.000      0.000
REMARK  3 active torsions:
REMARK  status: ('A' for Active; 'I' for Inactive)
REMARK    1  A    between atoms: C_10  and  N_2 
REMARK       I    between atoms: N_3  and  C_6 
REMARK    2  A    between atoms: C_6  and  C_11 
REMARK    3  A    between atoms: C_11  and  C_10 
ROOT
ATOM      1  N   UNL d   1     -57.380 -98.764 -44.050  0.00  0.00    -0.275 N 
ATOM      2  C   UNL d   1     -57.625 -98.760 -44.837  0.00  0.00     0.067 A 
ATOM      3  C   UNL d   1     -56.603 -98.767 -43.785  0.00  0.00     0.266 C 
ATOM      4  C   UNL d   1     -58.062 -98.765 -43.581  0.00  0.00     0.067 A 
ATOM      5  C   UNL d   1     -58.713 -98.761 -44.072  0.00  0.00     0.018 A 
ATOM      6  C   UNL d   1     -58.444 -98.758 -44.857  0.00  0.00     0.019 A 
ATOM      7  O   UNL d   1     -56.446 -98.771 -42.975  0.00  0.00    -0.267 OA
ATOM      8  C   UNL d   1     -57.121 -98.758 -45.504  0.00  0.00     0.019 C 
ATOM      9  C   UNL d   1     -58.163 -98.768 -42.760  0.00  0.00     0.018 A 
ATOM     10  C   UNL d   1     -59.471 -98.761 -43.770  0.00  0.00     0.002 A 
ATOM     11  C   UNL d   1     -58.916 -98.768 -42.441  0.00  0.00     0.002 A 
ATOM     12  C   UNL d   1     -59.583 -98.765 -42.940  0.00  0.00     0.000 A 
ENDROOT
BRANCH   3  13
ATOM     13  C   UNL d   1     -55.977 -98.766 -44.322  0.00  0.00     0.080 C 
BRANCH  13  14
ATOM     14  C   UNL d   1     -55.249 -99.087 -44.116  0.00  0.00     0.088 C 
BRANCH  14  15
ATOM     15  N   UNL d   1     -55.062 -99.861 -44.325  0.00  0.00    -0.268 N 
ATOM     16  C   UNL d   1     -54.900-100.133 -45.084  0.00  0.00     0.296 A 
ATOM     17  S   UNL d   1     -54.740-100.972 -45.013  0.00  0.00    -0.025 SA
ATOM     18  O   UNL d   1     -54.897 -99.676 -45.771  0.00  0.00    -0.259 OA
ATOM     19  C   UNL d   1     -54.807-101.168 -44.247  0.00  0.00     0.050 A 
ATOM     20  C   UNL d   1     -54.711-101.900 -43.871  0.00  0.00     0.008 A 
ATOM     21  C   UNL d   1     -55.005-100.500 -43.805  0.00  0.00     0.073 A 
ATOM     22  C   UNL d   1     -54.814-101.963 -43.050  0.00  0.00     0.001 A 
ATOM     23  C   UNL d   1     -55.012-101.288 -42.618  0.00  0.00     0.002 A 
ATOM     24  C   UNL d   1     -55.107-100.558 -42.997  0.00  0.00     0.018 A 
ENDBRANCH  14  15
ENDBRANCH  13  14
ENDBRANCH   3  13
TORSDOF 3
ENDMDL
