MODEL 1
REMARK VINA RESULT:      -7.8      0.000      0.000
REMARK  2 active torsions:
REMARK  status: ('A' for Active; 'I' for Inactive)
REMARK    1  A    between atoms: C_2  and  C_1 
REMARK    2  A    between atoms: C_14  and  N_5 
ROOT
ATOM      1  C   UNL d   1     -48.367  13.026  22.678  0.00  0.00     0.117 A 
ATOM      2  N   UNL d   1     -48.719  13.587  23.192  0.00  0.00    -0.164 NA
ATOM      3  C   UNL d   1     -48.719  13.095  21.945  0.00  0.00     0.107 A 
ATOM      4  N   UNL d   1     -49.280  13.989  22.766  0.00  0.00    -0.228 N 
ATOM      5  C   UNL d   1     -49.282  13.685  21.989  0.00  0.00     0.112 A 
ATOM      6  C   UNL d   1     -48.547  12.650  21.261  0.00  0.00     0.104 C 
ATOM      7  N   UNL d   1     -48.374  12.206  20.581  0.00  0.00    -0.191 NA
ENDROOT
BRANCH   1   8
ATOM      8  C   UNL d   1     -47.760  12.506  22.925  0.00  0.00     0.084 A 
ATOM      9  C   UNL d   1     -47.959  11.837  23.400  0.00  0.00     0.302 A 
ATOM     10  O   UNL d   1     -47.384  11.325  23.647  0.00  0.00    -0.273 OA
ATOM     11  O   UNL d   1     -48.741  11.700  23.617  0.00  0.00    -0.259 OA
ATOM     12  C   UNL d   1     -46.587  11.446  23.438  0.00  0.00     0.103 A 
ATOM     13  C   UNL d   1     -46.396  12.103  22.972  0.00  0.00     0.023 A 
ATOM     14  C   UNL d   1     -46.017  10.927  23.690  0.00  0.00     0.025 A 
ATOM     15  C   UNL d   1     -46.979  12.628  22.718  0.00  0.00     0.009 A 
ATOM     16  C   UNL d   1     -45.604  12.223  22.765  0.00  0.00     0.002 A 
ATOM     17  C   UNL d   1     -45.035  11.698  23.021  0.00  0.00     0.000 A 
ATOM     18  C   UNL d   1     -45.228  11.048  23.483  0.00  0.00     0.002 A 
ENDBRANCH   1   8
BRANCH   4  19
ATOM     19  C   UNL d   1     -49.754  14.593  23.075  0.00  0.00     0.083 A 
ATOM     20  C   UNL d   1     -49.418  15.302  23.335  0.00  0.00     0.019 A 
ATOM     21  C   UNL d   1     -49.895  15.892  23.639  0.00  0.00     0.002 A 
ATOM     22  C   UNL d   1     -50.703  15.781  23.685  0.00  0.00     0.000 A 
ATOM     23  C   UNL d   1     -51.064  15.064  23.425  0.00  0.00     0.002 A 
ATOM     24  C   UNL d   1     -50.568  14.470  23.117  0.00  0.00     0.019 A 
ENDBRANCH   4  19
TORSDOF 2
ENDMDL
MODEL 2
REMARK VINA RESULT:      -7.8      1.367      4.605
REMARK  2 active torsions:
REMARK  status: ('A' for Active; 'I' for Inactive)
REMARK    1  A    between atoms: C_2  and  C_1 
REMARK    2  A    between atoms: C_14  and  N_5 
ROOT
ATOM      1  C   UNL d   1     -47.730  13.581  22.859  0.00  0.00     0.117 A 
ATOM      2  N   UNL d   1     -47.624  12.772  23.051  0.00  0.00    -0.164 NA
ATOM      3  C   UNL d   1     -46.994  13.933  22.825  0.00  0.00     0.107 A 
ATOM      4  N   UNL d   1     -46.828  12.642  23.131  0.00  0.00    -0.228 N 
ATOM      5  C   UNL d   1     -46.432  13.364  22.991  0.00  0.00     0.112 A 
ATOM      6  C   UNL d   1     -46.827  14.732  22.653  0.00  0.00     0.104 C 
ATOM      7  N   UNL d   1     -46.663  15.527  22.482  0.00  0.00    -0.191 NA
ENDROOT
BRANCH   1   8
ATOM      8  C   UNL d   1     -48.483  13.920  22.734  0.00  0.00     0.084 A 
ATOM      9  C   UNL d   1     -48.903  13.741  22.023  0.00  0.00     0.302 A 
ATOM     10  O   UNL d   1     -49.633  14.061  21.887  0.00  0.00    -0.273 OA
ATOM     11  O   UNL d   1     -48.573  13.237  21.462  0.00  0.00    -0.259 OA
ATOM     12  C   UNL d   1     -49.984  14.572  22.443  0.00  0.00     0.103 A 
ATOM     13  C   UNL d   1     -49.570  14.746  23.138  0.00  0.00     0.023 A 
ATOM     14  C   UNL d   1     -50.717  14.889  22.297  0.00  0.00     0.025 A 
ATOM     15  C   UNL d   1     -48.825  14.422  23.281  0.00  0.00     0.009 A 
ATOM     16  C   UNL d   1     -49.920  15.254  23.689  0.00  0.00     0.002 A 
ATOM     17  C   UNL d   1     -50.656  15.569  23.538  0.00  0.00     0.000 A 
ATOM     18  C   UNL d   1     -51.064  15.396  22.848  0.00  0.00     0.002 A 
ENDBRANCH   1   8
BRANCH   4  19
ATOM     19  C   UNL d   1     -46.492  11.909  23.319  0.00  0.00     0.083 A 
ATOM     20  C   UNL d   1     -46.970  11.264  23.513  0.00  0.00     0.019 A 
ATOM     21  C   UNL d   1     -46.629  10.544  23.698  0.00  0.00     0.002 A 
ATOM     22  C   UNL d   1     -45.816  10.464  23.691  0.00  0.00     0.000 A 
ATOM     23  C   UNL d   1     -45.311  11.112  23.495  0.00  0.00     0.002 A 
ATOM     24  C   UNL d   1     -45.670  11.840  23.309  0.00  0.00     0.019 A 
ENDBRANCH   4  19
TORSDOF 2
ENDMDL
MODEL 3
REMARK VINA RESULT:      -7.6      1.786      4.613
REMARK  2 active torsions:
REMARK  status: ('A' for Active; 'I' for Inactive)
REMARK    1  A    between atoms: C_2  and  C_1 
REMARK    2  A    between atoms: C_14  and  N_5 
ROOT
ATOM      1  C   UNL d   1     -47.231  12.601  22.824  0.00  0.00     0.117 A 
ATOM      2  N   UNL d   1     -46.787  11.893  22.894  0.00  0.00    -0.164 NA
ATOM      3  C   UNL d   1     -46.725  13.231  22.936  0.00  0.00     0.107 A 
ATOM      4  N   UNL d   1     -46.019  12.101  23.048  0.00  0.00    -0.228 N 
ATOM      5  C   UNL d   1     -45.977  12.934  23.075  0.00  0.00     0.112 A 
ATOM      6  C   UNL d   1     -46.919  14.042  22.917  0.00  0.00     0.104 C 
ATOM      7  N   UNL d   1     -47.115  14.848  22.897  0.00  0.00    -0.191 NA
ENDROOT
BRANCH   1   8
ATOM      8  C   UNL d   1     -48.051  12.605  22.664  0.00  0.00     0.084 A 
ATOM      9  C   UNL d   1     -48.315  12.562  21.862  0.00  0.00     0.302 A 
ATOM     10  O   UNL d   1     -49.105  12.565  21.691  0.00  0.00    -0.273 OA
ATOM     11  O   UNL d   1     -47.770  12.515  21.248  0.00  0.00    -0.259 OA
ATOM     12  C   UNL d   1     -49.673  12.612  22.299  0.00  0.00     0.103 A 
ATOM     13  C   UNL d   1     -49.411  12.654  23.083  0.00  0.00     0.023 A 
ATOM     14  C   UNL d   1     -50.464  12.614  22.117  0.00  0.00     0.025 A 
ATOM     15  C   UNL d   1     -48.606  12.651  23.263  0.00  0.00     0.009 A 
ATOM     16  C   UNL d   1     -49.975  12.700  23.686  0.00  0.00     0.002 A 
ATOM     17  C   UNL d   1     -50.768  12.703  23.497  0.00  0.00     0.000 A 
ATOM     18  C   UNL d   1     -51.025  12.660  22.720  0.00  0.00     0.002 A 
ENDBRANCH   1   8
BRANCH   4  19
ATOM     19  C   UNL d   1     -45.403  11.559  23.156  0.00  0.00     0.083 A 
ATOM     20  C   UNL d   1     -44.651  11.707  22.849  0.00  0.00     0.019 A 
ATOM     21  C   UNL d   1     -44.049  11.166  22.960  0.00  0.00     0.002 A 
ATOM     22  C   UNL d   1     -44.192  10.477  23.376  0.00  0.00     0.000 A 
ATOM     23  C   UNL d   1     -44.954  10.307  23.698  0.00  0.00     0.002 A 
ATOM     24  C   UNL d   1     -45.559  10.867  23.577  0.00  0.00     0.019 A 
ENDBRANCH   4  19
TORSDOF 2
ENDMDL
MODEL 4
REMARK VINA RESULT:      -7.6      1.326      4.511
REMARK  2 active torsions:
REMARK  status: ('A' for Active; 'I' for Inactive)
REMARK    1  A    between atoms: C_2  and  C_1 
REMARK    2  A    between atoms: C_14  and  N_5 
ROOT
ATOM      1  C   UNL d   1     -48.147  13.048  22.740  0.00  0.00     0.117 A 
ATOM      2  N   UNL d   1     -47.374  13.270  22.504  0.00  0.00    -0.164 NA
ATOM      3  C   UNL d   1     -48.109  12.303  23.071  0.00  0.00     0.107 A 
ATOM      4  N   UNL d   1     -46.876  12.659  22.693  0.00  0.00    -0.228 N 
ATOM      5  C   UNL d   1     -47.331  12.055  23.047  0.00  0.00     0.112 A 
ATOM      6  C   UNL d   1     -48.741  11.858  23.383  0.00  0.00     0.104 C 
ATOM      7  N   UNL d   1     -49.372  11.418  23.694  0.00  0.00    -0.191 NA
ENDROOT
BRANCH   1   8
ATOM      8  C   UNL d   1     -48.812  13.543  22.632  0.00  0.00     0.084 A 
ATOM      9  C   UNL d   1     -49.213  13.538  21.888  0.00  0.00     0.302 A 
ATOM     10  O   UNL d   1     -49.857  14.011  21.768  0.00  0.00    -0.273 OA
ATOM     11  O   UNL d   1     -48.951  13.050  21.279  0.00  0.00    -0.259 OA
ATOM     12  C   UNL d   1     -50.138  14.511  22.372  0.00  0.00     0.103 A 
ATOM     13  C   UNL d   1     -49.743  14.514  23.099  0.00  0.00     0.023 A 
ATOM     14  C   UNL d   1     -50.786  14.982  22.241  0.00  0.00     0.025 A 
ATOM     15  C   UNL d   1     -49.085  14.033  23.227  0.00  0.00     0.009 A 
ATOM     16  C   UNL d   1     -50.022  15.011  23.698  0.00  0.00     0.002 A 
ATOM     17  C   UNL d   1     -50.673  15.482  23.561  0.00  0.00     0.000 A 
ATOM     18  C   UNL d   1     -51.063  15.477  22.840  0.00  0.00     0.002 A 
ENDBRANCH   1   8
BRANCH   4  19
ATOM     19  C   UNL d   1     -46.061  12.661  22.549  0.00  0.00     0.083 A 
ATOM     20  C   UNL d   1     -45.709  13.278  22.127  0.00  0.00     0.019 A 
ATOM     21  C   UNL d   1     -44.903  13.271  21.990  0.00  0.00     0.002 A 
ATOM     22  C   UNL d   1     -44.447  12.654  22.271  0.00  0.00     0.000 A 
ATOM     23  C   UNL d   1     -44.788  12.015  22.705  0.00  0.00     0.002 A 
ATOM     24  C   UNL d   1     -45.610  12.034  22.838  0.00  0.00     0.019 A 
ENDBRANCH   4  19
TORSDOF 2
ENDMDL
MODEL 5
REMARK VINA RESULT:      -6.9      1.606      2.376
REMARK  2 active torsions:
REMARK  status: ('A' for Active; 'I' for Inactive)
REMARK    1  A    between atoms: C_2  and  C_1 
REMARK    2  A    between atoms: C_14  and  N_5 
ROOT
ATOM      1  C   UNL d   1     -47.152  13.264  22.523  0.00  0.00     0.117 A 
ATOM      2  N   UNL d   1     -47.829  12.787  22.391  0.00  0.00    -0.164 NA
ATOM      3  C   UNL d   1     -47.401  14.033  22.636  0.00  0.00     0.107 A 
ATOM      4  N   UNL d   1     -48.479  13.269  22.426  0.00  0.00    -0.228 N 
ATOM      5  C   UNL d   1     -48.216  14.047  22.579  0.00  0.00     0.112 A 
ATOM      6  C   UNL d   1     -46.923  14.699  22.786  0.00  0.00     0.104 C 
ATOM      7  N   UNL d   1     -46.444  15.361  22.934  0.00  0.00    -0.191 NA
ENDROOT
BRANCH   1   8
ATOM      8  C   UNL d   1     -46.376  12.955  22.527  0.00  0.00     0.084 A 
ATOM      9  C   UNL d   1     -46.156  12.399  23.124  0.00  0.00     0.302 A 
ATOM     10  O   UNL d   1     -45.410  12.091  23.142  0.00  0.00    -0.273 OA
ATOM     11  O   UNL d   1     -46.703  12.165  23.694  0.00  0.00    -0.259 OA
ATOM     12  C   UNL d   1     -44.843  12.314  22.574  0.00  0.00     0.103 A 
ATOM     13  C   UNL d   1     -45.060  12.859  21.991  0.00  0.00     0.023 A 
ATOM     14  C   UNL d   1     -44.095  12.000  22.600  0.00  0.00     0.025 A 
ATOM     15  C   UNL d   1     -45.821  13.176  21.968  0.00  0.00     0.009 A 
ATOM     16  C   UNL d   1     -44.497  13.081  21.427  0.00  0.00     0.002 A 
ATOM     17  C   UNL d   1     -43.747  12.762  21.459  0.00  0.00     0.000 A 
ATOM     18  C   UNL d   1     -43.534  12.222  22.038  0.00  0.00     0.002 A 
ENDBRANCH   1   8
BRANCH   4  19
ATOM     19  C   UNL d   1     -49.258  13.009  22.324  0.00  0.00     0.083 A 
ATOM     20  C   UNL d   1     -49.721  12.799  22.975  0.00  0.00     0.019 A 
ATOM     21  C   UNL d   1     -50.490  12.543  22.864  0.00  0.00     0.002 A 
ATOM     22  C   UNL d   1     -50.799  12.495  22.109  0.00  0.00     0.000 A 
ATOM     23  C   UNL d   1     -50.341  12.706  21.432  0.00  0.00     0.002 A 
ATOM     24  C   UNL d   1     -49.559  12.965  21.558  0.00  0.00     0.019 A 
ENDBRANCH   4  19
TORSDOF 2
ENDMDL
MODEL 6
REMARK VINA RESULT:      -6.4      9.144     10.691
REMARK  2 active torsions:
REMARK  status: ('A' for Active; 'I' for Inactive)
REMARK    1  A    between atoms: C_2  and  C_1 
REMARK    2  A    between atoms: C_14  and  N_5 
ROOT
ATOM      1  C   UNL d   1     -39.306  14.228  18.663  0.00  0.00     0.117 A 
ATOM      2  N   UNL d   1     -38.819  14.253  19.345  0.00  0.00    -0.164 NA
ATOM      3  C   UNL d   1     -40.075  14.373  18.893  0.00  0.00     0.107 A 
ATOM      4  N   UNL d   1     -39.297  14.413  19.980  0.00  0.00    -0.228 N 
ATOM      5  C   UNL d   1     -40.080  14.488  19.702  0.00  0.00     0.112 A 
ATOM      6  C   UNL d   1     -40.750  14.403  18.404  0.00  0.00     0.104 C 
ATOM      7  N   UNL d   1     -41.420  14.432  17.915  0.00  0.00    -0.191 NA
ENDROOT
BRANCH   1   8
ATOM      8  C   UNL d   1     -39.005  14.076  17.898  0.00  0.00     0.084 A 
ATOM      9  C   UNL d   1     -38.853  13.277  17.666  0.00  0.00     0.302 A 
ATOM     10  O   UNL d   1     -38.562  13.114  16.931  0.00  0.00    -0.273 OA
ATOM     11  O   UNL d   1     -39.001  12.658  18.189  0.00  0.00    -0.259 OA
ATOM     12  C   UNL d   1     -38.406  13.725  16.388  0.00  0.00     0.103 A 
ATOM     13  C   UNL d   1     -38.555  14.506  16.618  0.00  0.00     0.023 A 
ATOM     14  C   UNL d   1     -38.114  13.551  15.651  0.00  0.00     0.025 A 
ATOM     15  C   UNL d   1     -38.853  14.679  17.368  0.00  0.00     0.009 A 
ATOM     16  C   UNL d   1     -38.400  15.114  16.078  0.00  0.00     0.002 A 
ATOM     17  C   UNL d   1     -38.106  14.932  15.340  0.00  0.00     0.000 A 
ATOM     18  C   UNL d   1     -37.959  14.158  15.114  0.00  0.00     0.002 A 
ENDBRANCH   1   8
BRANCH   4  19
ATOM     19  C   UNL d   1     -39.026  14.484  20.759  0.00  0.00     0.083 A 
ATOM     20  C   UNL d   1     -38.978  13.822  21.251  0.00  0.00     0.019 A 
ATOM     21  C   UNL d   1     -38.710  13.902  22.019  0.00  0.00     0.002 A 
ATOM     22  C   UNL d   1     -38.490  14.637  22.299  0.00  0.00     0.000 A 
ATOM     23  C   UNL d   1     -38.532  15.325  21.812  0.00  0.00     0.002 A 
ATOM     24  C   UNL d   1     -38.807  15.230  21.032  0.00  0.00     0.019 A 
ENDBRANCH   4  19
TORSDOF 2
ENDMDL
MODEL 7
REMARK VINA RESULT:      -6.2      9.150     10.210
REMARK  2 active torsions:
REMARK  status: ('A' for Active; 'I' for Inactive)
REMARK    1  A    between atoms: C_2  and  C_1 
REMARK    2  A    between atoms: C_14  and  N_5 
ROOT
ATOM      1  C   UNL d   1     -39.196  14.202  19.583  0.00  0.00     0.117 A 
ATOM      2  N   UNL d   1     -39.325  14.485  20.361  0.00  0.00    -0.164 NA
ATOM      3  C   UNL d   1     -38.581  13.665  19.606  0.00  0.00     0.107 A 
ATOM      4  N   UNL d   1     -38.790  14.120  20.847  0.00  0.00    -0.228 N 
ATOM      5  C   UNL d   1     -38.324  13.608  20.379  0.00  0.00     0.112 A 
ATOM      6  C   UNL d   1     -38.259  13.241  18.964  0.00  0.00     0.104 C 
ATOM      7  N   UNL d   1     -37.940  12.821  18.324  0.00  0.00    -0.191 NA
ENDROOT
BRANCH   1   8
ATOM      8  C   UNL d   1     -39.648  14.457  18.928  0.00  0.00     0.084 A 
ATOM      9  C   UNL d   1     -40.449  14.197  18.853  0.00  0.00     0.302 A 
ATOM     10  O   UNL d   1     -40.899  14.435  18.226  0.00  0.00    -0.273 OA
ATOM     11  O   UNL d   1     -40.778  13.700  19.421  0.00  0.00    -0.259 OA
ATOM     12  C   UNL d   1     -40.585  14.939  17.642  0.00  0.00     0.103 A 
ATOM     13  C   UNL d   1     -39.800  15.191  17.717  0.00  0.00     0.023 A 
ATOM     14  C   UNL d   1     -41.045  15.172  17.015  0.00  0.00     0.025 A 
ATOM     15  C   UNL d   1     -39.336  14.951  18.356  0.00  0.00     0.009 A 
ATOM     16  C   UNL d   1     -39.488  15.691  17.137  0.00  0.00     0.002 A 
ATOM     17  C   UNL d   1     -39.955  15.922  16.510  0.00  0.00     0.000 A 
ATOM     18  C   UNL d   1     -40.732  15.671  16.437  0.00  0.00     0.002 A 
ENDBRANCH   1   8
BRANCH   4  19
ATOM     19  C   UNL d   1     -38.736  14.250  21.662  0.00  0.00     0.083 A 
ATOM     20  C   UNL d   1     -38.691  15.018  21.965  0.00  0.00     0.019 A 
ATOM     21  C   UNL d   1     -38.638  15.136  22.772  0.00  0.00     0.002 A 
ATOM     22  C   UNL d   1     -38.630  14.496  23.278  0.00  0.00     0.000 A 
ATOM     23  C   UNL d   1     -38.675  13.704  22.989  0.00  0.00     0.002 A 
ATOM     24  C   UNL d   1     -38.728  13.596  22.164  0.00  0.00     0.019 A 
ENDBRANCH   4  19
TORSDOF 2
ENDMDL
MODEL 8
REMARK VINA RESULT:      -6.0      8.577     10.104
REMARK  2 active torsions:
REMARK  status: ('A' for Active; 'I' for Inactive)
REMARK    1  A    between atoms: C_2  and  C_1 
REMARK    2  A    between atoms: C_14  and  N_5 
ROOT
ATOM      1  C   UNL d   1     -39.572  14.854  20.403  0.00  0.00     0.117 A 
ATOM      2  N   UNL d   1     -39.016  14.456  20.889  0.00  0.00    -0.164 NA
ATOM      3  C   UNL d   1     -40.196  15.093  20.873  0.00  0.00     0.107 A 
ATOM      4  N   UNL d   1     -39.307  14.458  21.645  0.00  0.00    -0.228 N 
ATOM      5  C   UNL d   1     -40.042  14.854  21.639  0.00  0.00     0.112 A 
ATOM      6  C   UNL d   1     -40.877  15.508  20.631  0.00  0.00     0.104 C 
ATOM      7  N   UNL d   1     -41.554  15.922  20.387  0.00  0.00    -0.191 NA
ENDROOT
BRANCH   1   8
ATOM      8  C   UNL d   1     -39.459  14.961  19.582  0.00  0.00     0.084 A 
ATOM      9  C   UNL d   1     -38.850  15.482  19.314  0.00  0.00     0.302 A 
ATOM     10  O   UNL d   1     -38.729  15.596  18.523  0.00  0.00    -0.273 OA
ATOM     11  O   UNL d   1     -38.375  15.878  19.857  0.00  0.00    -0.259 OA
ATOM     12  C   UNL d   1     -39.199  15.204  17.959  0.00  0.00     0.103 A 
ATOM     13  C   UNL d   1     -39.794  14.695  18.224  0.00  0.00     0.023 A 
ATOM     14  C   UNL d   1     -39.069  15.325  17.167  0.00  0.00     0.025 A 
ATOM     15  C   UNL d   1     -39.923  14.575  19.030  0.00  0.00     0.009 A 
ATOM     16  C   UNL d   1     -40.261  14.306  17.663  0.00  0.00     0.002 A 
ATOM     17  C   UNL d   1     -40.126  14.431  16.869  0.00  0.00     0.000 A 
ATOM     18  C   UNL d   1     -39.535  14.937  16.608  0.00  0.00     0.002 A 
ENDBRANCH   1   8
BRANCH   4  19
ATOM     19  C   UNL d   1     -38.921  14.119  22.293  0.00  0.00     0.083 A 
ATOM     20  C   UNL d   1     -38.770  14.561  22.975  0.00  0.00     0.019 A 
ATOM     21  C   UNL d   1     -38.388  14.216  23.610  0.00  0.00     0.002 A 
ATOM     22  C   UNL d   1     -38.155  13.434  23.570  0.00  0.00     0.000 A 
ATOM     23  C   UNL d   1     -38.300  12.966  22.883  0.00  0.00     0.002 A 
ATOM     24  C   UNL d   1     -38.690  13.328  22.242  0.00  0.00     0.019 A 
ENDBRANCH   4  19
TORSDOF 2
ENDMDL
MODEL 9
REMARK VINA RESULT:      -5.9      9.233     10.045
REMARK  2 active torsions:
REMARK  status: ('A' for Active; 'I' for Inactive)
REMARK    1  A    between atoms: C_2  and  C_1 
REMARK    2  A    between atoms: C_14  and  N_5 
ROOT
ATOM      1  C   UNL d   1     -39.238  14.493  19.096  0.00  0.00     0.117 A 
ATOM      2  N   UNL d   1     -39.787  15.020  18.744  0.00  0.00    -0.164 NA
ATOM      3  C   UNL d   1     -39.015  13.945  18.534  0.00  0.00     0.107 A 
ATOM      4  N   UNL d   1     -39.890  14.787  17.974  0.00  0.00    -0.228 N 
ATOM      5  C   UNL d   1     -39.410  14.117  17.840  0.00  0.00     0.112 A 
ATOM      6  C   UNL d   1     -38.479  13.314  18.632  0.00  0.00     0.104 C 
ATOM      7  N   UNL d   1     -37.945  12.687  18.733  0.00  0.00    -0.191 NA
ENDROOT
BRANCH   1   8
ATOM      8  C   UNL d   1     -38.994  14.561  19.892  0.00  0.00     0.084 A 
ATOM      9  C   UNL d   1     -38.427  15.152  20.101  0.00  0.00     0.302 A 
ATOM     10  O   UNL d   1     -38.181  15.230  20.866  0.00  0.00    -0.273 OA
ATOM     11  O   UNL d   1     -38.120  15.653  19.525  0.00  0.00    -0.259 OA
ATOM     12  C   UNL d   1     -38.480  14.732  21.464  0.00  0.00     0.103 A 
ATOM     13  C   UNL d   1     -39.035  14.155  21.256  0.00  0.00     0.023 A 
ATOM     14  C   UNL d   1     -38.226  14.818  22.230  0.00  0.00     0.025 A 
ATOM     15  C   UNL d   1     -39.290  14.071  20.476  0.00  0.00     0.009 A 
ATOM     16  C   UNL d   1     -39.331  13.661  21.850  0.00  0.00     0.002 A 
ATOM     17  C   UNL d   1     -39.073  13.752  22.617  0.00  0.00     0.000 A 
ATOM     18  C   UNL d   1     -38.523  14.325  22.820  0.00  0.00     0.002 A 
ENDBRANCH   1   8
BRANCH   4  19
ATOM     19  C   UNL d   1     -40.391  15.167  17.437  0.00  0.00     0.083 A 
ATOM     20  C   UNL d   1     -41.206  15.202  17.571  0.00  0.00     0.019 A 
ATOM     21  C   UNL d   1     -41.693  15.580  17.033  0.00  0.00     0.002 A 
ATOM     22  C   UNL d   1     -41.373  15.922  16.364  0.00  0.00     0.000 A 
ATOM     23  C   UNL d   1     -40.544  15.897  16.209  0.00  0.00     0.002 A 
ATOM     24  C   UNL d   1     -40.058  15.509  16.764  0.00  0.00     0.019 A 
ENDBRANCH   4  19
TORSDOF 2
ENDMDL
