MODEL 1
REMARK VINA RESULT:      17.9      0.000      0.000
REMARK  6 active torsions:
REMARK  status: ('A' for Active; 'I' for Inactive)
REMARK    1  A    between atoms: S_5  and  C_2 
REMARK    2  A    between atoms: C_15  and  S_5 
REMARK    3  A    between atoms: N_11  and  C_8 
REMARK    4  A    between atoms: C_16  and  N_11 
REMARK    5  A    between atoms: C_17  and  N_12 
REMARK    6  A    between atoms: C_24  and  C_17 
ROOT
ATOM      1  C   UNL d   1     -43.021-122.301 -50.015  0.00  0.00     0.197 A 
ATOM      2  C   UNL d   1     -43.280-122.507 -49.269  0.00  0.00     0.227 A 
ATOM      3  N   UNL d   1     -43.664-121.988 -50.429  0.00  0.00    -0.192 N 
ATOM      4  N   UNL d   1     -42.280-122.354 -50.382  0.00  0.00    -0.206 NA
ATOM      5  N   UNL d   1     -44.076-122.326 -49.215  0.00  0.00    -0.115 NA
ATOM      6  N   UNL d   1     -44.319-122.002 -49.938  0.00  0.00    -0.058 NA
ATOM      7  C   UNL d   1     -42.185-122.096 -51.157  0.00  0.00     0.166 A 
ATOM      8  C   UNL d   1     -42.829-121.784 -51.572  0.00  0.00     0.054 A 
ATOM      9  C   UNL d   1     -43.565-121.730 -51.210  0.00  0.00     0.089 A 
ATOM     10  C   UNL d   1     -42.732-121.525 -52.349  0.00  0.00     0.005 A 
ATOM     11  C   UNL d   1     -44.212-121.415 -51.627  0.00  0.00     0.019 A 
ATOM     12  C   UNL d   1     -43.379-121.211 -52.766  0.00  0.00     0.000 A 
ATOM     13  C   UNL d   1     -44.117-121.158 -52.401  0.00  0.00     0.002 A 
ENDROOT
BRANCH   7  14
ATOM     14  N   UNL d   1     -41.438-122.154 -51.516  0.00  0.00    -0.227 NA
BRANCH  14  15
ATOM     15  C   UNL d   1     -41.359-122.486 -52.274  0.00  0.00     0.086 A 
ATOM     16  C   UNL d   1     -41.436-123.304 -52.379  0.00  0.00     0.038 A 
ATOM     17  C   UNL d   1     -41.358-123.630 -53.135  0.00  0.00     0.082 A 
ATOM     18  N   UNL d   1     -41.203-123.137 -53.783  0.00  0.00    -0.302 N 
ATOM     19  C   UNL d   1     -41.127-122.326 -53.674  0.00  0.00     0.082 A 
ATOM     20  C   UNL d   1     -41.206-122.000 -52.918  0.00  0.00     0.038 A 
BRANCH  18  21
ATOM     21  C   UNL d   1     -41.124-123.458 -54.536  0.00  0.00     0.080 C 
BRANCH  21  22
ATOM     22  C   UNL d   1     -41.475-123.081 -55.182  0.00  0.00     0.018 A 
ATOM     23  C   UNL d   1     -42.152-123.400 -55.524  0.00  0.00     0.002 A 
ATOM     24  C   UNL d   1     -42.508-123.031 -56.166  0.00  0.00     0.000 A 
ATOM     25  C   UNL d   1     -42.179-122.326 -56.474  0.00  0.00     0.000 A 
ATOM     26  C   UNL d   1     -41.502-122.013 -56.127  0.00  0.00     0.000 A 
ATOM     27  C   UNL d   1     -41.146-122.385 -55.482  0.00  0.00     0.002 A 
ENDBRANCH  21  22
ENDBRANCH  18  21
ENDBRANCH  14  15
ENDBRANCH   7  14
BRANCH   2  28
ATOM     28  S   UNL d   1     -42.820-122.841 -48.669  0.00  0.00     0.231 S 
ATOM     29  O   UNL d   1     -42.540-122.089 -48.466  0.00  0.00    -0.215 OA
ATOM     30  O   UNL d   1     -43.094-123.593 -48.865  0.00  0.00    -0.215 OA
BRANCH  28  31
ATOM     31  C   UNL d   1     -42.358-123.166 -48.068  0.00  0.00     0.090 A 
ATOM     32  C   UNL d   1     -41.592-123.405 -48.228  0.00  0.00     0.011 A 
ATOM     33  C   UNL d   1     -41.126-123.731 -47.629  0.00  0.00     0.001 A 
ATOM     34  C   UNL d   1     -41.433-123.816 -46.869  0.00  0.00     0.000 A 
ATOM     35  C   UNL d   1     -42.199-123.575 -46.714  0.00  0.00     0.001 A 
ATOM     36  C   UNL d   1     -42.660-123.252 -47.310  0.00  0.00     0.011 A 
ENDBRANCH  28  31
ENDBRANCH   2  28
TORSDOF 6
ENDMDL
