MODEL 1
REMARK VINA RESULT:      -1.0      0.000      0.000
REMARK  9 active torsions:
REMARK  status: ('A' for Active; 'I' for Inactive)
REMARK    1  A    between atoms: C_6  and  N_1 
REMARK    2  A    between atoms: C_7  and  C_2 
REMARK    3  A    between atoms: C_3  and  C_9 
REMARK    4  A    between atoms: O_5  and  C_3 
REMARK    5  A    between atoms: C_4  and  O_5 
REMARK    6  A    between atoms: C_8  and  C_7 
REMARK    7  A    between atoms: C_12  and  C_8 
REMARK    8  A    between atoms: C_10  and  C_12 
REMARK    9  A    between atoms: O_25  and  C_23 
ROOT
ATOM      1  C   UNL d   1      58.738  -0.065  30.842  0.00  0.00     0.064 A 
ATOM      2  C   UNL d   1      59.157  -0.243  30.154  0.00  0.00     0.106 A 
ATOM      3  C   UNL d   1      59.139   0.245  31.500  0.00  0.00     0.029 A 
ATOM      4  C   UNL d   1      59.977  -0.113  30.124  0.00  0.00     0.027 A 
ATOM      5  C   UNL d   1      59.951   0.373  31.467  0.00  0.00     0.094 A 
ATOM      6  C   UNL d   1      60.370   0.194  30.779  0.00  0.00     0.026 A 
ENDROOT
BRANCH   2   7
ATOM      7  O   UNL d   1      58.766  -0.551  29.496  0.00  0.00    -0.273 OA
BRANCH   7   8
ATOM      8  C   UNL d   1      59.189  -0.974  28.928  0.00  0.00     0.300 C 
ATOM      9  O   UNL d   1      59.790  -0.611  28.503  0.00  0.00    -0.259 OA
BRANCH   8  10
ATOM     10  C   UNL d   1      59.004  -1.764  28.790  0.00  0.00     0.065 A 
ATOM     11  C   UNL d   1      59.590  -2.336  28.852  0.00  0.00     0.029 A 
ATOM     12  C   UNL d   1      59.414  -3.124  28.716  0.00  0.00     0.127 A 
ATOM     13  C   UNL d   1      58.641  -3.352  28.515  0.00  0.00     0.024 A 
ATOM     14  C   UNL d   1      58.055  -2.774  28.455  0.00  0.00     0.002 A 
ATOM     15  C   UNL d   1      58.234  -1.977  28.592  0.00  0.00     0.005 A 
BRANCH  12  16
ATOM     16  N   UNL d   1      60.005  -3.708  28.777  0.00  0.00    -0.114 N 
ATOM     17  O   UNL d   1      59.801  -4.491  28.903  0.00  0.00    -0.532 OA
ATOM     18  O   UNL d   1      60.799  -3.482  28.708  0.00  0.00    -0.532 OA
ENDBRANCH  12  16
ENDBRANCH   8  10
ENDBRANCH   7   8
ENDBRANCH   2   7
BRANCH   1  19
ATOM     19  C   UNL d   1      57.921  -0.194  30.873  0.00  0.00     0.198 C 
ATOM     20  O   UNL d   1      57.456  -0.046  30.208  0.00  0.00    -0.286 OA
BRANCH  19  21
ATOM     21  C   UNL d   1      57.574  -0.470  31.565  0.00  0.00     0.043 C 
BRANCH  21  22
ATOM     22  C   UNL d   1      56.767  -0.633  31.583  0.00  0.00     0.010 C 
BRANCH  22  23
ATOM     23  C   UNL d   1      56.329  -0.464  32.258  0.00  0.00     0.030 A 
ATOM     24  S   UNL d   1      55.953  -1.008  32.751  0.00  0.00    -0.086 SA
ATOM     25  C   UNL d   1      55.579  -0.598  33.361  0.00  0.00     0.035 A 
ATOM     26  C   UNL d   1      55.720   0.205  33.251  0.00  0.00     0.007 A 
ATOM     27  C   UNL d   1      56.183   0.290  32.571  0.00  0.00     0.007 A 
ENDBRANCH  22  23
ENDBRANCH  21  22
ENDBRANCH  19  21
ENDBRANCH   1  19
BRANCH   5  28
ATOM     28  O   UNL d   1      60.345   0.679  32.122  0.00  0.00    -0.328 OA
ATOM     29  C   UNL d   1      61.069   0.363  32.350  0.00  0.00     0.181 C 
ENDBRANCH   5  28
TORSDOF 9
ENDMDL
MODEL 2
REMARK VINA RESULT:       1.0      1.347      1.922
REMARK  9 active torsions:
REMARK  status: ('A' for Active; 'I' for Inactive)
REMARK    1  A    between atoms: C_6  and  N_1 
REMARK    2  A    between atoms: C_7  and  C_2 
REMARK    3  A    between atoms: C_3  and  C_9 
REMARK    4  A    between atoms: O_5  and  C_3 
REMARK    5  A    between atoms: C_4  and  O_5 
REMARK    6  A    between atoms: C_8  and  C_7 
REMARK    7  A    between atoms: C_12  and  C_8 
REMARK    8  A    between atoms: C_10  and  C_12 
REMARK    9  A    between atoms: O_25  and  C_23 
ROOT
ATOM      1  C   UNL d   1      57.486  -0.135  32.063  0.00  0.00     0.064 A 
ATOM      2  C   UNL d   1      57.825  -0.046  31.317  0.00  0.00     0.106 A 
ATOM      3  C   UNL d   1      57.905   0.108  32.738  0.00  0.00     0.029 A 
ATOM      4  C   UNL d   1      58.584   0.286  31.245  0.00  0.00     0.027 A 
ATOM      5  C   UNL d   1      58.656   0.436  32.663  0.00  0.00     0.094 A 
ATOM      6  C   UNL d   1      58.995   0.525  31.916  0.00  0.00     0.026 A 
ENDROOT
BRANCH   2   7
ATOM      7  O   UNL d   1      57.416  -0.285  30.642  0.00  0.00    -0.273 OA
BRANCH   7   8
ATOM      8  C   UNL d   1      57.682  -0.052  29.896  0.00  0.00     0.300 C 
ATOM      9  O   UNL d   1      57.475   0.682  29.592  0.00  0.00    -0.259 OA
BRANCH   8  10
ATOM     10  C   UNL d   1      58.158  -0.562  29.459  0.00  0.00     0.065 A 
ATOM     11  C   UNL d   1      58.083  -1.373  29.557  0.00  0.00     0.029 A 
ATOM     12  C   UNL d   1      58.553  -1.887  29.126  0.00  0.00     0.127 A 
ATOM     13  C   UNL d   1      59.109  -1.591  28.586  0.00  0.00     0.024 A 
ATOM     14  C   UNL d   1      59.182  -0.775  28.490  0.00  0.00     0.002 A 
ATOM     15  C   UNL d   1      58.706  -0.256  28.927  0.00  0.00     0.005 A 
BRANCH  12  16
ATOM     16  N   UNL d   1      58.480  -2.711  29.223  0.00  0.00    -0.114 N 
ATOM     17  O   UNL d   1      57.951  -3.136  28.762  0.00  0.00    -0.532 OA
ATOM     18  O   UNL d   1      58.948  -3.091  29.790  0.00  0.00    -0.532 OA
ENDBRANCH  12  16
ENDBRANCH   8  10
ENDBRANCH   7   8
ENDBRANCH   2   7
BRANCH   1  19
ATOM     19  C   UNL d   1      56.731  -0.464  32.137  0.00  0.00     0.198 C 
ATOM     20  O   UNL d   1      56.575  -1.209  31.817  0.00  0.00    -0.286 OA
BRANCH  19  21
ATOM     21  C   UNL d   1      56.137  -0.051  32.527  0.00  0.00     0.043 C 
BRANCH  21  22
ATOM     22  C   UNL d   1      55.592  -0.456  32.992  0.00  0.00     0.010 C 
BRANCH  22  23
ATOM     23  C   UNL d   1      55.132  -0.046  33.537  0.00  0.00     0.030 A 
ATOM     24  S   UNL d   1      55.315   0.096  34.329  0.00  0.00    -0.086 SA
ATOM     25  C   UNL d   1      54.700   0.527  34.669  0.00  0.00     0.035 A 
ATOM     26  C   UNL d   1      54.130   0.656  34.090  0.00  0.00     0.007 A 
ATOM     27  C   UNL d   1      54.394   0.303  33.391  0.00  0.00     0.007 A 
ENDBRANCH  22  23
ENDBRANCH  21  22
ENDBRANCH  19  21
ENDBRANCH   1  19
BRANCH   5  28
ATOM     28  O   UNL d   1      59.068   0.676  33.334  0.00  0.00    -0.328 OA
ATOM     29  C   UNL d   1      59.887   0.599  33.362  0.00  0.00     0.181 C 
ENDBRANCH   5  28
TORSDOF 9
ENDMDL
