MODEL 1
REMARK VINA RESULT:      24.1      0.000      0.000
REMARK  2 active torsions:
REMARK  status: ('A' for Active; 'I' for Inactive)
REMARK    1  A    between atoms: N_2  and  N_1 
REMARK    2  A    between atoms: N_8  and  C_10 
ROOT
ATOM      1  N   UNL d   1      46.459 -18.798  42.261  0.00  0.00    -0.171 N 
ATOM      2  C   UNL d   1      46.346 -18.150  42.746  0.00  0.00     0.283 A 
ATOM      3  C   UNL d   1      46.320 -18.426  43.535  0.00  0.00     0.085 A 
ATOM      4  C   UNL d   1      46.505 -19.478  42.727  0.00  0.00     0.282 A 
ATOM      5  C   UNL d   1      46.420 -19.256  43.523  0.00  0.00     0.064 A 
ATOM      6  C   UNL d   1      46.220 -18.037  44.252  0.00  0.00     0.131 A 
ATOM      7  O   UNL d   1      46.273 -17.372  42.474  0.00  0.00    -0.265 OA
ATOM      8  O   UNL d   1      46.620 -20.261  42.433  0.00  0.00    -0.265 OA
ATOM      9  C   UNL d   1      46.418 -19.682  44.229  0.00  0.00     0.005 A 
ATOM     10  C   UNL d   1      46.218 -18.459  44.955  0.00  0.00     0.024 A 
ATOM     11  C   UNL d   1      46.316 -19.271  44.943  0.00  0.00     0.002 A 
ENDROOT
BRANCH   1  12
ATOM     12  N   UNL d   1      46.528 -18.869  41.444  0.00  0.00    -0.189 N 
ATOM     13  C   UNL d   1      46.598 -19.503  40.935  0.00  0.00     0.169 A 
ATOM     14  S   UNL d   1      46.647 -19.207  40.171  0.00  0.00    -0.051 SA
ATOM     15  S   UNL d   1      46.618 -20.330  41.156  0.00  0.00    -0.050 SA
ATOM     16  C   UNL d   1      46.607 -18.387  40.205  0.00  0.00     0.100 A 
ATOM     17  C   UNL d   1      46.534 -18.171  40.984  0.00  0.00     0.287 A 
ATOM     18  O   UNL d   1      46.477 -17.402  41.259  0.00  0.00    -0.265 OA
ENDBRANCH   1  12
BRANCH   6  19
ATOM     19  N   UNL d   1      46.120 -17.198  44.264  0.00  0.00    -0.114 N 
ATOM     20  O   UNL d   1      46.615 -16.733  44.728  0.00  0.00    -0.532 OA
ATOM     21  O   UNL d   1      45.529 -16.851  43.815  0.00  0.00    -0.532 OA
ENDBRANCH   6  19
TORSDOF 2
ENDMDL
MODEL 2
REMARK VINA RESULT:      26.1      4.054      5.198
REMARK  2 active torsions:
REMARK  status: ('A' for Active; 'I' for Inactive)
REMARK    1  A    between atoms: N_2  and  N_1 
REMARK    2  A    between atoms: N_8  and  C_10 
ROOT
ATOM      1  N   UNL d   1      45.308 -14.002  44.044  0.00  0.00    -0.171 N 
ATOM      2  C   UNL d   1      45.720 -14.704  44.113  0.00  0.00     0.283 A 
ATOM      3  C   UNL d   1      45.187 -15.281  44.399  0.00  0.00     0.085 A 
ATOM      4  C   UNL d   1      44.526 -14.122  44.280  0.00  0.00     0.282 A 
ATOM      5  C   UNL d   1      44.441 -14.918  44.503  0.00  0.00     0.064 A 
ATOM      6  C   UNL d   1      45.280 -16.079  44.576  0.00  0.00     0.131 A 
ATOM      7  O   UNL d   1      46.520 -14.796  43.927  0.00  0.00    -0.265 OA
ATOM      8  O   UNL d   1      43.924 -13.531  44.288  0.00  0.00    -0.265 OA
ATOM      9  C   UNL d   1      43.802 -15.359  44.782  0.00  0.00     0.005 A 
ATOM     10  C   UNL d   1      44.647 -16.519  44.853  0.00  0.00     0.024 A 
ATOM     11  C   UNL d   1      43.917 -16.163  44.955  0.00  0.00     0.002 A 
ENDROOT
BRANCH   1  12
ATOM     12  N   UNL d   1      45.537 -13.252  43.795  0.00  0.00    -0.189 N 
ATOM     13  C   UNL d   1      45.331 -12.778  43.163  0.00  0.00     0.169 A 
ATOM     14  S   UNL d   1      45.760 -12.080  43.221  0.00  0.00    -0.051 SA
ATOM     15  S   UNL d   1      44.768 -12.971  42.548  0.00  0.00    -0.050 SA
ATOM     16  C   UNL d   1      46.235 -12.121  43.891  0.00  0.00     0.100 A 
ATOM     17  C   UNL d   1      46.104 -12.837  44.249  0.00  0.00     0.287 A 
ATOM     18  O   UNL d   1      46.468 -13.098  44.935  0.00  0.00    -0.265 OA
ENDBRANCH   1  12
BRANCH   6  19
ATOM     19  N   UNL d   1      46.034 -16.446  44.471  0.00  0.00    -0.114 N 
ATOM     20  O   UNL d   1      46.561 -16.147  43.915  0.00  0.00    -0.532 OA
ATOM     21  O   UNL d   1      46.237 -17.099  44.923  0.00  0.00    -0.532 OA
ENDBRANCH   6  19
TORSDOF 2
ENDMDL
MODEL 3
REMARK VINA RESULT:      26.8      1.910      3.284
REMARK  2 active torsions:
REMARK  status: ('A' for Active; 'I' for Inactive)
REMARK    1  A    between atoms: N_2  and  N_1 
REMARK    2  A    between atoms: N_8  and  C_10 
ROOT
ATOM      1  N   UNL d   1      45.969 -17.708  43.630  0.00  0.00    -0.171 N 
ATOM      2  C   UNL d   1      45.914 -17.989  42.865  0.00  0.00     0.283 A 
ATOM      3  C   UNL d   1      46.147 -18.793  42.874  0.00  0.00     0.085 A 
ATOM      4  C   UNL d   1      46.231 -18.316  44.123  0.00  0.00     0.282 A 
ATOM      5  C   UNL d   1      46.344 -18.997  43.661  0.00  0.00     0.064 A 
ATOM      6  C   UNL d   1      46.204 -19.358  42.280  0.00  0.00     0.131 A 
ATOM      7  O   UNL d   1      45.670 -17.536  42.218  0.00  0.00    -0.265 OA
ATOM      8  O   UNL d   1      46.358 -18.246  44.955  0.00  0.00    -0.265 OA
ATOM      9  C   UNL d   1      46.596 -19.762  43.838  0.00  0.00     0.005 A 
ATOM     10  C   UNL d   1      46.453 -20.118  42.453  0.00  0.00     0.024 A 
ATOM     11  C   UNL d   1      46.646 -20.318  43.223  0.00  0.00     0.002 A 
ENDROOT
BRANCH   1  12
ATOM     12  N   UNL d   1      45.815 -16.969  43.957  0.00  0.00    -0.189 N 
ATOM     13  C   UNL d   1      46.082 -16.213  43.799  0.00  0.00     0.169 A 
ATOM     14  S   UNL d   1      45.715 -15.702  44.326  0.00  0.00    -0.051 SA
ATOM     15  S   UNL d   1      46.645 -15.992  43.193  0.00  0.00    -0.050 SA
ATOM     16  C   UNL d   1      45.217 -16.140  44.812  0.00  0.00     0.100 A 
ATOM     17  C   UNL d   1      45.273 -16.919  44.592  0.00  0.00     0.287 A 
ATOM     18  O   UNL d   1      44.866 -17.540  44.938  0.00  0.00    -0.265 OA
ENDBRANCH   1  12
BRANCH   6  19
ATOM     19  N   UNL d   1      46.004 -19.151  41.485  0.00  0.00    -0.114 N 
ATOM     20  O   UNL d   1      45.223 -19.208  41.232  0.00  0.00    -0.532 OA
ATOM     21  O   UNL d   1      46.587 -18.896  40.969  0.00  0.00    -0.532 OA
ENDBRANCH   6  19
TORSDOF 2
ENDMDL
