MODEL 1
REMARK VINA RESULT:      -7.1      0.000      0.000
REMARK  2 active torsions:
REMARK  status: ('A' for Active; 'I' for Inactive)
REMARK       I    between atoms: N_2  and  C_1 
REMARK    1  A    between atoms: C_4  and  N_2 
REMARK    2  A    between atoms: O_8  and  C_7 
ROOT
ATOM      1  C   UNL d   1      53.983  32.480  53.669  0.00  0.00     0.102 A 
ATOM      2  C   UNL d   1      54.049  31.656  53.680  0.00  0.00     0.044 A 
ATOM      3  C   UNL d   1      53.451  31.189  53.356  0.00  0.00     0.096 A 
ATOM      4  C   UNL d   1      52.721  32.370  53.010  0.00  0.00     0.004 A 
ATOM      5  C   UNL d   1      53.319  32.837  53.334  0.00  0.00     0.020 A 
ATOM      6  C   UNL d   1      52.787  31.547  53.021  0.00  0.00     0.024 A 
ENDROOT
BRANCH   1   7
ATOM      7  N   UNL d   1      54.580  32.951  53.994  0.00  0.00    -0.056 NA
ATOM      8  C   UNL d   1      54.544  33.188  54.787  0.00  0.00     0.787 C 
ATOM      9  N   UNL d   1      55.137  33.658  55.114  0.00  0.00     0.064 N 
ATOM     10  N   UNL d   1      53.903  32.947  55.251  0.00  0.00     0.064 N 
ENDBRANCH   1   7
BRANCH   3  11
ATOM     11  O   UNL d   1      53.517  30.366  53.367  0.00  0.00    -0.328 OA
ATOM     12  C   UNL d   1      52.838  29.896  53.376  0.00  0.00     0.181 C 
ENDBRANCH   3  11
TORSDOF 2
ENDMDL
MODEL 2
REMARK VINA RESULT:      -7.0      0.977      1.558
REMARK  2 active torsions:
REMARK  status: ('A' for Active; 'I' for Inactive)
REMARK       I    between atoms: N_2  and  C_1 
REMARK    1  A    between atoms: C_4  and  N_2 
REMARK    2  A    between atoms: O_8  and  C_7 
ROOT
ATOM      1  C   UNL d   1      54.026  32.625  53.710  0.00  0.00     0.102 A 
ATOM      2  C   UNL d   1      53.404  32.980  53.299  0.00  0.00     0.044 A 
ATOM      3  C   UNL d   1      52.805  32.516  52.972  0.00  0.00     0.096 A 
ATOM      4  C   UNL d   1      53.452  31.340  53.468  0.00  0.00     0.004 A 
ATOM      5  C   UNL d   1      54.051  31.805  53.795  0.00  0.00     0.020 A 
ATOM      6  C   UNL d   1      52.830  31.695  53.058  0.00  0.00     0.024 A 
ENDROOT
BRANCH   1   7
ATOM      7  N   UNL d   1      54.628  33.088  54.038  0.00  0.00    -0.056 NA
ATOM      8  C   UNL d   1      54.649  33.232  54.854  0.00  0.00     0.787 C 
ATOM      9  N   UNL d   1      55.247  33.692  55.185  0.00  0.00     0.064 N 
ATOM     10  N   UNL d   1      54.061  32.906  55.337  0.00  0.00     0.064 N 
ENDBRANCH   1   7
BRANCH   3  11
ATOM     11  O   UNL d   1      52.182  32.871  52.562  0.00  0.00    -0.328 OA
ATOM     12  C   UNL d   1      51.479  33.055  52.954  0.00  0.00     0.181 C 
ENDBRANCH   3  11
TORSDOF 2
ENDMDL
MODEL 3
REMARK VINA RESULT:      -6.7      2.072      2.929
REMARK  2 active torsions:
REMARK  status: ('A' for Active; 'I' for Inactive)
REMARK       I    between atoms: N_2  and  C_1 
REMARK    1  A    between atoms: C_4  and  N_2 
REMARK    2  A    between atoms: O_8  and  C_7 
ROOT
ATOM      1  C   UNL d   1      52.770  33.202  53.727  0.00  0.00     0.102 A 
ATOM      2  C   UNL d   1      53.170  33.409  54.419  0.00  0.00     0.044 A 
ATOM      3  C   UNL d   1      53.934  33.129  54.556  0.00  0.00     0.096 A 
ATOM      4  C   UNL d   1      53.898  32.434  53.306  0.00  0.00     0.004 A 
ATOM      5  C   UNL d   1      53.134  32.714  53.169  0.00  0.00     0.020 A 
ATOM      6  C   UNL d   1      54.298  32.641  53.998  0.00  0.00     0.024 A 
ENDROOT
BRANCH   1   7
ATOM      7  N   UNL d   1      52.004  33.481  53.587  0.00  0.00    -0.056 NA
ATOM      8  C   UNL d   1      51.884  34.172  53.147  0.00  0.00     0.787 C 
ATOM      9  N   UNL d   1      51.121  34.454  53.005  0.00  0.00     0.064 N 
ATOM     10  N   UNL d   1      52.538  34.581  52.848  0.00  0.00     0.064 N 
ENDBRANCH   1   7
BRANCH   3  11
ATOM     11  O   UNL d   1      54.334  33.336  55.249  0.00  0.00    -0.328 OA
ATOM     12  C   UNL d   1      55.080  33.688  55.207  0.00  0.00     0.181 C 
ENDBRANCH   3  11
TORSDOF 2
ENDMDL
MODEL 4
REMARK VINA RESULT:      -6.7      1.638      2.139
REMARK  2 active torsions:
REMARK  status: ('A' for Active; 'I' for Inactive)
REMARK       I    between atoms: N_2  and  C_1 
REMARK    1  A    between atoms: C_4  and  N_2 
REMARK    2  A    between atoms: O_8  and  C_7 
ROOT
ATOM      1  C   UNL d   1      52.866  32.492  52.908  0.00  0.00     0.102 A 
ATOM      2  C   UNL d   1      52.636  31.702  52.848  0.00  0.00     0.044 A 
ATOM      3  C   UNL d   1      53.044  31.118  53.265  0.00  0.00     0.096 A 
ATOM      4  C   UNL d   1      53.914  32.118  53.803  0.00  0.00     0.004 A 
ATOM      5  C   UNL d   1      53.506  32.702  53.386  0.00  0.00     0.020 A 
ATOM      6  C   UNL d   1      53.684  31.327  53.743  0.00  0.00     0.024 A 
ENDROOT
BRANCH   1   7
ATOM      7  N   UNL d   1      52.459  33.080  52.491  0.00  0.00    -0.056 NA
ATOM      8  C   UNL d   1      51.879  33.536  52.868  0.00  0.00     0.787 C 
ATOM      9  N   UNL d   1      51.471  34.122  52.456  0.00  0.00     0.064 N 
ATOM     10  N   UNL d   1      51.711  33.397  53.666  0.00  0.00     0.064 N 
ENDBRANCH   1   7
BRANCH   3  11
ATOM     11  O   UNL d   1      52.813  30.327  53.205  0.00  0.00    -0.328 OA
ATOM     12  C   UNL d   1      53.174  29.754  53.676  0.00  0.00     0.181 C 
ENDBRANCH   3  11
TORSDOF 2
ENDMDL
MODEL 5
REMARK VINA RESULT:      -6.7      1.940      3.046
REMARK  2 active torsions:
REMARK  status: ('A' for Active; 'I' for Inactive)
REMARK       I    between atoms: N_2  and  C_1 
REMARK    1  A    between atoms: C_4  and  N_2 
REMARK    2  A    between atoms: O_8  and  C_7 
ROOT
ATOM      1  C   UNL d   1      53.603  32.655  53.597  0.00  0.00     0.102 A 
ATOM      2  C   UNL d   1      53.150  33.234  53.974  0.00  0.00     0.044 A 
ATOM      3  C   UNL d   1      53.506  33.759  54.502  0.00  0.00     0.096 A 
ATOM      4  C   UNL d   1      54.769  33.126  54.274  0.00  0.00     0.004 A 
ATOM      5  C   UNL d   1      54.413  32.601  53.747  0.00  0.00     0.020 A 
ATOM      6  C   UNL d   1      54.316  33.705  54.651  0.00  0.00     0.024 A 
ENDROOT
BRANCH   1   7
ATOM      7  N   UNL d   1      53.250  32.127  53.068  0.00  0.00    -0.056 NA
ATOM      8  C   UNL d   1      53.142  31.332  53.277  0.00  0.00     0.787 C 
ATOM      9  N   UNL d   1      52.790  30.802  52.752  0.00  0.00     0.064 N 
ATOM     10  N   UNL d   1      53.392  31.073  54.022  0.00  0.00     0.064 N 
ENDBRANCH   1   7
BRANCH   3  11
ATOM     11  O   UNL d   1      53.053  34.338  54.879  0.00  0.00    -0.328 OA
ATOM     12  C   UNL d   1      53.027  35.106  54.577  0.00  0.00     0.181 C 
ENDBRANCH   3  11
TORSDOF 2
ENDMDL
