MODEL 1
REMARK VINA RESULT:      11.8      0.000      0.000
REMARK  4 active torsions:
REMARK  status: ('A' for Active; 'I' for Inactive)
REMARK    1  A    between atoms: S_6  and  C_2 
REMARK    2  A    between atoms: C_8  and  C_3 
REMARK    3  A    between atoms: C_10  and  S_6 
REMARK    4  A    between atoms: C_7  and  C_10 
ROOT
ATOM      1  N   UNL d   1      45.881 -15.060  44.369  0.00  0.00    -0.282 N 
ATOM      2  C   UNL d   1      45.569 -15.768  44.659  0.00  0.00     0.180 A 
ATOM      3  C   UNL d   1      45.322 -14.470  44.483  0.00  0.00     0.085 A 
ATOM      4  N   UNL d   1      44.810 -15.613  44.955  0.00  0.00    -0.219 NA
ATOM      5  C   UNL d   1      44.661 -14.803  44.843  0.00  0.00     0.119 A 
ATOM      6  C   UNL d   1      46.647 -14.968  44.017  0.00  0.00     0.101 C 
ENDROOT
BRANCH   3   7
ATOM      7  C   UNL d   1      45.375 -13.671  44.285  0.00  0.00     0.018 A 
ATOM      8  C   UNL d   1      45.745 -13.151  44.804  0.00  0.00     0.002 A 
ATOM      9  C   UNL d   1      45.800 -12.349  44.609  0.00  0.00     0.000 A 
ATOM     10  C   UNL d   1      45.478 -12.080  43.885  0.00  0.00     0.000 A 
ATOM     11  C   UNL d   1      45.116 -12.601  43.381  0.00  0.00     0.000 A 
ATOM     12  C   UNL d   1      45.059 -13.406  43.575  0.00  0.00     0.002 A 
ENDBRANCH   3   7
BRANCH   2  13
ATOM     13  S   UNL d   1      45.948 -16.513  44.658  0.00  0.00    -0.044 SA
BRANCH  13  14
ATOM     14  C   UNL d   1      45.645 -17.127  44.187  0.00  0.00     0.102 C 
BRANCH  14  15
ATOM     15  C   UNL d   1      46.029 -17.852  44.167  0.00  0.00     0.303 C 
ATOM     16  O   UNL d   1      46.241 -18.179  43.428  0.00  0.00    -0.263 OA
ATOM     17  N   UNL d   1      46.201 -18.248  44.866  0.00  0.00    -0.102 N 
ENDBRANCH  14  15
ENDBRANCH  13  14
ENDBRANCH   2  13
TORSDOF 4
ENDMDL
MODEL 2
REMARK VINA RESULT:      12.5      1.781      4.753
REMARK  4 active torsions:
REMARK  status: ('A' for Active; 'I' for Inactive)
REMARK    1  A    between atoms: S_6  and  C_2 
REMARK    2  A    between atoms: C_8  and  C_3 
REMARK    3  A    between atoms: C_10  and  S_6 
REMARK    4  A    between atoms: C_7  and  C_10 
ROOT
ATOM      1  N   UNL d   1      46.113 -17.450  43.641  0.00  0.00    -0.282 N 
ATOM      2  C   UNL d   1      45.936 -16.923  44.253  0.00  0.00     0.180 A 
ATOM      3  C   UNL d   1      46.142 -18.207  43.958  0.00  0.00     0.085 A 
ATOM      4  N   UNL d   1      45.855 -17.359  44.954  0.00  0.00    -0.219 NA
ATOM      5  C   UNL d   1      45.985 -18.158  44.765  0.00  0.00     0.119 A 
ATOM      6  C   UNL d   1      46.240 -17.237  42.831  0.00  0.00     0.101 C 
ENDROOT
BRANCH   3   7
ATOM      7  C   UNL d   1      46.299 -18.916  43.569  0.00  0.00     0.018 A 
ATOM      8  C   UNL d   1      46.465 -19.590  44.012  0.00  0.00     0.002 A 
ATOM      9  C   UNL d   1      46.623 -20.305  43.624  0.00  0.00     0.000 A 
ATOM     10  C   UNL d   1      46.611 -20.329  42.789  0.00  0.00     0.000 A 
ATOM     11  C   UNL d   1      46.446 -19.660  42.363  0.00  0.00     0.000 A 
ATOM     12  C   UNL d   1      46.288 -18.942  42.749  0.00  0.00     0.002 A 
ENDBRANCH   3   7
BRANCH   2  13
ATOM     13  S   UNL d   1      45.851 -16.094  44.184  0.00  0.00    -0.044 SA
BRANCH  13  14
ATOM     14  C   UNL d   1      45.619 -15.649  44.845  0.00  0.00     0.102 C 
BRANCH  14  15
ATOM     15  C   UNL d   1      45.494 -14.841  44.769  0.00  0.00     0.303 C 
ATOM     16  O   UNL d   1      46.148 -14.339  44.635  0.00  0.00    -0.263 OA
ATOM     17  N   UNL d   1      44.733 -14.534  44.824  0.00  0.00    -0.102 N 
ENDBRANCH  14  15
ENDBRANCH  13  14
ENDBRANCH   2  13
TORSDOF 4
ENDMDL
