MODEL 1
REMARK VINA RESULT:      -2.3      0.000      0.000
REMARK  5 active torsions:
REMARK  status: ('A' for Active; 'I' for Inactive)
REMARK    1  A    between atoms: C_7  and  N_1 
REMARK       I    between atoms: C_4  and  N_8 
REMARK       I    between atoms: N_10  and  C_4 
REMARK    2  A    between atoms: N_8  and  C_5 
REMARK    3  A    between atoms: C_15  and  N_10 
REMARK    4  A    between atoms: O_18  and  C_14 
REMARK    5  A    between atoms: C_19  and  C_15 
ROOT
ATOM      1  N   UNL d   1      32.944  20.544 -22.162  0.00  0.00    -0.272 N 
ATOM      2  C   UNL d   1      33.126  20.748 -22.943  0.00  0.00     0.266 A 
ATOM      3  C   UNL d   1      33.208  20.038 -23.367  0.00  0.00     0.082 A 
ATOM      4  C   UNL d   1      33.077  19.410 -22.849  0.00  0.00     0.108 A 
ATOM      5  C   UNL d   1      32.914  19.729 -22.104  0.00  0.00     0.102 A 
ATOM      6  O   UNL d   1      33.210  21.506 -23.242  0.00  0.00    -0.267 OA
ENDROOT
BRANCH   1   7
ATOM      7  C   UNL d   1      32.816  21.078 -21.546  0.00  0.00     0.067 A 
ATOM      8  C   UNL d   1      32.263  21.686 -21.637  0.00  0.00     0.020 A 
ATOM      9  C   UNL d   1      32.134  22.220 -21.021  0.00  0.00     0.026 A 
ATOM     10  C   UNL d   1      32.556  22.148 -20.317  0.00  0.00     0.094 A 
ATOM     11  C   UNL d   1      33.107  21.545 -20.222  0.00  0.00     0.026 A 
ATOM     12  C   UNL d   1      33.237  21.005 -20.843  0.00  0.00     0.020 A 
BRANCH  10  13
ATOM     13  O   UNL d   1      32.421  22.686 -19.707  0.00  0.00    -0.328 OA
ATOM     14  C   UNL d   1      33.063  23.026 -19.319  0.00  0.00     0.181 C 
ENDBRANCH  10  13
ENDBRANCH   1   7
BRANCH   4  15
ATOM     15  N   UNL d   1      33.104  18.607 -23.045  0.00  0.00    -0.189 NA
ATOM     16  C   UNL d   1      32.405  18.194 -23.166  0.00  0.00     0.369 C 
ATOM     17  N   UNL d   1      32.427  17.392 -23.363  0.00  0.00    -0.189 NA
ATOM     18  O   UNL d   1      31.679  18.574 -23.093  0.00  0.00    -0.242 OA
BRANCH  17  19
ATOM     19  C   UNL d   1      33.149  17.018 -23.435  0.00  0.00     0.104 C 
BRANCH  19  20
ATOM     20  C   UNL d   1      33.186  16.220 -23.644  0.00  0.00     0.019 C 
ATOM     21  C   UNL d   1      33.174  15.634 -23.068  0.00  0.00     0.002 C 
ATOM     22  C   UNL d   1      33.237  16.004 -24.443  0.00  0.00     0.002 C 
ENDBRANCH  19  20
ENDBRANCH  17  19
ENDBRANCH   4  15
TORSDOF 5
ENDMDL
MODEL 2
REMARK VINA RESULT:      -2.0      1.596      5.269
REMARK  5 active torsions:
REMARK  status: ('A' for Active; 'I' for Inactive)
REMARK    1  A    between atoms: C_7  and  N_1 
REMARK       I    between atoms: C_4  and  N_8 
REMARK       I    between atoms: N_10  and  C_4 
REMARK    2  A    between atoms: N_8  and  C_5 
REMARK    3  A    between atoms: C_15  and  N_10 
REMARK    4  A    between atoms: O_18  and  C_14 
REMARK    5  A    between atoms: C_19  and  C_15 
ROOT
ATOM      1  N   UNL d   1      32.540  18.692 -23.208  0.00  0.00    -0.272 N 
ATOM      2  C   UNL d   1      33.001  18.541 -22.537  0.00  0.00     0.266 A 
ATOM      3  C   UNL d   1      33.241  19.277 -22.237  0.00  0.00     0.082 A 
ATOM      4  C   UNL d   1      32.930  19.869 -22.720  0.00  0.00     0.108 A 
ATOM      5  C   UNL d   1      32.497  19.500 -23.320  0.00  0.00     0.102 A 
ATOM      6  O   UNL d   1      33.185  17.805 -22.226  0.00  0.00    -0.267 OA
ENDROOT
BRANCH   1   7
ATOM      7  C   UNL d   1      32.185  18.118 -23.682  0.00  0.00     0.067 A 
ATOM      8  C   UNL d   1      31.577  17.649 -23.376  0.00  0.00     0.020 A 
ATOM      9  C   UNL d   1      31.222  17.075 -23.850  0.00  0.00     0.026 A 
ATOM     10  C   UNL d   1      31.473  16.969 -24.628  0.00  0.00     0.094 A 
ATOM     11  C   UNL d   1      32.078  17.432 -24.937  0.00  0.00     0.026 A 
ATOM     12  C   UNL d   1      32.436  18.012 -24.458  0.00  0.00     0.020 A 
BRANCH  10  13
ATOM     13  O   UNL d   1      31.113  16.392 -25.095  0.00  0.00    -0.328 OA
ATOM     14  C   UNL d   1      31.274  15.597 -24.954  0.00  0.00     0.181 C 
ENDBRANCH  10  13
ENDBRANCH   1   7
BRANCH   4  15
ATOM     15  N   UNL d   1      33.036  20.683 -22.618  0.00  0.00    -0.189 NA
ATOM     16  C   UNL d   1      32.697  21.059 -21.972  0.00  0.00     0.369 C 
ATOM     17  N   UNL d   1      32.800  21.872 -21.865  0.00  0.00    -0.189 NA
ATOM     18  O   UNL d   1      32.254  20.631 -21.427  0.00  0.00    -0.242 OA
BRANCH  17  19
ATOM     19  C   UNL d   1      33.241  22.293 -22.407  0.00  0.00     0.104 C 
BRANCH  19  20
ATOM     20  C   UNL d   1      33.152  23.111 -22.472  0.00  0.00     0.019 C 
ATOM     21  C   UNL d   1      33.179  23.590 -21.804  0.00  0.00     0.002 C 
ATOM     22  C   UNL d   1      33.033  23.456 -23.215  0.00  0.00     0.002 C 
ENDBRANCH  19  20
ENDBRANCH  17  19
ENDBRANCH   4  15
TORSDOF 5
ENDMDL
MODEL 3
REMARK VINA RESULT:      -0.9      3.001      5.715
REMARK  5 active torsions:
REMARK  status: ('A' for Active; 'I' for Inactive)
REMARK    1  A    between atoms: C_7  and  N_1 
REMARK       I    between atoms: C_4  and  N_8 
REMARK       I    between atoms: N_10  and  C_4 
REMARK    2  A    between atoms: N_8  and  C_5 
REMARK    3  A    between atoms: C_15  and  N_10 
REMARK    4  A    between atoms: O_18  and  C_14 
REMARK    5  A    between atoms: C_19  and  C_15 
ROOT
ATOM      1  N   UNL d   1      30.505  16.637 -23.788  0.00  0.00    -0.272 N 
ATOM      2  C   UNL d   1      31.148  16.219 -24.099  0.00  0.00     0.266 A 
ATOM      3  C   UNL d   1      31.806  16.725 -24.063  0.00  0.00     0.082 A 
ATOM      4  C   UNL d   1      31.565  17.442 -23.733  0.00  0.00     0.108 A 
ATOM      5  C   UNL d   1      30.758  17.381 -23.565  0.00  0.00     0.102 A 
ATOM      6  O   UNL d   1      31.139  15.453 -24.388  0.00  0.00    -0.267 OA
ENDROOT
BRANCH   1   7
ATOM      7  C   UNL d   1      29.736  16.346 -23.717  0.00  0.00     0.067 A 
ATOM      8  C   UNL d   1      29.572  15.743 -23.175  0.00  0.00     0.020 A 
ATOM      9  C   UNL d   1      28.804  15.453 -23.103  0.00  0.00     0.026 A 
ATOM     10  C   UNL d   1      28.200  15.762 -23.571  0.00  0.00     0.094 A 
ATOM     11  C   UNL d   1      28.357  16.361 -24.112  0.00  0.00     0.026 A 
ATOM     12  C   UNL d   1      29.134  16.655 -24.184  0.00  0.00     0.020 A 
BRANCH  10  13
ATOM     13  O   UNL d   1      27.434  15.465 -23.493  0.00  0.00    -0.328 OA
ATOM     14  C   UNL d   1      26.828  15.969 -23.254  0.00  0.00     0.181 C 
ENDBRANCH  10  13
ENDBRANCH   1   7
BRANCH   4  15
ATOM     15  N   UNL d   1      32.049  18.099 -23.598  0.00  0.00    -0.189 NA
ATOM     16  C   UNL d   1      32.701  18.029 -23.105  0.00  0.00     0.369 C 
ATOM     17  N   UNL d   1      33.188  18.682 -22.966  0.00  0.00    -0.189 NA
ATOM     18  O   UNL d   1      32.875  17.310 -22.745  0.00  0.00    -0.242 OA
BRANCH  17  19
ATOM     19  C   UNL d   1      33.013  19.393 -23.325  0.00  0.00     0.104 C 
BRANCH  19  20
ATOM     20  C   UNL d   1      33.139  20.104 -22.925  0.00  0.00     0.019 C 
ATOM     21  C   UNL d   1      33.240  20.115 -22.109  0.00  0.00     0.002 C 
ATOM     22  C   UNL d   1      33.166  20.817 -23.347  0.00  0.00     0.002 C 
ENDBRANCH  19  20
ENDBRANCH  17  19
ENDBRANCH   4  15
TORSDOF 5
ENDMDL
MODEL 4
REMARK VINA RESULT:      -0.5      1.423      2.448
REMARK  5 active torsions:
REMARK  status: ('A' for Active; 'I' for Inactive)
REMARK    1  A    between atoms: C_7  and  N_1 
REMARK       I    between atoms: C_4  and  N_8 
REMARK       I    between atoms: N_10  and  C_4 
REMARK    2  A    between atoms: N_8  and  C_5 
REMARK    3  A    between atoms: C_15  and  N_10 
REMARK    4  A    between atoms: O_18  and  C_14 
REMARK    5  A    between atoms: C_19  and  C_15 
ROOT
ATOM      1  N   UNL d   1      32.558  22.273 -20.770  0.00  0.00    -0.272 N 
ATOM      2  C   UNL d   1      32.330  22.645 -21.473  0.00  0.00     0.266 A 
ATOM      3  C   UNL d   1      32.431  22.092 -22.084  0.00  0.00     0.082 A 
ATOM      4  C   UNL d   1      32.716  21.391 -21.756  0.00  0.00     0.108 A 
ATOM      5  C   UNL d   1      32.793  21.509 -20.941  0.00  0.00     0.102 A 
ATOM      6  O   UNL d   1      32.057  23.414 -21.553  0.00  0.00    -0.267 OA
ENDROOT
BRANCH   1   7
ATOM      7  C   UNL d   1      32.548  22.619 -20.021  0.00  0.00     0.067 A 
ATOM      8  C   UNL d   1      33.240  22.646 -19.570  0.00  0.00     0.020 A 
ATOM      9  C   UNL d   1      33.230  22.992 -18.822  0.00  0.00     0.026 A 
ATOM     10  C   UNL d   1      32.531  23.311 -18.524  0.00  0.00     0.094 A 
ATOM     11  C   UNL d   1      31.839  23.287 -18.968  0.00  0.00     0.026 A 
ATOM     12  C   UNL d   1      31.850  22.938 -19.724  0.00  0.00     0.020 A 
BRANCH  10  13
ATOM     13  O   UNL d   1      32.529  23.656 -17.774  0.00  0.00    -0.328 OA
ATOM     14  C   UNL d   1      32.218  23.237 -17.137  0.00  0.00     0.181 C 
ENDBRANCH  10  13
ENDBRANCH   1   7
BRANCH   4  15
ATOM     15  N   UNL d   1      32.892  20.698 -22.172  0.00  0.00    -0.189 NA
ATOM     16  C   UNL d   1      32.716  19.969 -21.839  0.00  0.00     0.369 C 
ATOM     17  N   UNL d   1      32.890  19.273 -22.251  0.00  0.00    -0.189 NA
ATOM     18  O   UNL d   1      32.367  19.923 -21.096  0.00  0.00    -0.242 OA
BRANCH  17  19
ATOM     19  C   UNL d   1      33.236  19.321 -22.988  0.00  0.00     0.104 C 
BRANCH  19  20
ATOM     20  C   UNL d   1      33.102  18.733 -23.551  0.00  0.00     0.019 C 
ATOM     21  C   UNL d   1      32.935  18.930 -24.332  0.00  0.00     0.002 C 
ATOM     22  C   UNL d   1      33.134  17.935 -23.331  0.00  0.00     0.002 C 
ENDBRANCH  19  20
ENDBRANCH  17  19
ENDBRANCH   4  15
TORSDOF 5
ENDMDL
MODEL 5
REMARK VINA RESULT:      -0.0      3.528      4.525
REMARK  5 active torsions:
REMARK  status: ('A' for Active; 'I' for Inactive)
REMARK    1  A    between atoms: C_7  and  N_1 
REMARK       I    between atoms: C_4  and  N_8 
REMARK       I    between atoms: N_10  and  C_4 
REMARK    2  A    between atoms: N_8  and  C_5 
REMARK    3  A    between atoms: C_15  and  N_10 
REMARK    4  A    between atoms: O_18  and  C_14 
REMARK    5  A    between atoms: C_19  and  C_15 
ROOT
ATOM      1  N   UNL d   1      32.415  22.637 -19.842  0.00  0.00    -0.272 N 
ATOM      2  C   UNL d   1      31.906  22.050 -20.129  0.00  0.00     0.266 A 
ATOM      3  C   UNL d   1      31.945  22.081 -20.958  0.00  0.00     0.082 A 
ATOM      4  C   UNL d   1      32.471  22.679 -21.172  0.00  0.00     0.108 A 
ATOM      5  C   UNL d   1      32.759  23.020 -20.476  0.00  0.00     0.102 A 
ATOM      6  O   UNL d   1      31.451  21.537 -19.681  0.00  0.00    -0.267 OA
ENDROOT
BRANCH   1   7
ATOM      7  C   UNL d   1      32.550  22.804 -19.045  0.00  0.00     0.067 A 
ATOM      8  C   UNL d   1      33.106  22.363 -18.620  0.00  0.00     0.020 A 
ATOM      9  C   UNL d   1      33.241  22.530 -17.823  0.00  0.00     0.026 A 
ATOM     10  C   UNL d   1      32.823  23.135 -17.452  0.00  0.00     0.094 A 
ATOM     11  C   UNL d   1      32.269  23.576 -17.870  0.00  0.00     0.026 A 
ATOM     12  C   UNL d   1      32.133  23.408 -18.674  0.00  0.00     0.020 A 
BRANCH  10  13
ATOM     13  O   UNL d   1      32.964  23.295 -16.655  0.00  0.00    -0.328 OA
ATOM     14  C   UNL d   1      33.152  22.676 -16.145  0.00  0.00     0.181 C 
ENDBRANCH  10  13
ENDBRANCH   1   7
BRANCH   4  15
ATOM     15  N   UNL d   1      32.670  22.894 -21.946  0.00  0.00    -0.189 NA
ATOM     16  C   UNL d   1      33.040  22.350 -22.436  0.00  0.00     0.369 C 
ATOM     17  N   UNL d   1      33.241  22.560 -23.210  0.00  0.00    -0.189 NA
ATOM     18  O   UNL d   1      33.213  21.594 -22.163  0.00  0.00    -0.242 OA
BRANCH  17  19
ATOM     19  C   UNL d   1      33.067  23.310 -23.478  0.00  0.00     0.104 C 
BRANCH  19  20
ATOM     20  C   UNL d   1      32.736  23.420 -24.226  0.00  0.00     0.019 C 
ATOM     21  C   UNL d   1      33.171  23.259 -24.905  0.00  0.00     0.002 C 
ATOM     22  C   UNL d   1      31.957  23.694 -24.297  0.00  0.00     0.002 C 
ENDBRANCH  19  20
ENDBRANCH  17  19
ENDBRANCH   4  15
TORSDOF 5
ENDMDL
