MODEL 1
REMARK VINA RESULT:      52.5      0.000      0.000
REMARK  2 active torsions:
REMARK  status: ('A' for Active; 'I' for Inactive)
REMARK    1  A    between atoms: C_9  and  N_2 
REMARK    2  A    between atoms: C_7  and  C_4 
ROOT
ATOM      1  C   UNL d   1     -54.758-100.884 -42.373  0.00  0.00     0.136 A 
ATOM      2  N   UNL d   1     -54.769-101.097 -43.172  0.00  0.00    -0.281 N 
ATOM      3  C   UNL d   1     -54.752-101.476 -41.794  0.00  0.00     0.152 A 
ATOM      4  C   UNL d   1     -54.774-101.902 -43.388  0.00  0.00     0.175 A 
ATOM      5  N   UNL d   1     -54.768-102.486 -42.804  0.00  0.00    -0.188 NA
ATOM      6  C   UNL d   1     -54.757-102.272 -42.008  0.00  0.00     0.292 A 
ATOM      7  C   UNL d   1     -54.742-101.262 -40.998  0.00  0.00     0.108 C 
ATOM      8  N   UNL d   1     -54.731-101.051 -40.196  0.00  0.00    -0.191 NA
ATOM      9  S   UNL d   1     -54.754-100.090 -42.150  0.00  0.00    -0.058 SA
ATOM     10  O   UNL d   1     -54.751-102.858 -41.419  0.00  0.00    -0.264 OA
ENDROOT
BRANCH   2  11
ATOM     11  C   UNL d   1     -54.775-100.514 -43.749  0.00  0.00     0.066 A 
ATOM     12  C   UNL d   1     -54.716-100.728 -44.544  0.00  0.00     0.020 A 
ATOM     13  C   UNL d   1     -54.722-100.141 -45.122  0.00  0.00     0.031 A 
ATOM     14  C   UNL d   1     -54.787 -99.344 -44.909  0.00  0.00     0.140 A 
ATOM     15  C   UNL d   1     -54.846 -99.133 -44.109  0.00  0.00     0.031 A 
ATOM     16  F   UNL d   1     -54.793 -98.759 -45.495  0.00  0.00    -0.204 F 
ATOM     17  C   UNL d   1     -54.840 -99.720 -43.531  0.00  0.00     0.020 A 
ENDBRANCH   2  11
BRANCH   4  18
ATOM     18  C   UNL d   1     -54.784-102.116 -44.184  0.00  0.00     0.135 A 
ATOM     19  O   UNL d   1     -54.854-102.880 -44.476  0.00  0.00    -0.302 OA
ATOM     20  C   UNL d   1     -54.839-102.834 -45.295  0.00  0.00     0.123 A 
ATOM     21  C   UNL d   1     -54.762-102.044 -45.509  0.00  0.00     0.029 A 
ATOM     22  C   UNL d   1     -54.727-101.595 -44.832  0.00  0.00     0.030 A 
ENDBRANCH   4  18
TORSDOF 2
ENDMDL
