MODEL 1
REMARK VINA RESULT:      39.2      0.000      0.000
REMARK  6 active torsions:
REMARK  status: ('A' for Active; 'I' for Inactive)
REMARK    1  A    between atoms: C_18  and  N_5 
REMARK    2  A    between atoms: S_11  and  C_6 
REMARK    3  A    between atoms: C_10  and  C_12 
REMARK    4  A    between atoms: C_15  and  S_11 
REMARK    5  A    between atoms: C_12  and  C_15 
REMARK    6  A    between atoms: C_21  and  C_18 
ROOT
ATOM      1  C   UNL d   1      15.022  15.319  -1.302  0.00  0.00     0.081 A 
ATOM      2  C   UNL d   1      14.755  15.273  -2.072  0.00  0.00     0.117 A 
ATOM      3  N   UNL d   1      14.491  14.554  -2.376  0.00  0.00    -0.215 NA
ATOM      4  C   UNL d   1      15.018  14.603  -0.831  0.00  0.00     0.268 A 
ATOM      5  N   UNL d   1      14.753  13.910  -1.157  0.00  0.00    -0.253 N 
ATOM      6  C   UNL d   1      14.504  13.888  -1.888  0.00  0.00     0.182 A 
ATOM      7  S   UNL d   1      14.823  16.024  -2.374  0.00  0.00    -0.068 SA
ATOM      8  C   UNL d   1      15.238  16.061  -1.156  0.00  0.00     0.013 A 
ATOM      9  C   UNL d   1      15.109  16.519  -1.853  0.00  0.00     0.031 A 
ATOM     10  O   UNL d   1      15.297  14.637  -0.017  0.00  0.00    -0.267 OA
ATOM     11  C   UNL d   1      15.545  16.318  -0.412  0.00  0.00     0.001 C 
ATOM     12  C   UNL d   1      15.262  17.344  -1.952  0.00  0.00     0.007 C 
ENDROOT
BRANCH   6  13
ATOM     13  S   UNL d   1      14.233  13.167  -2.212  0.00  0.00    -0.046 SA
BRANCH  13  14
ATOM     14  C   UNL d   1      13.519  13.144  -2.659  0.00  0.00     0.081 C 
BRANCH  14  15
ATOM     15  C   UNL d   1      13.256  12.454  -3.008  0.00  0.00     0.208 C 
ATOM     16  O   UNL d   1      13.087  11.780  -2.547  0.00  0.00    -0.285 OA
BRANCH  15  17
ATOM     17  C   UNL d   1      13.154  12.401  -3.785  0.00  0.00     0.069 A 
ATOM     18  S   UNL d   1      12.824  13.032  -4.246  0.00  0.00    -0.083 SA
ATOM     19  C   UNL d   1      12.799  12.786  -5.032  0.00  0.00     0.035 A 
ATOM     20  C   UNL d   1      13.097  12.028  -5.097  0.00  0.00     0.008 A 
ATOM     21  C   UNL d   1      13.313  11.781  -4.374  0.00  0.00     0.010 A 
ENDBRANCH  15  17
ENDBRANCH  14  15
ENDBRANCH  13  14
ENDBRANCH   6  13
BRANCH   5  22
ATOM     22  C   UNL d   1      14.740  13.220  -0.728  0.00  0.00     0.085 C 
BRANCH  22  23
ATOM     23  C   UNL d   1      15.387  12.707  -0.725  0.00  0.00     0.019 C 
ATOM     24  C   UNL d   1      15.646  12.328  -0.036  0.00  0.00     0.002 C 
ENDBRANCH  22  23
ENDBRANCH   5  22
TORSDOF 6
ENDMDL
