MODEL 1
REMARK VINA RESULT:      53.4      0.000      0.000
REMARK  0 active torsions:
REMARK  status: ('A' for Active; 'I' for Inactive)
REMARK       I    between atoms: N_3  and  C_1 
REMARK       I    between atoms: N_5  and  C_1 
REMARK       I    between atoms: C_2  and  N_4 
REMARK       I    between atoms: N_6  and  C_2 
ROOT
ATOM      1  C   UNL d   1      57.938  49.699  51.317  0.00  0.00     0.339 C 
ATOM      2  C   UNL d   1      61.234  49.704  51.162  0.00  0.00     0.340 C 
ATOM      3  N   UNL d   1      58.774  49.700  51.274  0.00  0.00    -0.254 N 
ATOM      4  N   UNL d   1      60.410  49.703  51.197  0.00  0.00    -0.254 N 
ATOM      5  N   UNL d   1      57.488  49.702  50.626  0.00  0.00    -0.258 N 
ATOM      6  N   UNL d   1      61.675  49.701  51.855  0.00  0.00    -0.253 N 
ATOM      7  O   UNL d   1      57.568  49.696  52.049  0.00  0.00    -0.245 OA
ATOM      8  O   UNL d   1      61.620  49.707  50.431  0.00  0.00    -0.245 OA
ATOM      9  C   UNL d   1      59.963  49.705  50.484  0.00  0.00     0.104 A 
ATOM     10  C   UNL d   1      60.030  49.699  51.919  0.00  0.00     0.104 A 
ATOM     11  C   UNL d   1      59.206  49.698  51.958  0.00  0.00     0.104 A 
ATOM     12  C   UNL d   1      59.139  49.704  50.523  0.00  0.00     0.104 A 
ATOM     13  O   UNL d   1      62.546  49.697  53.252  0.00  0.00    -0.300 OA
ATOM     14  C   UNL d   1      61.288  49.698  52.586  0.00  0.00     0.111 A 
ATOM     15  C   UNL d   1      62.499  49.702  51.816  0.00  0.00     0.111 A 
ATOM     16  C   UNL d   1      56.670  49.700  50.727  0.00  0.00     0.085 A 
ATOM     17  C   UNL d   1      57.917  49.705  49.917  0.00  0.00     0.085 A 
ATOM     18  C   UNL d   1      62.937  49.700  52.521  0.00  0.00     0.142 A 
ATOM     19  C   UNL d   1      61.721  49.696  53.279  0.00  0.00     0.142 A 
ATOM     20  C   UNL d   1      56.081  49.702  50.154  0.00  0.00     0.019 A 
ATOM     21  C   UNL d   1      57.630  49.708  49.143  0.00  0.00     0.019 A 
ATOM     22  C   UNL d   1      56.154  49.705  49.337  0.00  0.00     0.002 A 
ATOM     23  C   UNL d   1      56.847  49.708  48.887  0.00  0.00     0.002 A 
ENDROOT
TORSDOF 0
ENDMDL
