MODEL 1
REMARK VINA RESULT:      -7.5      0.000      0.000
REMARK  6 active torsions:
REMARK  status: ('A' for Active; 'I' for Inactive)
REMARK    1  A    between atoms: C_2  and  S_1 
REMARK    2  A    between atoms: N_3  and  S_1 
REMARK    3  A    between atoms: C_10  and  N_3 
REMARK    4  A    between atoms: O_15  and  C_5 
REMARK    5  A    between atoms: C_13  and  C_10 
REMARK    6  A    between atoms: C_17  and  O_15 
ROOT
ATOM      1  S   UNL d   1      52.090  34.187  53.366  0.00  0.00     0.285 S 
ATOM      2  O   UNL d   1      52.610  34.613  52.879  0.00  0.00    -0.198 OA
ATOM      3  O   UNL d   1      51.573  33.765  53.850  0.00  0.00    -0.198 OA
ENDROOT
BRANCH   1   4
ATOM      4  C   UNL d   1      52.731  33.892  53.792  0.00  0.00     0.107 A 
ATOM      5  C   UNL d   1      53.022  33.135  53.629  0.00  0.00     0.038 A 
ATOM      6  C   UNL d   1      53.669  32.836  54.060  0.00  0.00     0.111 A 
ATOM      7  C   UNL d   1      54.020  33.297  54.650  0.00  0.00     0.081 A 
ATOM      8  C   UNL d   1      53.729  34.050  54.811  0.00  0.00     0.014 A 
ATOM      9 CL   UNL d   1      54.662  33.001  55.077  0.00  0.00    -0.080 Cl
ATOM     10  C   UNL d   1      53.082  34.348  54.381  0.00  0.00     0.014 A 
BRANCH   6  11
ATOM     11  O   UNL d   1      53.961  32.082  53.898  0.00  0.00    -0.304 OA
BRANCH  11  12
ATOM     12  C   UNL d   1      53.450  31.495  53.630  0.00  0.00     0.123 C 
ATOM     13  C   UNL d   1      53.744  30.746  53.453  0.00  0.00     0.029 C 
ENDBRANCH  11  12
ENDBRANCH   6  11
ENDBRANCH   1   4
BRANCH   1  14
ATOM     14  N   UNL d   1      51.448  34.483  52.939  0.00  0.00    -0.155 NA
BRANCH  14  15
ATOM     15  C   UNL d   1      50.727  34.079  52.948  0.00  0.00     0.131 C 
BRANCH  15  16
ATOM     16  C   UNL d   1      50.077  34.391  52.545  0.00  0.00     0.101 A 
ATOM     17  N   UNL d   1      49.554  34.895  52.933  0.00  0.00    -0.242 NA
ATOM     18  C   UNL d   1      48.904  35.206  52.531  0.00  0.00     0.099 A 
ATOM     19  C   UNL d   1      48.778  35.013  51.740  0.00  0.00     0.021 A 
ATOM     20  C   UNL d   1      49.302  34.507  51.349  0.00  0.00     0.003 A 
ATOM     21  C   UNL d   1      49.951  34.196  51.751  0.00  0.00     0.021 A 
ENDBRANCH  15  16
ENDBRANCH  14  15
ENDBRANCH   1  14
TORSDOF 6
ENDMDL
MODEL 2
REMARK VINA RESULT:      -7.2      0.854      1.630
REMARK  6 active torsions:
REMARK  status: ('A' for Active; 'I' for Inactive)
REMARK    1  A    between atoms: C_2  and  S_1 
REMARK    2  A    between atoms: N_3  and  S_1 
REMARK    3  A    between atoms: C_10  and  N_3 
REMARK    4  A    between atoms: O_15  and  C_5 
REMARK    5  A    between atoms: C_13  and  C_10 
REMARK    6  A    between atoms: C_17  and  O_15 
ROOT
ATOM      1  S   UNL d   1      51.618  33.773  53.060  0.00  0.00     0.285 S 
ATOM      2  O   UNL d   1      51.205  33.417  53.686  0.00  0.00    -0.198 OA
ATOM      3  O   UNL d   1      52.028  34.127  52.439  0.00  0.00    -0.198 OA
ENDROOT
BRANCH   1   4
ATOM      4  C   UNL d   1      52.239  33.240  53.165  0.00  0.00     0.107 A 
ATOM      5  C   UNL d   1      52.921  33.475  53.571  0.00  0.00     0.038 A 
ATOM      6  C   UNL d   1      53.547  32.936  53.677  0.00  0.00     0.111 A 
ATOM      7  C   UNL d   1      53.486  32.167  53.377  0.00  0.00     0.081 A 
ATOM      8  C   UNL d   1      52.807  31.936  52.974  0.00  0.00     0.014 A 
ATOM      9 CL   UNL d   1      54.107  31.634  53.483  0.00  0.00    -0.080 Cl
ATOM     10  C   UNL d   1      52.180  32.475  52.868  0.00  0.00     0.014 A 
BRANCH   6  11
ATOM     11  O   UNL d   1      54.227  33.168  54.081  0.00  0.00    -0.304 OA
BRANCH  11  12
ATOM     12  C   UNL d   1      54.164  33.500  54.831  0.00  0.00     0.123 C 
ATOM     13  C   UNL d   1      54.841  33.766  55.219  0.00  0.00     0.029 C 
ENDBRANCH  11  12
ENDBRANCH   6  11
ENDBRANCH   1   4
BRANCH   1  14
ATOM     14  N   UNL d   1      50.997  34.307  52.955  0.00  0.00    -0.155 NA
BRANCH  14  15
ATOM     15  C   UNL d   1      50.240  34.027  52.776  0.00  0.00     0.131 C 
BRANCH  15  16
ATOM     16  C   UNL d   1      49.632  34.561  52.617  0.00  0.00     0.101 A 
ATOM     17  N   UNL d   1      49.371  35.077  53.205  0.00  0.00    -0.242 NA
ATOM     18  C   UNL d   1      48.763  35.611  53.046  0.00  0.00     0.099 A 
ATOM     19  C   UNL d   1      48.415  35.630  52.300  0.00  0.00     0.021 A 
ATOM     20  C   UNL d   1      48.675  35.113  51.708  0.00  0.00     0.003 A 
ATOM     21  C   UNL d   1      49.283  34.579  51.867  0.00  0.00     0.021 A 
ENDBRANCH  15  16
ENDBRANCH  14  15
ENDBRANCH   1  14
TORSDOF 6
ENDMDL
MODEL 3
REMARK VINA RESULT:      -7.1      2.002      4.787
REMARK  6 active torsions:
REMARK  status: ('A' for Active; 'I' for Inactive)
REMARK    1  A    between atoms: C_2  and  S_1 
REMARK    2  A    between atoms: N_3  and  S_1 
REMARK    3  A    between atoms: C_10  and  N_3 
REMARK    4  A    between atoms: O_15  and  C_5 
REMARK    5  A    between atoms: C_13  and  C_10 
REMARK    6  A    between atoms: C_17  and  O_15 
ROOT
ATOM      1  S   UNL d   1      51.523  34.167  53.176  0.00  0.00     0.285 S 
ATOM      2  O   UNL d   1      51.153  33.509  53.521  0.00  0.00    -0.198 OA
ATOM      3  O   UNL d   1      51.891  34.820  52.833  0.00  0.00    -0.198 OA
ENDROOT
BRANCH   1   4
ATOM      4  C   UNL d   1      50.870  34.276  52.683  0.00  0.00     0.107 A 
ATOM      5  C   UNL d   1      50.171  34.594  52.989  0.00  0.00     0.038 A 
ATOM      6  C   UNL d   1      49.512  34.704  52.491  0.00  0.00     0.111 A 
ATOM      7  C   UNL d   1      49.558  34.495  51.692  0.00  0.00     0.081 A 
ATOM      8  C   UNL d   1      50.255  34.178  51.390  0.00  0.00     0.014 A 
ATOM      9 CL   UNL d   1      48.905  34.604  51.200  0.00  0.00    -0.080 Cl
ATOM     10  C   UNL d   1      50.914  34.068  51.888  0.00  0.00     0.014 A 
BRANCH   6  11
ATOM     11  O   UNL d   1      48.814  35.022  52.794  0.00  0.00    -0.304 OA
BRANCH  11  12
ATOM     12  C   UNL d   1      48.845  35.675  53.293  0.00  0.00     0.123 C 
ATOM     13  C   UNL d   1      48.145  36.025  53.553  0.00  0.00     0.029 C 
ENDBRANCH  11  12
ENDBRANCH   6  11
ENDBRANCH   1   4
BRANCH   1  14
ATOM     14  N   UNL d   1      52.176  34.058  53.669  0.00  0.00    -0.155 NA
BRANCH  14  15
ATOM     15  C   UNL d   1      52.624  33.365  53.612  0.00  0.00     0.131 C 
BRANCH  15  16
ATOM     16  C   UNL d   1      53.348  33.311  54.004  0.00  0.00     0.101 A 
ATOM     17  N   UNL d   1      53.427  33.608  54.768  0.00  0.00    -0.242 NA
ATOM     18  C   UNL d   1      54.150  33.554  55.160  0.00  0.00     0.099 A 
ATOM     19  C   UNL d   1      54.795  33.201  54.789  0.00  0.00     0.021 A 
ATOM     20  C   UNL d   1      54.718  32.901  54.022  0.00  0.00     0.003 A 
ATOM     21  C   UNL d   1      53.995  32.956  53.630  0.00  0.00     0.021 A 
ENDBRANCH  15  16
ENDBRANCH  14  15
ENDBRANCH   1  14
TORSDOF 6
ENDMDL
MODEL 4
REMARK VINA RESULT:      -7.0      1.956      4.193
REMARK  6 active torsions:
REMARK  status: ('A' for Active; 'I' for Inactive)
REMARK    1  A    between atoms: C_2  and  S_1 
REMARK    2  A    between atoms: N_3  and  S_1 
REMARK    3  A    between atoms: C_10  and  N_3 
REMARK    4  A    between atoms: O_15  and  C_5 
REMARK    5  A    between atoms: C_13  and  C_10 
REMARK    6  A    between atoms: C_17  and  O_15 
ROOT
ATOM      1  S   UNL d   1      53.638  32.598  54.113  0.00  0.00     0.285 S 
ATOM      2  O   UNL d   1      53.922  32.697  53.340  0.00  0.00    -0.198 OA
ATOM      3  O   UNL d   1      53.357  32.500  54.882  0.00  0.00    -0.198 OA
ENDROOT
BRANCH   1   4
ATOM      4  C   UNL d   1      53.462  33.403  54.151  0.00  0.00     0.107 A 
ATOM      5  C   UNL d   1      52.799  33.700  53.755  0.00  0.00     0.038 A 
ATOM      6  C   UNL d   1      52.621  34.513  53.793  0.00  0.00     0.111 A 
ATOM      7  C   UNL d   1      53.108  35.022  54.227  0.00  0.00     0.081 A 
ATOM      8  C   UNL d   1      53.767  34.725  54.621  0.00  0.00     0.014 A 
ATOM      9 CL   UNL d   1      52.932  35.827  54.265  0.00  0.00    -0.080 Cl
ATOM     10  C   UNL d   1      53.945  33.912  54.583  0.00  0.00     0.014 A 
BRANCH   6  11
ATOM     11  O   UNL d   1      51.962  34.810  53.399  0.00  0.00    -0.304 OA
BRANCH  11  12
ATOM     12  C   UNL d   1      51.372  34.297  53.143  0.00  0.00     0.123 C 
ATOM     13  C   UNL d   1      50.719  34.592  52.736  0.00  0.00     0.029 C 
ENDBRANCH  11  12
ENDBRANCH   6  11
ENDBRANCH   1   4
BRANCH   1  14
ATOM     14  N   UNL d   1      53.814  31.793  54.076  0.00  0.00    -0.155 NA
BRANCH  14  15
ATOM     15  C   UNL d   1      53.542  31.341  53.438  0.00  0.00     0.131 C 
BRANCH  15  16
ATOM     16  C   UNL d   1      53.347  30.548  53.551  0.00  0.00     0.101 A 
ATOM     17  N   UNL d   1      53.733  30.105  54.129  0.00  0.00    -0.242 NA
ATOM     18  C   UNL d   1      53.538  29.312  54.242  0.00  0.00     0.099 A 
ATOM     19  C   UNL d   1      52.956  28.961  53.776  0.00  0.00     0.021 A 
ATOM     20  C   UNL d   1      52.567  29.402  53.195  0.00  0.00     0.003 A 
ATOM     21  C   UNL d   1      52.763  30.196  53.083  0.00  0.00     0.021 A 
ENDBRANCH  15  16
ENDBRANCH  14  15
ENDBRANCH   1  14
TORSDOF 6
ENDMDL
MODEL 5
REMARK VINA RESULT:      -6.4      2.694      3.577
REMARK  6 active torsions:
REMARK  status: ('A' for Active; 'I' for Inactive)
REMARK    1  A    between atoms: C_2  and  S_1 
REMARK    2  A    between atoms: N_3  and  S_1 
REMARK    3  A    between atoms: C_10  and  N_3 
REMARK    4  A    between atoms: O_15  and  C_5 
REMARK    5  A    between atoms: C_13  and  C_10 
REMARK    6  A    between atoms: C_17  and  O_15 
ROOT
ATOM      1  S   UNL d   1      53.357  32.198  53.645  0.00  0.00     0.285 S 
ATOM      2  O   UNL d   1      54.176  32.066  53.608  0.00  0.00    -0.198 OA
ATOM      3  O   UNL d   1      52.545  32.330  53.681  0.00  0.00    -0.198 OA
ENDROOT
BRANCH   1   4
ATOM      4  C   UNL d   1      53.220  31.417  53.417  0.00  0.00     0.107 A 
ATOM      5  C   UNL d   1      53.454  30.796  53.911  0.00  0.00     0.038 A 
ATOM      6  C   UNL d   1      53.316  30.007  53.680  0.00  0.00     0.111 A 
ATOM      7  C   UNL d   1      52.945  29.847  52.958  0.00  0.00     0.081 A 
ATOM      8  C   UNL d   1      52.714  30.467  52.468  0.00  0.00     0.014 A 
ATOM      9 CL   UNL d   1      52.809  29.066  52.730  0.00  0.00    -0.080 Cl
ATOM     10  C   UNL d   1      52.852  31.255  52.699  0.00  0.00     0.014 A 
BRANCH   6  11
ATOM     11  O   UNL d   1      53.547  29.387  54.171  0.00  0.00    -0.304 OA
BRANCH  11  12
ATOM     12  C   UNL d   1      53.158  29.263  54.885  0.00  0.00     0.123 C 
ATOM     13  C   UNL d   1      53.419  28.673  55.397  0.00  0.00     0.029 C 
ENDBRANCH  11  12
ENDBRANCH   6  11
ENDBRANCH   1   4
BRANCH   1  14
ATOM     14  N   UNL d   1      53.494  32.979  53.873  0.00  0.00    -0.155 NA
BRANCH  14  15
ATOM     15  C   UNL d   1      52.860  33.458  54.103  0.00  0.00     0.131 C 
BRANCH  15  16
ATOM     16  C   UNL d   1      52.993  34.248  54.303  0.00  0.00     0.101 A 
ATOM     17  N   UNL d   1      53.323  34.438  55.033  0.00  0.00    -0.242 NA
ATOM     18  C   UNL d   1      53.456  35.227  55.234  0.00  0.00     0.099 A 
ATOM     19  C   UNL d   1      53.259  35.826  54.704  0.00  0.00     0.021 A 
ATOM     20  C   UNL d   1      52.928  35.637  53.970  0.00  0.00     0.003 A 
ATOM     21  C   UNL d   1      52.795  34.848  53.769  0.00  0.00     0.021 A 
ENDBRANCH  15  16
ENDBRANCH  14  15
ENDBRANCH   1  14
TORSDOF 6
ENDMDL
