MODEL 1
REMARK VINA RESULT:     109.1      0.000      0.000
REMARK  7 active torsions:
REMARK  status: ('A' for Active; 'I' for Inactive)
REMARK    1  A    between atoms: N_15  and  C_4 
REMARK    2  A    between atoms: C_17  and  N_5 
REMARK    3  A    between atoms: C_19  and  N_10 
REMARK    4  A    between atoms: C_11  and  S_16 
REMARK    5  A    between atoms: S_16  and  C_28 
REMARK    6  A    between atoms: C_27  and  C_17 
REMARK    7  A    between atoms: C_28  and  C_27 
ROOT
ATOM      1  C   UNL d   1      57.666  49.621  53.465  0.00  0.00     0.191 A 
ATOM      2  C   UNL d   1      58.420  49.648  53.130  0.00  0.00     0.174 A 
ATOM      3  N   UNL d   1      57.095  49.624  52.860  0.00  0.00    -0.042 NA
ATOM      4  C   UNL d   1      57.520  49.654  52.139  0.00  0.00     0.722 A 
ATOM      5  N   UNL d   1      58.322  49.669  52.292  0.00  0.00    -0.136 N 
ATOM      6  N   UNL d   1      57.574  49.595  54.309  0.00  0.00    -0.239 N 
ATOM      7  C   UNL d   1      58.282  49.598  54.794  0.00  0.00     0.358 A 
ATOM      8  N   UNL d   1      59.020  49.626  54.425  0.00  0.00    -0.152 NA
ATOM      9  C   UNL d   1      59.085  49.651  53.581  0.00  0.00     0.303 A 
ATOM     10  O   UNL d   1      58.229  49.573  55.633  0.00  0.00    -0.244 OA
ATOM     11  O   UNL d   1      59.851  49.679  53.240  0.00  0.00    -0.263 OA
ATOM     12  C   UNL d   1      56.824  49.567  54.656  0.00  0.00     0.105 C 
ENDROOT
BRANCH   5  13
ATOM     13  C   UNL d   1      58.804  49.699  51.637  0.00  0.00     0.072 C 
BRANCH  13  14
ATOM     14  C   UNL d   1      59.563  49.354  51.681  0.00  0.00     0.052 C 
ATOM     15  C   UNL d   1      59.317  49.227  50.904  0.00  0.00     0.007 C 
BRANCH  14  16
ATOM     16  C   UNL d   1      59.891  48.991  51.017  0.00  0.00     0.071 C 
BRANCH  16  17
ATOM     17  S   UNL d   1      60.698  48.924  50.933  0.00  0.00    -0.073 SA
BRANCH  17  18
ATOM     18  C   UNL d   1      61.172  48.687  51.565  0.00  0.00     0.215 A 
ATOM     19  N   UNL d   1      61.668  48.029  51.582  0.00  0.00    -0.186 N 
ATOM     20  N   UNL d   1      62.034  48.000  52.314  0.00  0.00    -0.038 NA
ATOM     21  N   UNL d   1      61.766  48.642  52.757  0.00  0.00    -0.022 NA
ATOM     22  N   UNL d   1      61.232  49.066  52.293  0.00  0.00    -0.101 NA
BRANCH  19  23
ATOM     23  C   UNL d   1      61.777  47.492  50.966  0.00  0.00     0.087 A 
ATOM     24  C   UNL d   1      61.457  46.736  51.027  0.00  0.00     0.019 A 
ATOM     25  C   UNL d   1      61.566  46.198  50.410  0.00  0.00     0.002 A 
ATOM     26  C   UNL d   1      61.993  46.417  49.738  0.00  0.00     0.000 A 
ATOM     27  C   UNL d   1      62.311  47.181  49.686  0.00  0.00     0.002 A 
ATOM     28  C   UNL d   1      62.202  47.719  50.302  0.00  0.00     0.019 A 
ENDBRANCH  19  23
ENDBRANCH  17  18
ENDBRANCH  16  17
ENDBRANCH  14  16
ENDBRANCH  13  14
ENDBRANCH   5  13
BRANCH   4  29
ATOM     29  N   UNL d   1      57.184  49.667  51.385  0.00  0.00    -0.136 N 
ATOM     30  C   UNL d   1      56.358  49.680  51.302  0.00  0.00     0.117 A 
ATOM     31  C   UNL d   1      56.033  49.693  50.543  0.00  0.00     0.100 A 
ATOM     32  N   UNL d   1      56.521  49.693  49.871  0.00  0.00    -0.299 N 
ATOM     33  C   UNL d   1      57.339  49.680  49.969  0.00  0.00     0.100 A 
ATOM     34  C   UNL d   1      56.184  49.706  49.115  0.00  0.00     0.100 C 
ATOM     35  C   UNL d   1      57.675  49.667  50.719  0.00  0.00     0.117 A 
ENDBRANCH   4  29
TORSDOF 7
ENDMDL
