MODEL 1
REMARK VINA RESULT:     166.9      0.000      0.000
REMARK  8 active torsions:
REMARK  status: ('A' for Active; 'I' for Inactive)
REMARK    1  A    between atoms: C_14  and  C_1 
REMARK    2  A    between atoms: C_6  and  C_2 
REMARK    3  A    between atoms: C_19  and  C_4 
REMARK       I    between atoms: N_13  and  C_6 
REMARK    4  A    between atoms: C_7  and  S_18 
REMARK    5  A    between atoms: C_26  and  N_13 
REMARK    6  A    between atoms: C_22  and  C_14 
REMARK    7  A    between atoms: S_18  and  C_22 
REMARK    8  A    between atoms: O_31  and  C_27 
ROOT
ATOM      1  C   UNL d   1     -56.867-100.695 -42.773  0.00  0.00     0.076 A 
ATOM      2  C   UNL d   1     -55.879-101.654 -42.472  0.00  0.00     0.092 A 
ATOM      3  C   UNL d   1     -56.294-101.223 -43.022  0.00  0.00     0.018 A 
ATOM      4  C   UNL d   1     -56.033-101.562 -41.671  0.00  0.00     0.120 A 
ATOM      5  N   UNL d   1     -56.603-101.038 -41.420  0.00  0.00    -0.238 NA
ATOM      6  C   UNL d   1     -57.022-100.603 -41.972  0.00  0.00     0.087 A 
ATOM      7  C   UNL d   1     -55.305-102.182 -42.721  0.00  0.00     0.103 C 
ATOM      8  N   UNL d   1     -54.740-102.702 -42.965  0.00  0.00    -0.191 NA
ATOM      9  C   UNL d   1     -57.572-100.095 -41.745  0.00  0.00     0.021 C 
ENDROOT
BRANCH   4  10
ATOM     10  S   UNL d   1     -55.614-101.998 -41.119  0.00  0.00    -0.063 SA
BRANCH  10  11
ATOM     11  C   UNL d   1     -55.840-101.994 -40.336  0.00  0.00     0.079 C 
BRANCH  11  12
ATOM     12  C   UNL d   1     -55.298-102.149 -39.750  0.00  0.00     0.207 C 
ATOM     13  O   UNL d   1     -54.752-102.819 -39.839  0.00  0.00    -0.286 OA
BRANCH  12  14
ATOM     14  C   UNL d   1     -55.123-101.820 -39.065  0.00  0.00     0.103 A 
ATOM     15  C   UNL d   1     -54.877-101.085 -38.834  0.00  0.00     0.303 A 
ATOM     16  O   UNL d   1     -54.747-100.938 -38.046  0.00  0.00    -0.273 OA
ATOM     17  O   UNL d   1     -54.746-100.442 -39.393  0.00  0.00    -0.259 OA
ATOM     18  C   UNL d   1     -54.863-101.527 -37.491  0.00  0.00     0.103 A 
ATOM     19  C   UNL d   1     -55.108-102.262 -37.717  0.00  0.00     0.023 A 
ATOM     20  C   UNL d   1     -54.724-101.363 -36.677  0.00  0.00     0.025 A 
ATOM     21  C   UNL d   1     -55.241-102.413 -38.515  0.00  0.00     0.011 A 
ATOM     22  C   UNL d   1     -55.229-102.871 -37.152  0.00  0.00     0.002 A 
ATOM     23  C   UNL d   1     -55.095-102.720 -36.349  0.00  0.00     0.000 A 
ATOM     24  C   UNL d   1     -54.840-101.957 -36.112  0.00  0.00     0.002 A 
ENDBRANCH  12  14
ENDBRANCH  11  12
ENDBRANCH  10  11
ENDBRANCH   4  10
BRANCH   3  25
ATOM     25  C   UNL d   1     -56.140-101.314 -43.820  0.00  0.00     0.001 A 
ATOM     26  C   UNL d   1     -55.481-100.952 -44.162  0.00  0.00     0.002 A 
ATOM     27  C   UNL d   1     -55.325-101.045 -44.971  0.00  0.00     0.024 A 
ATOM     28  C   UNL d   1     -55.828-101.500 -45.436  0.00  0.00     0.094 A 
ATOM     29  C   UNL d   1     -56.487-101.864 -45.101  0.00  0.00     0.024 A 
ATOM     30  C   UNL d   1     -56.643-101.771 -44.292  0.00  0.00     0.002 A 
BRANCH  28  31
ATOM     31  O   UNL d   1     -55.655-101.576 -46.224  0.00  0.00    -0.328 OA
ATOM     32  C   UNL d   1     -56.080-102.257 -46.668  0.00  0.00     0.181 C 
ENDBRANCH  28  31
ENDBRANCH   3  25
BRANCH   1  33
ATOM     33  C   UNL d   1     -57.443-100.103 -43.418  0.00  0.00     0.281 C 
ATOM     34  N   UNL d   1     -57.438 -99.395 -43.744  0.00  0.00    -0.208 NA
ATOM     35  O   UNL d   1     -58.246-100.452 -43.769  0.00  0.00    -0.265 OA
BRANCH  34  36
ATOM     36  C   UNL d   1     -58.056 -99.190 -44.235  0.00  0.00     0.085 A 
ATOM     37  C   UNL d   1     -58.821 -99.161 -43.928  0.00  0.00     0.019 A 
ATOM     38  C   UNL d   1     -59.461 -98.954 -44.418  0.00  0.00     0.002 A 
ATOM     39  C   UNL d   1     -59.322 -98.776 -45.222  0.00  0.00     0.000 A 
ATOM     40  C   UNL d   1     -58.546 -98.805 -45.534  0.00  0.00     0.002 A 
ATOM     41  C   UNL d   1     -57.917 -99.014 -45.030  0.00  0.00     0.019 A 
ENDBRANCH  34  36
ENDBRANCH   1  33
TORSDOF 8
ENDMDL
