MODEL 1
REMARK VINA RESULT:      33.5      0.000      0.000
REMARK  4 active torsions:
REMARK  status: ('A' for Active; 'I' for Inactive)
REMARK    1  A    between atoms: N_3  and  C_1 
REMARK       I    between atoms: C_7  and  N_3 
REMARK    2  A    between atoms: C_15  and  C_7 
REMARK    3  A    between atoms: C_10  and  S_11 
REMARK    4  A    between atoms: S_11  and  C_15 
ROOT
ATOM      1  C   UNL d   1     -50.708  26.543  33.314  0.00  0.00     0.182 A 
ATOM      2  N   UNL d   1     -51.530  26.466  33.309  0.00  0.00    -0.283 N 
ATOM      3  S   UNL d   1     -50.381  25.779  33.317  0.00  0.00    -0.048 SA
ATOM      4  C   UNL d   1     -51.009  25.235  33.314  0.00  0.00     0.051 A 
ATOM      5  C   UNL d   1     -51.718  25.659  33.309  0.00  0.00     0.072 A 
ATOM      6  C   UNL d   1     -51.013  24.407  33.315  0.00  0.00     0.038 A 
ATOM      7  C   UNL d   1     -52.430  25.254  33.306  0.00  0.00     0.020 A 
ATOM      8  C   UNL d   1     -51.737  24.018  33.311  0.00  0.00     0.141 A 
ATOM      9  C   UNL d   1     -52.445  24.442  33.307  0.00  0.00     0.031 A 
ATOM     10  C   UNL d   1     -52.064  27.086  33.306  0.00  0.00     0.101 C 
ATOM     11  F   UNL d   1     -51.756  23.188  33.312  0.00  0.00    -0.204 F 
ENDROOT
BRANCH   1  12
ATOM     12  N   UNL d   1     -50.283  27.252  33.316  0.00  0.00    -0.183 NA
ATOM     13  C   UNL d   1     -49.732  27.167  33.928  0.00  0.00     0.288 C 
ATOM     14  O   UNL d   1     -49.711  26.469  34.374  0.00  0.00    -0.265 OA
BRANCH  13  15
ATOM     15  C   UNL d   1     -49.205  27.771  34.099  0.00  0.00     0.101 C 
BRANCH  15  16
ATOM     16  S   UNL d   1     -48.960  27.908  34.879  0.00  0.00    -0.040 SA
BRANCH  16  17
ATOM     17  C   UNL d   1     -48.374  28.477  35.038  0.00  0.00     0.226 C 
ATOM     18  O   UNL d   1     -47.962  28.815  34.409  0.00  0.00    -0.279 OA
ATOM     19  C   UNL d   1     -48.214  28.693  35.809  0.00  0.00     0.053 C 
ENDBRANCH  16  17
ENDBRANCH  15  16
ENDBRANCH  13  15
ENDBRANCH   1  12
TORSDOF 4
ENDMDL
MODEL 2
REMARK VINA RESULT:      34.6      2.412      4.353
REMARK  4 active torsions:
REMARK  status: ('A' for Active; 'I' for Inactive)
REMARK    1  A    between atoms: N_3  and  C_1 
REMARK       I    between atoms: C_7  and  N_3 
REMARK    2  A    between atoms: C_15  and  C_7 
REMARK    3  A    between atoms: C_10  and  S_11 
REMARK    4  A    between atoms: S_11  and  C_15 
ROOT
ATOM      1  C   UNL d   1     -50.199  25.110  33.398  0.00  0.00     0.182 A 
ATOM      2  N   UNL d   1     -49.461  25.479  33.452  0.00  0.00    -0.283 N 
ATOM      3  S   UNL d   1     -50.776  25.704  33.338  0.00  0.00    -0.048 SA
ATOM      4  C   UNL d   1     -50.388  26.438  33.356  0.00  0.00     0.051 A 
ATOM      5  C   UNL d   1     -49.577  26.299  33.426  0.00  0.00     0.072 A 
ATOM      6  C   UNL d   1     -50.680  27.212  33.316  0.00  0.00     0.038 A 
ATOM      7  C   UNL d   1     -49.059  26.934  33.457  0.00  0.00     0.020 A 
ATOM      8  C   UNL d   1     -50.147  27.836  33.349  0.00  0.00     0.141 A 
ATOM      9  C   UNL d   1     -49.336  27.697  33.419  0.00  0.00     0.031 A 
ATOM     10  C   UNL d   1     -48.743  25.094  33.520  0.00  0.00     0.101 C 
ATOM     11  F   UNL d   1     -50.427  28.616  33.310  0.00  0.00    -0.204 F 
ENDROOT
BRANCH   1  12
ATOM     12  N   UNL d   1     -50.339  24.296  33.402  0.00  0.00    -0.183 NA
ATOM     13  C   UNL d   1     -51.163  24.223  33.449  0.00  0.00     0.288 C 
ATOM     14  O   UNL d   1     -51.638  24.902  33.480  0.00  0.00    -0.265 OA
BRANCH  13  15
ATOM     15  C   UNL d   1     -51.514  23.483  33.466  0.00  0.00     0.101 C 
BRANCH  15  16
ATOM     16  S   UNL d   1     -52.323  23.397  33.307  0.00  0.00    -0.040 SA
BRANCH  16  17
ATOM     17  C   UNL d   1     -52.883  23.553  33.901  0.00  0.00     0.226 C 
ATOM     18  O   UNL d   1     -52.798  23.194  34.638  0.00  0.00    -0.279 OA
ATOM     19  C   UNL d   1     -53.509  24.056  33.750  0.00  0.00     0.053 C 
ENDBRANCH  16  17
ENDBRANCH  15  16
ENDBRANCH  13  15
ENDBRANCH   1  12
TORSDOF 4
ENDMDL
