MODEL 1
REMARK VINA RESULT:      68.7      0.000      0.000
REMARK  4 active torsions:
REMARK  status: ('A' for Active; 'I' for Inactive)
REMARK    1  A    between atoms: N_2  and  C_1 
REMARK    2  A    between atoms: N_4  and  C_1 
REMARK       I    between atoms: C_3  and  N_2 
REMARK    3  A    between atoms: C_6  and  C_3 
REMARK    4  A    between atoms: C_9  and  N_5 
ROOT
ATOM      1  N   UNL d   1      60.440  48.344  50.759  0.00  0.00    -0.278 N 
ATOM      2  N   UNL d   1      61.080  46.907  50.282  0.00  0.00    -0.301 N 
ATOM      3  C   UNL d   1      61.003  48.320  50.151  0.00  0.00     0.101 A 
ATOM      4  C   UNL d   1      60.193  47.647  51.133  0.00  0.00     0.101 A 
ATOM      5  C   UNL d   1      61.320  47.595  49.917  0.00  0.00     0.100 A 
ATOM      6  C   UNL d   1      60.511  46.925  50.898  0.00  0.00     0.100 A 
ENDROOT
BRANCH   1   7
ATOM      7  C   UNL d   1      60.128  49.072  50.988  0.00  0.00     0.209 C 
ATOM      8  S   UNL d   1      60.634  49.693  51.140  0.00  0.00    -0.038 SA
BRANCH   7   9
ATOM      9  N   UNL d   1      59.317  49.147  51.055  0.00  0.00    -0.179 NA
ATOM     10  C   UNL d   1      58.889  49.465  50.443  0.00  0.00     0.287 C 
ATOM     11  O   UNL d   1      59.303  49.698  49.780  0.00  0.00    -0.265 OA
BRANCH  10  12
ATOM     12  C   UNL d   1      58.086  49.550  50.485  0.00  0.00     0.087 A 
ATOM     13  S   UNL d   1      57.665  49.634  51.181  0.00  0.00    -0.082 SA
ATOM     14  C   UNL d   1      56.842  49.707  50.997  0.00  0.00     0.036 A 
ATOM     15  C   UNL d   1      56.788  49.663  50.167  0.00  0.00     0.008 A 
ATOM     16  C   UNL d   1      57.522  49.569  49.841  0.00  0.00     0.012 A 
ENDBRANCH  10  12
ENDBRANCH   7   9
ENDBRANCH   1   7
BRANCH   2  17
ATOM     17  C   UNL d   1      61.399  46.184  50.046  0.00  0.00     0.064 A 
ATOM     18  C   UNL d   1      62.027  46.165  49.501  0.00  0.00     0.020 A 
ATOM     19  C   UNL d   1      62.336  45.438  49.273  0.00  0.00     0.031 A 
ATOM     20  C   UNL d   1      62.034  44.728  49.575  0.00  0.00     0.140 A 
ATOM     21  C   UNL d   1      61.406  44.747  50.120  0.00  0.00     0.031 A 
ATOM     22  F   UNL d   1      62.355  44.014  49.335  0.00  0.00    -0.204 F 
ATOM     23  C   UNL d   1      61.091  45.482  50.352  0.00  0.00     0.020 A 
ENDBRANCH   2  17
TORSDOF 4
ENDMDL
MODEL 2
REMARK VINA RESULT:      69.2      0.768      1.055
REMARK  4 active torsions:
REMARK  status: ('A' for Active; 'I' for Inactive)
REMARK    1  A    between atoms: N_2  and  C_1 
REMARK    2  A    between atoms: N_4  and  C_1 
REMARK       I    between atoms: C_3  and  N_2 
REMARK    3  A    between atoms: C_6  and  C_3 
REMARK    4  A    between atoms: C_9  and  N_5 
ROOT
ATOM      1  N   UNL d   1      60.197  48.557  50.740  0.00  0.00    -0.278 N 
ATOM      2  N   UNL d   1      61.097  47.289  50.206  0.00  0.00    -0.301 N 
ATOM      3  C   UNL d   1      60.902  48.692  50.324  0.00  0.00     0.101 A 
ATOM      4  C   UNL d   1      59.937  47.786  50.891  0.00  0.00     0.101 A 
ATOM      5  C   UNL d   1      61.348  48.051  50.060  0.00  0.00     0.100 A 
ATOM      6  C   UNL d   1      60.384  47.147  50.626  0.00  0.00     0.100 A 
ENDROOT
BRANCH   1   7
ATOM      7  C   UNL d   1      59.756  49.204  51.001  0.00  0.00     0.209 C 
ATOM      8  S   UNL d   1      60.077  49.707  51.556  0.00  0.00    -0.038 SA
BRANCH   7   9
ATOM      9  N   UNL d   1      59.008  49.318  50.693  0.00  0.00    -0.179 NA
ATOM     10  C   UNL d   1      58.374  49.404  51.194  0.00  0.00     0.287 C 
ATOM     11  O   UNL d   1      58.524  49.372  51.994  0.00  0.00    -0.265 OA
BRANCH  10  12
ATOM     12  C   UNL d   1      57.624  49.518  50.913  0.00  0.00     0.087 A 
ATOM     13  S   UNL d   1      57.432  49.590  50.122  0.00  0.00    -0.082 SA
ATOM     14  C   UNL d   1      56.596  49.703  50.052  0.00  0.00     0.036 A 
ATOM     15  C   UNL d   1      56.298  49.695  50.830  0.00  0.00     0.008 A 
ATOM     16  C   UNL d   1      56.898  49.586  51.360  0.00  0.00     0.012 A 
ENDBRANCH  10  12
ENDBRANCH   7   9
ENDBRANCH   1   7
BRANCH   2  17
ATOM     17  C   UNL d   1      61.544  46.650  49.940  0.00  0.00     0.064 A 
ATOM     18  C   UNL d   1      61.267  45.874  50.052  0.00  0.00     0.020 A 
ATOM     19  C   UNL d   1      61.722  45.245  49.783  0.00  0.00     0.031 A 
ATOM     20  C   UNL d   1      62.449  45.370  49.403  0.00  0.00     0.140 A 
ATOM     21  C   UNL d   1      62.726  46.146  49.291  0.00  0.00     0.031 A 
ATOM     22  F   UNL d   1      62.887  44.730  49.142  0.00  0.00    -0.204 F 
ATOM     23  C   UNL d   1      62.266  46.786  49.563  0.00  0.00     0.020 A 
ENDBRANCH   2  17
TORSDOF 4
ENDMDL
