MODEL 1
REMARK VINA RESULT:      12.6      0.000      0.000
REMARK  5 active torsions:
REMARK  status: ('A' for Active; 'I' for Inactive)
REMARK    1  A    between atoms: C_7  and  N_1 
REMARK    2  A    between atoms: C_14  and  N_5 
REMARK    3  A    between atoms: C_8  and  C_7 
REMARK    4  A    between atoms: C_16  and  C_14 
REMARK    5  A    between atoms: O_15  and  C_16 
ROOT
ATOM      1  N   UNL d   1      45.513 -12.958  44.162  0.00  0.00    -0.273 N 
ATOM      2  C   UNL d   1      46.175 -12.867  44.667  0.00  0.00     0.153 A 
ATOM      3  S   UNL d   1      46.564 -13.527  44.951  0.00  0.00    -0.039 SA
ATOM      4  C   UNL d   1      45.252 -13.707  43.950  0.00  0.00     0.168 A 
ATOM      5  N   UNL d   1      45.649 -14.375  44.239  0.00  0.00    -0.280 N 
ATOM      6  C   UNL d   1      46.311 -14.284  44.745  0.00  0.00     0.120 A 
ATOM      7  S   UNL d   1      46.433 -12.101  44.879  0.00  0.00    -0.052 SA
ENDROOT
BRANCH   1   8
ATOM      8  C   UNL d   1      45.125 -12.282  43.880  0.00  0.00     0.107 C 
BRANCH   8   9
ATOM      9  C   UNL d   1      44.877 -12.231  43.092  0.00  0.00     0.118 A 
ATOM     10  O   UNL d   1      45.364 -12.317  42.427  0.00  0.00    -0.304 OA
ATOM     11  C   UNL d   1      44.885 -12.224  41.760  0.00  0.00     0.123 A 
ATOM     12  C   UNL d   1      44.121 -12.084  42.007  0.00  0.00     0.029 A 
ATOM     13  C   UNL d   1      44.114 -12.088  42.832  0.00  0.00     0.028 A 
ENDBRANCH   8   9
ENDBRANCH   1   8
BRANCH   5  14
ATOM     14  C   UNL d   1      45.400 -15.130  44.035  0.00  0.00     0.108 C 
BRANCH  14  15
ATOM     15  C   UNL d   1      45.487 -15.751  44.573  0.00  0.00     0.135 C 
BRANCH  15  16
ATOM     16  O   UNL d   1      45.312 -16.521  44.338  0.00  0.00    -0.325 OA
ATOM     17  C   UNL d   1      45.905 -17.084  44.323  0.00  0.00     0.182 C 
ENDBRANCH  15  16
ENDBRANCH  14  15
ENDBRANCH   5  14
TORSDOF 5
ENDMDL
MODEL 2
REMARK VINA RESULT:      12.7      3.566      5.616
REMARK  5 active torsions:
REMARK  status: ('A' for Active; 'I' for Inactive)
REMARK    1  A    between atoms: C_7  and  N_1 
REMARK    2  A    between atoms: C_14  and  N_5 
REMARK    3  A    between atoms: C_8  and  C_7 
REMARK    4  A    between atoms: C_16  and  C_14 
REMARK    5  A    between atoms: O_15  and  C_16 
ROOT
ATOM      1  N   UNL d   1      46.259 -19.035  43.532  0.00  0.00    -0.273 N 
ATOM      2  C   UNL d   1      46.402 -19.407  44.269  0.00  0.00     0.153 A 
ATOM      3  S   UNL d   1      46.413 -18.962  44.954  0.00  0.00    -0.039 SA
ATOM      4  C   UNL d   1      46.130 -18.226  43.493  0.00  0.00     0.168 A 
ATOM      5  N   UNL d   1      46.142 -17.776  44.189  0.00  0.00    -0.280 N 
ATOM      6  C   UNL d   1      46.285 -18.148  44.926  0.00  0.00     0.120 A 
ATOM      7  S   UNL d   1      46.532 -20.232  44.300  0.00  0.00    -0.052 SA
ENDROOT
BRANCH   1   8
ATOM      8  C   UNL d   1      46.250 -19.497  42.843  0.00  0.00     0.107 C 
BRANCH   8   9
ATOM      9  C   UNL d   1      46.382 -19.157  42.101  0.00  0.00     0.118 A 
ATOM     10  O   UNL d   1      46.382 -19.561  41.377  0.00  0.00    -0.304 OA
ATOM     11  C   UNL d   1      46.537 -19.005  40.786  0.00  0.00     0.123 A 
ATOM     12  C   UNL d   1      46.631 -18.275  41.135  0.00  0.00     0.029 A 
ATOM     13  C   UNL d   1      46.536 -18.367  41.949  0.00  0.00     0.028 A 
ENDBRANCH   8   9
ENDBRANCH   1   8
BRANCH   5  14
ATOM     14  C   UNL d   1      46.015 -16.965  44.165  0.00  0.00     0.108 C 
BRANCH  14  15
ATOM     15  C   UNL d   1      45.679 -16.583  44.815  0.00  0.00     0.135 C 
BRANCH  15  16
ATOM     16  O   UNL d   1      45.827 -15.781  44.937  0.00  0.00    -0.325 OA
ATOM     17  C   UNL d   1      45.268 -15.228  44.710  0.00  0.00     0.182 C 
ENDBRANCH  15  16
ENDBRANCH  14  15
ENDBRANCH   5  14
TORSDOF 5
ENDMDL
MODEL 3
REMARK VINA RESULT:      15.3      4.682      5.878
REMARK  5 active torsions:
REMARK  status: ('A' for Active; 'I' for Inactive)
REMARK    1  A    between atoms: C_7  and  N_1 
REMARK    2  A    between atoms: C_14  and  N_5 
REMARK    3  A    between atoms: C_8  and  C_7 
REMARK    4  A    between atoms: C_16  and  C_14 
REMARK    5  A    between atoms: O_15  and  C_16 
ROOT
ATOM      1  N   UNL d   1      46.595 -19.029  44.122  0.00  0.00    -0.273 N 
ATOM      2  C   UNL d   1      46.565 -19.864  44.185  0.00  0.00     0.153 A 
ATOM      3  S   UNL d   1      46.563 -20.323  43.510  0.00  0.00    -0.039 SA
ATOM      4  C   UNL d   1      46.622 -18.669  43.386  0.00  0.00     0.168 A 
ATOM      5  N   UNL d   1      46.620 -19.136  42.702  0.00  0.00    -0.280 N 
ATOM      6  C   UNL d   1      46.590 -19.971  42.764  0.00  0.00     0.120 A 
ATOM      7  S   UNL d   1      46.537 -20.223  44.939  0.00  0.00    -0.052 SA
ENDROOT
BRANCH   1   8
ATOM      8  C   UNL d   1      46.596 -18.574  44.815  0.00  0.00     0.107 C 
BRANCH   8   9
ATOM      9  C   UNL d   1      46.191 -17.852  44.851  0.00  0.00     0.118 A 
ATOM     10  O   UNL d   1      45.374 -17.762  44.953  0.00  0.00    -0.304 OA
ATOM     11  C   UNL d   1      45.215 -16.951  44.955  0.00  0.00     0.123 A 
ATOM     12  C   UNL d   1      45.917 -16.550  44.856  0.00  0.00     0.029 A 
ATOM     13  C   UNL d   1      46.523 -17.106  44.791  0.00  0.00     0.028 A 
ENDBRANCH   8   9
ENDBRANCH   1   8
BRANCH   5  14
ATOM     14  C   UNL d   1      46.647 -18.790  41.958  0.00  0.00     0.108 C 
BRANCH  14  15
ATOM     15  C   UNL d   1      46.534 -19.253  41.284  0.00  0.00     0.135 C 
BRANCH  15  16
ATOM     16  O   UNL d   1      46.621 -18.915  40.538  0.00  0.00    -0.325 OA
ATOM     17  C   UNL d   1      46.158 -18.275  40.328  0.00  0.00     0.182 C 
ENDBRANCH  15  16
ENDBRANCH  14  15
ENDBRANCH   5  14
TORSDOF 5
ENDMDL
