MODEL 1
REMARK VINA RESULT:      -4.7      0.000      0.000
REMARK  5 active torsions:
REMARK  status: ('A' for Active; 'I' for Inactive)
REMARK    1  A    between atoms: N_6  and  S_1 
REMARK    2  A    between atoms: C_8  and  S_1 
REMARK    3  A    between atoms: C_12  and  C_3 
REMARK    4  A    between atoms: C_4  and  C_11 
REMARK    5  A    between atoms: C_15  and  N_6 
ROOT
ATOM      1  C   UNL d   1      57.636   0.050  31.307  0.00  0.00     0.018 A 
ATOM      2  C   UNL d   1      58.408  -0.311  29.898  0.00  0.00     0.094 A 
ATOM      3  C   UNL d   1      58.282   0.503  31.056  0.00  0.00     0.003 A 
ATOM      4  C   UNL d   1      57.380  -0.585  30.846  0.00  0.00     0.003 A 
ATOM      5  C   UNL d   1      58.667   0.323  30.352  0.00  0.00     0.020 A 
ATOM      6  C   UNL d   1      57.763  -0.765  30.147  0.00  0.00     0.020 A 
ENDROOT
BRANCH   1   7
ATOM      7  C   UNL d   1      57.251   0.231  32.011  0.00  0.00     0.088 A 
ATOM      8  N   UNL d   1      55.940   0.056  32.501  0.00  0.00    -0.239 NA
ATOM      9  C   UNL d   1      56.156   0.411  33.207  0.00  0.00     0.111 A 
ATOM     10  S   UNL d   1      56.918   0.676  33.316  0.00  0.00    -0.066 SA
ATOM     11  C   UNL d   1      57.474   0.587  32.714  0.00  0.00     0.056 A 
BRANCH   9  12
ATOM     12  C   UNL d   1      55.604   0.501  33.808  0.00  0.00     0.024 A 
ATOM     13  C   UNL d   1      55.856   0.512  34.591  0.00  0.00     0.002 A 
ATOM     14  C   UNL d   1      55.298   0.602  35.189  0.00  0.00     0.000 A 
ATOM     15  C   UNL d   1      54.500   0.680  35.013  0.00  0.00     0.000 A 
ATOM     16  C   UNL d   1      54.253   0.668  34.222  0.00  0.00     0.000 A 
ATOM     17  C   UNL d   1      54.812   0.577  33.615  0.00  0.00     0.002 A 
ENDBRANCH   9  12
ENDBRANCH   1   7
BRANCH   2  18
ATOM     18  N   UNL d   1      58.792  -0.498  29.187  0.00  0.00    -0.158 NA
BRANCH  18  19
ATOM     19  S   UNL d   1      59.235  -1.184  29.129  0.00  0.00     0.285 S 
ATOM     20  O   UNL d   1      59.987  -1.217  29.471  0.00  0.00    -0.198 OA
ATOM     21  O   UNL d   1      58.934  -1.844  28.730  0.00  0.00    -0.198 OA
BRANCH  19  22
ATOM     22  C   UNL d   1      59.683  -1.875  29.071  0.00  0.00     0.105 A 
ATOM     23  C   UNL d   1      59.329  -2.582  28.826  0.00  0.00     0.013 A 
ATOM     24  C   UNL d   1      59.767  -3.274  28.766  0.00  0.00     0.001 A 
ATOM     25  C   UNL d   1      60.579  -3.258  28.957  0.00  0.00     0.000 A 
ATOM     26  C   UNL d   1      60.939  -2.555  29.202  0.00  0.00     0.001 A 
ATOM     27  C   UNL d   1      61.034  -3.955  28.899  0.00  0.00     0.000 C 
ATOM     28  C   UNL d   1      60.488  -1.861  29.259  0.00  0.00     0.013 A 
ENDBRANCH  19  22
ENDBRANCH  18  19
ENDBRANCH   2  18
TORSDOF 5
ENDMDL
MODEL 2
REMARK VINA RESULT:      -3.7      1.030      1.528
REMARK  5 active torsions:
REMARK  status: ('A' for Active; 'I' for Inactive)
REMARK    1  A    between atoms: N_6  and  S_1 
REMARK    2  A    between atoms: C_8  and  S_1 
REMARK    3  A    between atoms: C_12  and  C_3 
REMARK    4  A    between atoms: C_4  and  C_11 
REMARK    5  A    between atoms: C_15  and  N_6 
ROOT
ATOM      1  C   UNL d   1      58.291  -0.589  30.252  0.00  0.00     0.018 A 
ATOM      2  C   UNL d   1      59.264  -1.203  29.074  0.00  0.00     0.094 A 
ATOM      3  C   UNL d   1      59.101  -0.423  30.252  0.00  0.00     0.003 A 
ATOM      4  C   UNL d   1      57.971  -1.065  29.659  0.00  0.00     0.003 A 
ATOM      5  C   UNL d   1      59.588  -0.729  29.663  0.00  0.00     0.020 A 
ATOM      6  C   UNL d   1      58.454  -1.370  29.074  0.00  0.00     0.020 A 
ENDROOT
BRANCH   1   7
ATOM      7  C   UNL d   1      57.804  -0.282  30.841  0.00  0.00     0.088 A 
ATOM      8  N   UNL d   1      57.044  -0.836  31.892  0.00  0.00    -0.239 NA
ATOM      9  C   UNL d   1      56.801  -0.085  32.112  0.00  0.00     0.111 A 
ATOM     10  S   UNL d   1      57.058   0.566  31.698  0.00  0.00    -0.066 SA
ATOM     11  C   UNL d   1      57.566   0.471  31.055  0.00  0.00     0.056 A 
BRANCH   9  12
ATOM     12  C   UNL d   1      56.296   0.012  32.752  0.00  0.00     0.024 A 
ATOM     13  C   UNL d   1      56.469   0.580  33.322  0.00  0.00     0.002 A 
ATOM     14  C   UNL d   1      55.959   0.673  33.960  0.00  0.00     0.000 A 
ATOM     15  C   UNL d   1      55.286   0.209  34.034  0.00  0.00     0.000 A 
ATOM     16  C   UNL d   1      55.118  -0.361  33.457  0.00  0.00     0.000 A 
ATOM     17  C   UNL d   1      55.629  -0.459  32.810  0.00  0.00     0.002 A 
ENDBRANCH   9  12
ENDBRANCH   1   7
BRANCH   2  18
ATOM     18  N   UNL d   1      59.749  -1.515  28.478  0.00  0.00    -0.158 NA
BRANCH  18  19
ATOM     19  S   UNL d   1      59.945  -2.309  28.484  0.00  0.00     0.285 S 
ATOM     20  O   UNL d   1      59.348  -2.879  28.455  0.00  0.00    -0.198 OA
ATOM     21  O   UNL d   1      60.738  -2.545  28.519  0.00  0.00    -0.198 OA
BRANCH  19  22
ATOM     22  C   UNL d   1      60.142  -3.111  28.490  0.00  0.00     0.105 A 
ATOM     23  C   UNL d   1      59.548  -3.687  28.455  0.00  0.00     0.013 A 
ATOM     24  C   UNL d   1      59.733  -4.486  28.460  0.00  0.00     0.001 A 
ATOM     25  C   UNL d   1      60.534  -4.716  28.502  0.00  0.00     0.000 A 
ATOM     26  C   UNL d   1      61.133  -4.147  28.537  0.00  0.00     0.001 A 
ATOM     27  C   UNL d   1      60.735  -5.526  28.508  0.00  0.00     0.000 C 
ATOM     28  C   UNL d   1      60.935  -3.341  28.531  0.00  0.00     0.013 A 
ENDBRANCH  19  22
ENDBRANCH  18  19
ENDBRANCH   2  18
TORSDOF 5
ENDMDL
