MODEL 1
REMARK VINA RESULT:     113.0      0.000      0.000
REMARK  5 active torsions:
REMARK  status: ('A' for Active; 'I' for Inactive)
REMARK    1  A    between atoms: N_2  and  S_1 
REMARK    2  A    between atoms: C_11  and  S_1 
REMARK    3  A    between atoms: C_3  and  N_9 
REMARK    4  A    between atoms: N_9  and  N_16 
REMARK    5  A    between atoms: N_16  and  C_23 
ROOT
ATOM      1  C   UNL d   1      62.009  45.081  49.768  0.00  0.00     0.104 A 
ATOM      2  C   UNL d   1      61.380  45.342  50.246  0.00  0.00     0.015 A 
ATOM      3  C   UNL d   1      62.405  45.632  49.299  0.00  0.00     0.015 A 
ATOM      4  C   UNL d   1      61.554  46.668  49.785  0.00  0.00     0.103 A 
ATOM      5  C   UNL d   1      62.184  46.411  49.304  0.00  0.00     0.022 A 
ATOM      6  C   UNL d   1      61.156  46.125  50.254  0.00  0.00     0.022 A 
ENDROOT
BRANCH   1   7
ATOM      7  S   UNL d   1      62.242  44.289  49.755  0.00  0.00     0.271 S 
ATOM      8  O   UNL d   1      61.513  44.077  50.089  0.00  0.00    -0.200 OA
ATOM      9  O   UNL d   1      62.955  44.493  49.428  0.00  0.00    -0.200 OA
BRANCH   7  10
ATOM     10  N   UNL d   1      62.471  43.489  49.744  0.00  0.00    -0.231 N 
ATOM     11  C   UNL d   1      62.689  43.006  50.391  0.00  0.00     0.075 A 
ATOM     12  C   UNL d   1      62.871  42.253  50.108  0.00  0.00     0.018 A 
ATOM     13  C   UNL d   1      62.736  43.181  51.199  0.00  0.00     0.018 A 
ATOM     14  C   UNL d   1      63.105  41.654  50.616  0.00  0.00     0.002 A 
ATOM     15  C   UNL d   1      62.767  42.264  49.274  0.00  0.00     0.021 A 
ATOM     16  C   UNL d   1      63.158  41.811  51.425  0.00  0.00     0.000 A 
ATOM     17  C   UNL d   1      62.972  42.578  51.711  0.00  0.00     0.002 A 
ATOM     18  C   UNL d   1      62.529  43.003  49.064  0.00  0.00     0.092 A 
ENDBRANCH   7  10
ENDBRANCH   1   7
BRANCH   4  19
ATOM     19  N   UNL d   1      61.320  47.463  49.798  0.00  0.00    -0.148 NA
BRANCH  19  20
ATOM     20  N   UNL d   1      61.573  47.949  50.389  0.00  0.00    -0.138 NA
BRANCH  20  21
ATOM     21  C   UNL d   1      61.029  48.393  50.829  0.00  0.00     0.218 A 
ATOM     22  C   UNL d   1      60.780  48.126  51.538  0.00  0.00     0.305 A 
ATOM     23  N   UNL d   1      60.230  48.572  51.986  0.00  0.00    -0.177 NA
ATOM     24  O   UNL d   1      61.070  47.403  51.828  0.00  0.00    -0.263 OA
ATOM     25  C   UNL d   1      59.948  49.266  51.713  0.00  0.00     0.226 A 
ATOM     26  N   UNL d   1      60.186  49.568  50.985  0.00  0.00    -0.177 NA
ATOM     27  S   UNL d   1      59.386  49.708  52.185  0.00  0.00    -0.037 SA
ATOM     28  C   UNL d   1      60.738  49.121  50.535  0.00  0.00     0.305 A 
ATOM     29  O   UNL d   1      60.992  49.404  49.800  0.00  0.00    -0.263 OA
ENDBRANCH  20  21
ENDBRANCH  19  20
ENDBRANCH   4  19
TORSDOF 5
ENDMDL
