MODEL 1
REMARK VINA RESULT:      56.0      0.000      0.000
REMARK  5 active torsions:
REMARK  status: ('A' for Active; 'I' for Inactive)
REMARK    1  A    between atoms: C_3  and  S_1 
REMARK    2  A    between atoms: N_5  and  S_1 
REMARK    3  A    between atoms: C_2  and  C_8 
REMARK       I    between atoms: N_4  and  C_2 
REMARK    4  A    between atoms: C_9  and  N_4 
REMARK    5  A    between atoms: O_17  and  C_16 
ROOT
ATOM      1  C   UNL d   1     -51.072  25.828  33.615  0.00  0.00     0.104 A 
ATOM      2  C   UNL d   1     -50.152  27.213  33.846  0.00  0.00     0.058 A 
ATOM      3  C   UNL d   1     -50.288  25.787  33.745  0.00  0.00     0.013 A 
ATOM      4  C   UNL d   1     -51.412  26.563  33.597  0.00  0.00     0.013 A 
ATOM      5  C   UNL d   1     -50.989  27.262  33.707  0.00  0.00     0.005 A 
ATOM      6  C   UNL d   1     -49.831  26.470  33.860  0.00  0.00     0.005 A 
ENDROOT
BRANCH   2   7
ATOM      7  C   UNL d   1     -49.685  27.912  33.963  0.00  0.00     0.279 C 
ATOM      8  N   UNL d   1     -49.311  28.061  34.634  0.00  0.00    -0.208 NA
ATOM      9  O   UNL d   1     -49.641  28.453  33.306  0.00  0.00    -0.265 OA
BRANCH   8  10
ATOM     10  C   UNL d   1     -48.863  28.749  34.720  0.00  0.00     0.087 A 
ATOM     11  C   UNL d   1     -48.195  28.732  35.174  0.00  0.00     0.043 A 
ATOM     12  C   UNL d   1     -47.748  29.420  35.259  0.00  0.00     0.096 A 
ATOM     13  C   UNL d   1     -47.970  30.124  34.891  0.00  0.00     0.024 A 
ATOM     14  C   UNL d   1     -48.663  30.130  34.423  0.00  0.00     0.004 A 
ATOM     15  C   UNL d   1     -49.107  29.440  34.341  0.00  0.00     0.019 A 
BRANCH  12  16
ATOM     16  O   UNL d   1     -47.223  29.405  35.616  0.00  0.00    -0.328 OA
ATOM     17  C   UNL d   1     -46.572  29.899  35.621  0.00  0.00     0.181 C 
ENDBRANCH  12  16
ENDBRANCH   8  10
ENDBRANCH   2   7
BRANCH   1  18
ATOM     18  S   UNL d   1     -51.619  25.140  33.485  0.00  0.00     0.271 S 
ATOM     19  O   UNL d   1     -52.308  25.617  33.389  0.00  0.00    -0.200 OA
ATOM     20  O   UNL d   1     -50.957  24.689  33.577  0.00  0.00    -0.200 OA
BRANCH  18  21
ATOM     21  N   UNL d   1     -52.103  24.416  33.364  0.00  0.00    -0.226 N 
ATOM     22  C   UNL d   1     -52.935  24.478  33.306  0.00  0.00     0.111 C 
ATOM     23  C   UNL d   1     -51.738  23.678  33.307  0.00  0.00     0.111 C 
ENDBRANCH  18  21
ENDBRANCH   1  18
TORSDOF 5
ENDMDL
MODEL 2
REMARK VINA RESULT:      57.1      1.030      1.492
REMARK  5 active torsions:
REMARK  status: ('A' for Active; 'I' for Inactive)
REMARK    1  A    between atoms: C_3  and  S_1 
REMARK    2  A    between atoms: N_5  and  S_1 
REMARK    3  A    between atoms: C_2  and  C_8 
REMARK       I    between atoms: N_4  and  C_2 
REMARK    4  A    between atoms: C_9  and  N_4 
REMARK    5  A    between atoms: O_17  and  C_16 
ROOT
ATOM      1  C   UNL d   1     -50.489  26.589  33.812  0.00  0.00     0.104 A 
ATOM      2  C   UNL d   1     -49.287  27.623  34.361  0.00  0.00     0.058 A 
ATOM      3  C   UNL d   1     -50.111  27.082  33.316  0.00  0.00     0.013 A 
ATOM      4  C   UNL d   1     -50.274  26.602  34.593  0.00  0.00     0.013 A 
ATOM      5  C   UNL d   1     -49.688  27.097  34.894  0.00  0.00     0.005 A 
ATOM      6  C   UNL d   1     -49.516  27.595  33.585  0.00  0.00     0.005 A 
ENDROOT
BRANCH   2   7
ATOM      7  C   UNL d   1     -48.678  28.147  34.636  0.00  0.00     0.279 C 
ATOM      8  N   UNL d   1     -48.822  28.886  34.846  0.00  0.00    -0.208 NA
ATOM      9  O   UNL d   1     -47.890  27.826  34.674  0.00  0.00    -0.265 OA
BRANCH   8  10
ATOM     10  C   UNL d   1     -48.211  29.374  35.110  0.00  0.00     0.087 A 
ATOM     11  C   UNL d   1     -48.219  30.159  34.918  0.00  0.00     0.043 A 
ATOM     12  C   UNL d   1     -47.608  30.645  35.183  0.00  0.00     0.096 A 
ATOM     13  C   UNL d   1     -46.988  30.346  35.638  0.00  0.00     0.024 A 
ATOM     14  C   UNL d   1     -46.989  29.532  35.831  0.00  0.00     0.004 A 
ATOM     15  C   UNL d   1     -47.603  29.050  35.565  0.00  0.00     0.019 A 
BRANCH  12  16
ATOM     16  O   UNL d   1     -47.616  31.262  35.031  0.00  0.00    -0.328 OA
ATOM     17  C   UNL d   1     -48.066  31.667  34.482  0.00  0.00     0.181 C 
ENDBRANCH  12  16
ENDBRANCH   8  10
ENDBRANCH   2   7
BRANCH   1  18
ATOM     18  S   UNL d   1     -51.133  26.017  33.592  0.00  0.00     0.271 S 
ATOM     19  O   UNL d   1     -51.658  26.610  33.306  0.00  0.00    -0.200 OA
ATOM     20  O   UNL d   1     -50.626  25.453  33.867  0.00  0.00    -0.200 OA
BRANCH  18  21
ATOM     21  N   UNL d   1     -51.726  25.398  33.399  0.00  0.00    -0.226 N 
ATOM     22  C   UNL d   1     -52.530  25.608  33.307  0.00  0.00     0.111 C 
ATOM     23  C   UNL d   1     -51.491  24.611  33.309  0.00  0.00     0.111 C 
ENDBRANCH  18  21
ENDBRANCH   1  18
TORSDOF 5
ENDMDL
