MODEL 1
REMARK VINA RESULT:      45.4      0.000      0.000
REMARK  2 active torsions:
REMARK  status: ('A' for Active; 'I' for Inactive)
REMARK    1  A    between atoms: N_3  and  C_1 
REMARK       I    between atoms: C_6  and  N_3 
REMARK    2  A    between atoms: C_8  and  C_6 
ROOT
ATOM      1  N   UNL d   1     -49.467  25.351  33.484  0.00  0.00    -0.183 NA
ATOM      2  C   UNL d   1     -49.471  26.176  33.674  0.00  0.00     0.281 C 
ATOM      3  O   UNL d   1     -48.772  26.604  33.648  0.00  0.00    -0.265 OA
ENDROOT
BRANCH   1   4
ATOM      4  C   UNL d   1     -50.163  24.925  33.510  0.00  0.00     0.197 A 
ATOM      5  N   UNL d   1     -50.241  24.145  33.738  0.00  0.00    -0.221 NA
ATOM      6  C   UNL d   1     -51.023  23.939  33.683  0.00  0.00     0.090 A 
ATOM      7  C   UNL d   1     -51.426  23.237  33.839  0.00  0.00     0.020 A 
ATOM      8  C   UNL d   1     -51.439  24.602  33.415  0.00  0.00     0.050 A 
ATOM      9  C   UNL d   1     -52.243  23.192  33.728  0.00  0.00     0.002 A 
ATOM     10  C   UNL d   1     -52.659  23.855  33.460  0.00  0.00     0.001 A 
ATOM     11  C   UNL d   1     -52.253  24.555  33.306  0.00  0.00     0.008 A 
ATOM     12  S   UNL d   1     -50.905  25.202  33.311  0.00  0.00    -0.047 SA
ENDBRANCH   1   4
BRANCH   2  13
ATOM     13  C   UNL d   1     -50.165  26.536  33.879  0.00  0.00     0.058 A 
ATOM     14  C   UNL d   1     -50.417  26.520  34.665  0.00  0.00     0.005 A 
ATOM     15  C   UNL d   1     -51.124  26.885  34.884  0.00  0.00     0.000 A 
ATOM     16  C   UNL d   1     -51.373  26.870  35.656  0.00  0.00     0.000 C 
ATOM     17  C   UNL d   1     -51.583  27.269  34.312  0.00  0.00     0.000 A 
ATOM     18  C   UNL d   1     -51.319  27.280  33.519  0.00  0.00     0.000 A 
ATOM     19  C   UNL d   1     -50.624  26.920  33.307  0.00  0.00     0.005 A 
ENDBRANCH   2  13
TORSDOF 2
ENDMDL
MODEL 2
REMARK VINA RESULT:      45.7      1.179      3.045
REMARK  2 active torsions:
REMARK  status: ('A' for Active; 'I' for Inactive)
REMARK    1  A    between atoms: N_3  and  C_1 
REMARK       I    between atoms: C_6  and  N_3 
REMARK    2  A    between atoms: C_8  and  C_6 
ROOT
ATOM      1  N   UNL d   1     -50.130  24.628  33.536  0.00  0.00    -0.183 NA
ATOM      2  C   UNL d   1     -50.663  23.972  33.574  0.00  0.00     0.281 C 
ATOM      3  O   UNL d   1     -50.375  23.208  33.508  0.00  0.00    -0.265 OA
ENDROOT
BRANCH   1   4
ATOM      4  C   UNL d   1     -50.418  25.390  33.602  0.00  0.00     0.197 A 
ATOM      5  N   UNL d   1     -50.044  26.015  33.969  0.00  0.00    -0.221 NA
ATOM      6  C   UNL d   1     -50.518  26.669  33.910  0.00  0.00     0.090 A 
ATOM      7  C   UNL d   1     -50.431  27.446  34.172  0.00  0.00     0.020 A 
ATOM      8  C   UNL d   1     -51.201  26.447  33.498  0.00  0.00     0.050 A 
ATOM      9  C   UNL d   1     -51.022  28.003  34.026  0.00  0.00     0.002 A 
ATOM     10  C   UNL d   1     -51.704  27.782  33.615  0.00  0.00     0.001 A 
ATOM     11  C   UNL d   1     -51.788  27.005  33.354  0.00  0.00     0.008 A 
ATOM     12  S   UNL d   1     -51.132  25.662  33.313  0.00  0.00    -0.047 SA
ENDBRANCH   1   4
BRANCH   2  13
ATOM     13  C   UNL d   1     -51.454  24.104  33.677  0.00  0.00     0.058 A 
ATOM     14  C   UNL d   1     -51.896  23.594  34.152  0.00  0.00     0.005 A 
ATOM     15  C   UNL d   1     -52.704  23.721  34.263  0.00  0.00     0.000 A 
ATOM     16  C   UNL d   1     -53.140  23.221  34.730  0.00  0.00     0.000 C 
ATOM     17  C   UNL d   1     -53.073  24.364  33.895  0.00  0.00     0.000 A 
ATOM     18  C   UNL d   1     -52.617  24.875  33.415  0.00  0.00     0.000 A 
ATOM     19  C   UNL d   1     -51.824  24.747  33.309  0.00  0.00     0.005 A 
ENDBRANCH   2  13
TORSDOF 2
ENDMDL
