MODEL 1
REMARK VINA RESULT:      42.1      0.000      0.000
REMARK  4 active torsions:
REMARK  status: ('A' for Active; 'I' for Inactive)
REMARK    1  A    between atoms: C_2  and  N_1 
REMARK       I    between atoms: C_3  and  N_1 
REMARK    2  A    between atoms: N_5  and  C_2 
REMARK    3  A    between atoms: C_4  and  C_3 
REMARK    4  A    between atoms: C_7  and  N_5 
ROOT
ATOM      1  C   UNL d   1     -47.148  31.618  35.213  0.00  0.00     0.224 C 
ATOM      2  S   UNL d   1     -46.958  31.918  35.959  0.00  0.00    -0.037 SA
ENDROOT
BRANCH   1   3
ATOM      3  N   UNL d   1     -47.501  30.876  35.143  0.00  0.00    -0.177 NA
ATOM      4  C   UNL d   1     -47.353  30.288  35.703  0.00  0.00     0.304 C 
ATOM      5  O   UNL d   1     -46.847  30.449  36.337  0.00  0.00    -0.263 OA
BRANCH   4   6
ATOM      6  C   UNL d   1     -47.706  29.546  35.633  0.00  0.00     0.158 A 
ATOM      7  O   UNL d   1     -48.229  29.209  36.183  0.00  0.00    -0.300 OA
ATOM      8  C   UNL d   1     -48.442  28.463  35.886  0.00  0.00     0.123 A 
ATOM      9  C   UNL d   1     -48.054  28.348  35.167  0.00  0.00     0.029 A 
ATOM     10  C   UNL d   1     -47.599  29.018  35.012  0.00  0.00     0.032 A 
ENDBRANCH   4   6
ENDBRANCH   1   3
BRANCH   1  11
ATOM     11  N   UNL d   1     -46.980  32.070  34.536  0.00  0.00    -0.215 NA
BRANCH  11  12
ATOM     12  C   UNL d   1     -47.545  32.587  34.228  0.00  0.00     0.112 A 
ATOM     13  C   UNL d   1     -47.337  33.116  33.617  0.00  0.00     0.156 A 
ATOM     14  N   UNL d   1     -47.901  33.633  33.309  0.00  0.00    -0.231 NA
ATOM     15 CL   UNL d   1     -46.559  33.120  33.321  0.00  0.00    -0.060 Cl
ATOM     16  C   UNL d   1     -48.671  33.626  33.606  0.00  0.00     0.100 A 
ATOM     17  C   UNL d   1     -48.876  33.101  34.211  0.00  0.00     0.022 A 
ATOM     18  C   UNL d   1     -48.314  32.579  34.525  0.00  0.00     0.023 A 
ENDBRANCH  11  12
ENDBRANCH   1  11
TORSDOF 4
ENDMDL
