MODEL 1
REMARK VINA RESULT:       3.1      0.000      0.000
REMARK  4 active torsions:
REMARK  status: ('A' for Active; 'I' for Inactive)
REMARK    1  A    between atoms: C_2  and  C_1 
REMARK    2  A    between atoms: N_8  and  C_3 
REMARK    3  A    between atoms: C_15  and  N_8 
REMARK    4  A    between atoms: O_18  and  C_16 
ROOT
ATOM      1  C   UNL d   1      56.455   0.254  32.721  0.00  0.00     0.077 A 
ATOM      2  C   UNL d   1      56.845   0.398  33.433  0.00  0.00     0.185 A 
ATOM      3  C   UNL d   1      55.634   0.251  32.693  0.00  0.00     0.009 A 
ATOM      4  O   UNL d   1      56.414   0.541  34.118  0.00  0.00    -0.289 OA
ATOM      5  C   UNL d   1      55.197   0.394  33.380  0.00  0.00     0.025 A 
ATOM      6  C   UNL d   1      55.587   0.539  34.092  0.00  0.00     0.102 A 
ATOM      7  C   UNL d   1      54.397   0.390  33.341  0.00  0.00     0.026 A 
ATOM      8  C   UNL d   1      55.176   0.679  34.767  0.00  0.00     0.027 A 
ATOM      9  C   UNL d   1      53.955   0.533  34.031  0.00  0.00     0.094 A 
ATOM     10  C   UNL d   1      54.345   0.677  34.743  0.00  0.00     0.026 A 
ENDROOT
BRANCH   1  11
ATOM     11  C   UNL d   1      56.884   0.113  32.044  0.00  0.00     0.166 A 
ATOM     12  N   UNL d   1      57.286   0.665  31.639  0.00  0.00    -0.225 NA
ATOM     13  C   UNL d   1      57.641   0.334  31.009  0.00  0.00     0.101 A 
ATOM     14  C   UNL d   1      58.125   0.616  30.394  0.00  0.00     0.021 A 
ATOM     15  C   UNL d   1      57.441  -0.477  31.032  0.00  0.00     0.101 A 
ATOM     16  C   UNL d   1      58.397   0.070  29.813  0.00  0.00     0.002 A 
ATOM     17  C   UNL d   1      58.190  -0.737  29.847  0.00  0.00     0.002 A 
ATOM     18  C   UNL d   1      57.735  -1.015  30.422  0.00  0.00     0.021 A 
ATOM     19  N   UNL d   1      56.959  -0.598  31.699  0.00  0.00    -0.225 NA
ENDBRANCH   1  11
BRANCH   2  20
ATOM     20  N   UNL d   1      57.671   0.400  33.459  0.00  0.00    -0.222 NA
BRANCH  20  21
ATOM     21  C   UNL d   1      58.055   0.494  34.170  0.00  0.00     0.084 A 
ATOM     22  C   UNL d   1      57.620   0.490  34.858  0.00  0.00     0.019 A 
ATOM     23  C   UNL d   1      58.002   0.583  35.564  0.00  0.00     0.002 A 
ATOM     24  C   UNL d   1      58.811   0.680  35.605  0.00  0.00     0.000 A 
ATOM     25  C   UNL d   1      59.231   0.682  34.906  0.00  0.00     0.002 A 
ATOM     26  C   UNL d   1      58.852   0.588  34.179  0.00  0.00     0.019 A 
ENDBRANCH  20  21
ENDBRANCH   2  20
BRANCH   9  27
ATOM     27  O   UNL d   1      53.153   0.530  34.000  0.00  0.00    -0.328 OA
ATOM     28  C   UNL d   1      52.727   0.534  34.667  0.00  0.00     0.181 C 
ENDBRANCH   9  27
TORSDOF 4
ENDMDL
MODEL 2
REMARK VINA RESULT:       4.8      2.019      4.167
REMARK  4 active torsions:
REMARK  status: ('A' for Active; 'I' for Inactive)
REMARK    1  A    between atoms: C_2  and  C_1 
REMARK    2  A    between atoms: N_8  and  C_3 
REMARK    3  A    between atoms: C_15  and  N_8 
REMARK    4  A    between atoms: O_18  and  C_16 
ROOT
ATOM      1  C   UNL d   1      58.150  -0.588  30.583  0.00  0.00     0.077 A 
ATOM      2  C   UNL d   1      57.693  -1.200  30.272  0.00  0.00     0.185 A 
ATOM      3  C   UNL d   1      57.966  -0.269  31.317  0.00  0.00     0.009 A 
ATOM      4  O   UNL d   1      57.052  -1.494  30.694  0.00  0.00    -0.289 OA
ATOM      5  C   UNL d   1      57.322  -0.562  31.746  0.00  0.00     0.025 A 
ATOM      6  C   UNL d   1      56.865  -1.174  31.434  0.00  0.00     0.102 A 
ATOM      7  C   UNL d   1      57.152  -0.244  32.461  0.00  0.00     0.026 A 
ATOM      8  C   UNL d   1      56.238  -1.468  31.838  0.00  0.00     0.027 A 
ATOM      9  C   UNL d   1      56.505  -0.537  32.893  0.00  0.00     0.094 A 
ATOM     10  C   UNL d   1      56.048  -1.149  32.582  0.00  0.00     0.026 A 
ENDROOT
BRANCH   1  11
ATOM     11  C   UNL d   1      58.783  -0.299  30.162  0.00  0.00     0.166 A 
ATOM     12  N   UNL d   1      59.513  -0.196  30.456  0.00  0.00    -0.225 NA
ATOM     13  C   UNL d   1      59.993   0.095  29.892  0.00  0.00     0.101 A 
ATOM     14  C   UNL d   1      60.795   0.313  29.861  0.00  0.00     0.021 A 
ATOM     15  C   UNL d   1      59.522   0.173  29.207  0.00  0.00     0.101 A 
ATOM     16  C   UNL d   1      61.105   0.607  29.135  0.00  0.00     0.002 A 
ATOM     17  C   UNL d   1      60.624   0.680  28.458  0.00  0.00     0.002 A 
ATOM     18  C   UNL d   1      59.867   0.478  28.475  0.00  0.00     0.021 A 
ATOM     19  N   UNL d   1      58.754  -0.083  29.399  0.00  0.00    -0.225 NA
ENDBRANCH   1  11
BRANCH   2  20
ATOM     20  N   UNL d   1      57.879  -1.520  29.532  0.00  0.00    -0.222 NA
BRANCH  20  21
ATOM     21  C   UNL d   1      58.167  -2.278  29.479  0.00  0.00     0.084 A 
ATOM     22  C   UNL d   1      57.852  -2.783  28.923  0.00  0.00     0.019 A 
ATOM     23  C   UNL d   1      58.137  -3.537  28.870  0.00  0.00     0.002 A 
ATOM     24  C   UNL d   1      58.734  -3.805  29.358  0.00  0.00     0.000 A 
ATOM     25  C   UNL d   1      59.039  -3.287  29.909  0.00  0.00     0.002 A 
ATOM     26  C   UNL d   1      58.754  -2.515  29.973  0.00  0.00     0.019 A 
ENDBRANCH  20  21
ENDBRANCH   2  20
BRANCH   9  27
ATOM     27  O   UNL d   1      56.328  -0.223  33.611  0.00  0.00    -0.328 OA
ATOM     28  C   UNL d   1      55.640   0.149  33.726  0.00  0.00     0.181 C 
ENDBRANCH   9  27
TORSDOF 4
ENDMDL
