MODEL 1
REMARK VINA RESULT:       0.9      0.000      0.000
REMARK  5 active torsions:
REMARK  status: ('A' for Active; 'I' for Inactive)
REMARK    1  A    between atoms: S_12  and  C_4 
REMARK    2  A    between atoms: C_7  and  C_5 
REMARK    3  A    between atoms: C_20  and  S_12 
REMARK    4  A    between atoms: C_14  and  C_20 
REMARK    5  A    between atoms: O_21  and  C_14 
ROOT
ATOM      1  C   UNL d   1     -41.461-122.289 -52.243  0.00  0.00     0.095 A 
ATOM      2  C   UNL d   1     -41.393-121.366 -51.138  0.00  0.00     0.108 A 
ATOM      3  N   UNL d   1     -41.191-120.891 -52.483  0.00  0.00    -0.217 NA
ATOM      4  C   UNL d   1     -41.303-121.666 -52.773  0.00  0.00     0.122 A 
ATOM      5  C   UNL d   1     -41.504-122.134 -51.426  0.00  0.00     0.047 A 
ATOM      6  C   UNL d   1     -41.236-120.743 -51.668  0.00  0.00     0.194 A 
ATOM      7  C   UNL d   1     -41.438-121.230 -50.345  0.00  0.00     0.104 C 
ATOM      8  C   UNL d   1     -41.573-123.058 -52.522  0.00  0.00     0.103 C 
ATOM      9  N   UNL d   1     -41.684-123.814 -52.797  0.00  0.00    -0.191 NA
ATOM     10  N   UNL d   1     -41.481-121.090 -49.564  0.00  0.00    -0.191 NA
ATOM     11  N   UNL d   1     -41.123-119.969 -51.379  0.00  0.00    -0.126 N 
ENDROOT
BRANCH   5  12
ATOM     12  C   UNL d   1     -41.657-122.738 -50.912  0.00  0.00     0.102 A 
ATOM     13  O   UNL d   1     -41.123-123.300 -50.675  0.00  0.00    -0.305 OA
ATOM     14  C   UNL d   1     -41.519-123.816 -50.141  0.00  0.00     0.123 A 
ATOM     15  C   UNL d   1     -42.261-123.554 -50.076  0.00  0.00     0.029 A 
ATOM     16  C   UNL d   1     -42.369-122.904 -50.533  0.00  0.00     0.027 A 
ENDBRANCH   5  12
BRANCH   4  17
ATOM     17  S   UNL d   1     -41.259-121.813 -53.587  0.00  0.00    -0.061 SA
BRANCH  17  18
ATOM     18  C   UNL d   1     -41.883-121.669 -54.061  0.00  0.00     0.105 C 
BRANCH  18  19
ATOM     19  C   UNL d   1     -41.820-121.756 -54.844  0.00  0.00     0.303 C 
ATOM     20  O   UNL d   1     -41.344-121.821 -55.119  0.00  0.00    -0.259 OA
BRANCH  19  21
ATOM     21  O   UNL d   1     -42.481-121.756 -55.300  0.00  0.00    -0.295 OA
ATOM     22  C   UNL d   1     -42.449-122.018 -56.056  0.00  0.00     0.185 C 
ENDBRANCH  19  21
ENDBRANCH  18  19
ENDBRANCH  17  18
ENDBRANCH   4  17
TORSDOF 5
ENDMDL
MODEL 2
REMARK VINA RESULT:       0.9      1.077      3.748
REMARK  5 active torsions:
REMARK  status: ('A' for Active; 'I' for Inactive)
REMARK    1  A    between atoms: S_12  and  C_4 
REMARK    2  A    between atoms: C_7  and  C_5 
REMARK    3  A    between atoms: C_20  and  S_12 
REMARK    4  A    between atoms: C_14  and  C_20 
REMARK    5  A    between atoms: O_21  and  C_14 
ROOT
ATOM      1  C   UNL d   1     -41.578-122.325 -52.313  0.00  0.00     0.095 A 
ATOM      2  C   UNL d   1     -41.435-120.906 -52.520  0.00  0.00     0.108 A 
ATOM      3  N   UNL d   1     -41.269-121.459 -51.200  0.00  0.00    -0.217 NA
ATOM      4  C   UNL d   1     -41.420-122.222 -51.501  0.00  0.00     0.122 A 
ATOM      5  C   UNL d   1     -41.584-121.663 -52.818  0.00  0.00     0.047 A 
ATOM      6  C   UNL d   1     -41.277-120.803 -51.709  0.00  0.00     0.194 A 
ATOM      7  C   UNL d   1     -41.444-120.274 -53.021  0.00  0.00     0.104 C 
ATOM      8  C   UNL d   1     -41.728-123.077 -52.619  0.00  0.00     0.103 C 
ATOM      9  N   UNL d   1     -41.876-123.817 -52.919  0.00  0.00    -0.191 NA
ATOM     10  N   UNL d   1     -41.452-119.648 -53.509  0.00  0.00    -0.191 NA
ATOM     11  N   UNL d   1     -41.126-120.040 -51.408  0.00  0.00    -0.126 N 
ENDROOT
BRANCH   5  12
ATOM     12  C   UNL d   1     -41.738-121.763 -53.605  0.00  0.00     0.102 A 
ATOM     13  O   UNL d   1     -41.200-122.002 -54.162  0.00  0.00    -0.305 OA
ATOM     14  C   UNL d   1     -41.598-122.029 -54.904  0.00  0.00     0.123 A 
ATOM     15  C   UNL d   1     -42.345-121.811 -54.770  0.00  0.00     0.029 A 
ATOM     16  C   UNL d   1     -42.455-121.645 -53.994  0.00  0.00     0.027 A 
ENDBRANCH   5  12
BRANCH   4  17
ATOM     17  S   UNL d   1     -41.412-122.876 -50.993  0.00  0.00    -0.061 SA
BRANCH  17  18
ATOM     18  C   UNL d   1     -41.564-122.788 -50.215  0.00  0.00     0.105 C 
BRANCH  18  19
ATOM     19  C   UNL d   1     -41.527-123.409 -49.728  0.00  0.00     0.303 C 
ATOM     20  O   UNL d   1     -41.144-123.808 -49.749  0.00  0.00    -0.259 OA
BRANCH  19  21
ATOM     21  O   UNL d   1     -42.076-123.493 -49.147  0.00  0.00    -0.295 OA
ATOM     22  C   UNL d   1     -41.867-123.798 -48.437  0.00  0.00     0.185 C 
ENDBRANCH  19  21
ENDBRANCH  18  19
ENDBRANCH  17  18
ENDBRANCH   4  17
TORSDOF 5
ENDMDL
MODEL 3
REMARK VINA RESULT:       3.8      1.410      4.287
REMARK  5 active torsions:
REMARK  status: ('A' for Active; 'I' for Inactive)
REMARK    1  A    between atoms: S_12  and  C_4 
REMARK    2  A    between atoms: C_7  and  C_5 
REMARK    3  A    between atoms: C_20  and  S_12 
REMARK    4  A    between atoms: C_14  and  C_20 
REMARK    5  A    between atoms: O_21  and  C_14 
ROOT
ATOM      1  C   UNL d   1     -42.001-121.516 -53.587  0.00  0.00     0.095 A 
ATOM      2  C   UNL d   1     -41.570-122.797 -54.086  0.00  0.00     0.108 A 
ATOM      3  N   UNL d   1     -41.553-122.536 -52.670  0.00  0.00    -0.217 NA
ATOM      4  C   UNL d   1     -41.846-121.767 -52.808  0.00  0.00     0.122 A 
ATOM      5  C   UNL d   1     -41.861-122.034 -54.223  0.00  0.00     0.047 A 
ATOM      6  C   UNL d   1     -41.416-123.049 -53.307  0.00  0.00     0.194 A 
ATOM      7  C   UNL d   1     -41.439-123.289 -54.711  0.00  0.00     0.104 C 
ATOM      8  C   UNL d   1     -42.291-120.756 -53.733  0.00  0.00     0.103 C 
ATOM      9  N   UNL d   1     -42.576-120.009 -53.876  0.00  0.00    -0.191 NA
ATOM     10  N   UNL d   1     -41.308-123.779 -55.323  0.00  0.00    -0.191 NA
ATOM     11  N   UNL d   1     -41.123-123.817 -53.168  0.00  0.00    -0.126 N 
ENDROOT
BRANCH   5  12
ATOM     12  C   UNL d   1     -42.010-121.791 -54.979  0.00  0.00     0.102 A 
ATOM     13  O   UNL d   1     -41.523-121.323 -55.427  0.00  0.00    -0.305 OA
ATOM     14  C   UNL d   1     -41.897-121.209 -56.172  0.00  0.00     0.123 A 
ATOM     15  C   UNL d   1     -42.581-121.604 -56.148  0.00  0.00     0.029 A 
ATOM     16  C   UNL d   1     -42.672-121.963 -55.438  0.00  0.00     0.027 A 
ENDBRANCH   5  12
BRANCH   4  17
ATOM     17  S   UNL d   1     -41.983-121.256 -52.171  0.00  0.00    -0.061 SA
BRANCH  17  18
ATOM     18  C   UNL d   1     -41.670-121.408 -51.454  0.00  0.00     0.105 C 
BRANCH  18  19
ATOM     19  C   UNL d   1     -42.107-121.322 -50.801  0.00  0.00     0.303 C 
ATOM     20  O   UNL d   1     -42.520-120.958 -50.740  0.00  0.00    -0.259 OA
BRANCH  19  21
ATOM     21  O   UNL d   1     -41.963-121.786 -50.161  0.00  0.00    -0.295 OA
ATOM     22  C   UNL d   1     -42.547-122.234 -49.849  0.00  0.00     0.185 C 
ENDBRANCH  19  21
ENDBRANCH  18  19
ENDBRANCH  17  18
ENDBRANCH   4  17
TORSDOF 5
ENDMDL
