MODEL 1
REMARK VINA RESULT:      22.5      0.000      0.000
REMARK  7 active torsions:
REMARK  status: ('A' for Active; 'I' for Inactive)
REMARK    1  A    between atoms: C_2  and  C_1 
REMARK    2  A    between atoms: O_12  and  C_1 
REMARK       I    between atoms: C_3  and  N_4 
REMARK    3  A    between atoms: C_11  and  C_3 
REMARK    4  A    between atoms: N_4  and  C_7 
REMARK    5  A    between atoms: C_5  and  C_13 
REMARK    6  A    between atoms: O_14  and  C_5 
REMARK    7  A    between atoms: C_13  and  C_11 
ROOT
ATOM      1  C   UNL d   1      57.872  49.608  50.366  0.00  0.00     0.063 A 
ATOM      2  C   UNL d   1      58.375  49.631  51.019  0.00  0.00     0.023 A 
ATOM      3  C   UNL d   1      59.193  49.681  50.929  0.00  0.00     0.059 A 
ATOM      4  C   UNL d   1      58.194  49.636  49.593  0.00  0.00     0.006 A 
ATOM      5  C   UNL d   1      59.019  49.686  49.502  0.00  0.00     0.002 A 
ATOM      6  C   UNL d   1      59.507  49.707  50.174  0.00  0.00     0.017 A 
ENDROOT
BRANCH   3   7
ATOM      7  N   UNL d   1      59.699  49.703  51.605  0.00  0.00    -0.321 N 
ATOM      8  C   UNL d   1      60.465  49.405  51.547  0.00  0.00     0.258 C 
ATOM      9  O   UNL d   1      60.964  49.427  52.212  0.00  0.00    -0.267 OA
ATOM     10  H   UNL d   1      59.418  50.025  52.312  0.00  0.00     0.169 HD
BRANCH   8  11
ATOM     11  C   UNL d   1      60.758  49.080  50.845  0.00  0.00     0.067 C 
BRANCH  11  12
ATOM     12  C   UNL d   1      61.427  48.618  50.828  0.00  0.00     0.072 C 
BRANCH  12  13
ATOM     13  C   UNL d   1      61.373  47.826  50.635  0.00  0.00     0.178 C 
ATOM     14  O   UNL d   1      61.802  47.543  49.990  0.00  0.00    -0.646 OA
BRANCH  13  15
ATOM     15  O   UNL d   1      60.903  47.321  51.070  0.00  0.00    -0.773 OA
ATOM     16  H   UNL d   1      60.613  47.550  51.787  0.00  0.00     0.167 HD
ENDBRANCH  13  15
ENDBRANCH  12  13
ENDBRANCH  11  12
ENDBRANCH   8  11
ENDBRANCH   3   7
BRANCH   1  17
ATOM     17  C   UNL d   1      57.055  49.558  50.473  0.00  0.00     0.178 C 
ATOM     18  O   UNL d   1      56.576  49.356  49.827  0.00  0.00    -0.646 OA
BRANCH  17  19
ATOM     19  O   UNL d   1      56.728  49.706  51.201  0.00  0.00    -0.773 OA
ATOM     20  H   UNL d   1      55.982  50.055  51.270  0.00  0.00     0.167 HD
ENDBRANCH  17  19
ENDBRANCH   1  17
TORSDOF 7
ENDMDL
