MODEL 1
REMARK VINA RESULT:      17.3      0.000      0.000
REMARK  2 active torsions:
REMARK  status: ('A' for Active; 'I' for Inactive)
REMARK    1  A    between atoms: N_2  and  S_1 
REMARK    2  A    between atoms: C_3  and  S_1 
ROOT
ATOM      1  S   UNL d   1      58.628  49.673  50.310  0.00  0.00     0.272 S 
ATOM      2  O   UNL d   1      58.887  49.653  49.526  0.00  0.00    -0.200 OA
ATOM      3  O   UNL d   1      58.365  49.692  51.090  0.00  0.00    -0.200 OA
ENDROOT
BRANCH   1   4
ATOM      4  N   UNL d   1      57.845  49.666  50.051  0.00  0.00    -0.225 N 
ATOM      5  C   UNL d   1      57.170  49.616  50.652  0.00  0.00     0.118 A 
ATOM      6  C   UNL d   1      56.309  49.609  50.368  0.00  0.00     0.142 A 
ATOM      7  O   UNL d   1      56.122  49.650  49.483  0.00  0.00    -0.300 OA
ATOM      8  C   UNL d   1      56.798  49.700  48.882  0.00  0.00     0.142 A 
ATOM      9  C   UNL d   1      57.659  49.708  49.166  0.00  0.00     0.118 A 
ENDBRANCH   1   4
BRANCH   1  10
ATOM     10  C   UNL d   1      59.410  49.680  50.571  0.00  0.00     0.104 A 
ATOM     11  C   UNL d   1      59.573  49.686  51.378  0.00  0.00     0.015 A 
ATOM     12  C   UNL d   1      60.358  49.693  51.646  0.00  0.00     0.028 A 
ATOM     13  C   UNL d   1      60.525  49.700  52.454  0.00  0.00     0.002 C 
ATOM     14  C   UNL d   1      60.973  49.694  51.096  0.00  0.00     0.140 A 
ATOM     15  C   UNL d   1      60.805  49.687  50.289  0.00  0.00     0.030 A 
ATOM     16  F   UNL d   1      61.756  49.701  51.355  0.00  0.00    -0.204 F 
ATOM     17  C   UNL d   1      60.025  49.680  50.023  0.00  0.00     0.015 A 
ENDBRANCH   1  10
TORSDOF 2
ENDMDL
