MODEL 1
REMARK VINA RESULT:      24.5      0.000      0.000
REMARK  7 active torsions:
REMARK  status: ('A' for Active; 'I' for Inactive)
REMARK    1  A    between atoms: C_6  and  C_2 
REMARK    2  A    between atoms: S_7  and  C_4 
REMARK    3  A    between atoms: C_12  and  S_7 
REMARK    4  A    between atoms: C_8  and  C_12 
REMARK    5  A    between atoms: O_16  and  C_8 
REMARK    6  A    between atoms: O_17  and  C_13 
REMARK    7  A    between atoms: C_18  and  O_16 
ROOT
ATOM      1  N   UNL d   1     -54.712-101.034 -41.762  0.00  0.00    -0.212 NA
ATOM      2  C   UNL d   1     -54.712-101.774 -41.412  0.00  0.00     0.171 A 
ATOM      3  N   UNL d   1     -54.713-102.345 -42.010  0.00  0.00    -0.188 NA
ATOM      4  C   UNL d   1     -54.712-101.132 -42.582  0.00  0.00     0.160 A 
ATOM      5  S   UNL d   1     -54.713-101.949 -42.734  0.00  0.00     0.041 SA
ENDROOT
BRANCH   2   6
ATOM      6  C   UNL d   1     -54.712-101.933 -40.599  0.00  0.00     0.037 A 
ATOM      7  C   UNL d   1     -54.712-101.315 -40.039  0.00  0.00     0.005 A 
ATOM      8  C   UNL d   1     -54.711-101.478 -39.240  0.00  0.00     0.024 A 
ATOM      9  C   UNL d   1     -54.711-102.259 -38.984  0.00  0.00     0.094 A 
ATOM     10  C   UNL d   1     -54.712-102.880 -39.535  0.00  0.00     0.024 A 
ATOM     11  C   UNL d   1     -54.712-102.706 -40.336  0.00  0.00     0.005 A 
BRANCH   9  12
ATOM     12  O   UNL d   1     -54.711-102.432 -38.179  0.00  0.00    -0.328 OA
ATOM     13  C   UNL d   1     -55.362-102.797 -37.840  0.00  0.00     0.181 C 
ENDBRANCH   9  12
ENDBRANCH   2   6
BRANCH   4  14
ATOM     14  S   UNL d   1     -54.712-100.534 -43.154  0.00  0.00    -0.054 SA
BRANCH  14  15
ATOM     15  C   UNL d   1     -54.859-100.716 -43.939  0.00  0.00     0.106 C 
BRANCH  15  16
ATOM     16  C   UNL d   1     -54.844-100.127 -44.518  0.00  0.00     0.307 C 
ATOM     17  O   UNL d   1     -54.906-100.338 -45.317  0.00  0.00    -0.258 OA
BRANCH  16  18
ATOM     18  O   UNL d   1     -54.769 -99.331 -44.305  0.00  0.00    -0.271 OA
BRANCH  18  19
ATOM     19  C   UNL d   1     -55.269 -98.758 -44.641  0.00  0.00     0.126 C 
ATOM     20  C   UNL d   1     -56.079 -98.777 -44.489  0.00  0.00     0.029 C 
ENDBRANCH  18  19
ENDBRANCH  16  18
ENDBRANCH  15  16
ENDBRANCH  14  15
ENDBRANCH   4  14
TORSDOF 7
ENDMDL
MODEL 2
REMARK VINA RESULT:      26.5      1.028      5.077
REMARK  7 active torsions:
REMARK  status: ('A' for Active; 'I' for Inactive)
REMARK    1  A    between atoms: C_6  and  C_2 
REMARK    2  A    between atoms: S_7  and  C_4 
REMARK    3  A    between atoms: C_12  and  S_7 
REMARK    4  A    between atoms: C_8  and  C_12 
REMARK    5  A    between atoms: O_16  and  C_8 
REMARK    6  A    between atoms: O_17  and  C_13 
REMARK    7  A    between atoms: C_18  and  O_16 
ROOT
ATOM      1  N   UNL d   1     -54.720-101.408 -41.323  0.00  0.00    -0.212 NA
ATOM      2  C   UNL d   1     -54.737-101.450 -42.141  0.00  0.00     0.171 A 
ATOM      3  N   UNL d   1     -54.755-102.248 -42.360  0.00  0.00    -0.188 NA
ATOM      4  C   UNL d   1     -54.727-102.176 -41.020  0.00  0.00     0.160 A 
ATOM      5  S   UNL d   1     -54.749-102.697 -41.666  0.00  0.00     0.041 SA
ENDROOT
BRANCH   2   6
ATOM      6  C   UNL d   1     -54.737-100.812 -42.667  0.00  0.00     0.037 A 
ATOM      7  C   UNL d   1     -54.759-100.025 -42.390  0.00  0.00     0.005 A 
ATOM      8  C   UNL d   1     -54.758 -99.399 -42.912  0.00  0.00     0.024 A 
ATOM      9  C   UNL d   1     -54.736 -99.544 -43.721  0.00  0.00     0.094 A 
ATOM     10  C   UNL d   1     -54.713-100.325 -44.005  0.00  0.00     0.024 A 
ATOM     11  C   UNL d   1     -54.714-100.946 -43.471  0.00  0.00     0.005 A 
BRANCH   9  12
ATOM     12  O   UNL d   1     -54.735 -98.919 -44.256  0.00  0.00    -0.328 OA
ATOM     13  C   UNL d   1     -55.143 -98.986 -44.964  0.00  0.00     0.181 C 
ENDBRANCH   9  12
ENDBRANCH   2   6
BRANCH   4  14
ATOM     14  S   UNL d   1     -54.715-102.395 -40.222  0.00  0.00    -0.054 SA
BRANCH  14  15
ATOM     15  C   UNL d   1     -55.390-102.694 -39.869  0.00  0.00     0.106 C 
BRANCH  15  16
ATOM     16  C   UNL d   1     -55.490-102.653 -39.050  0.00  0.00     0.307 C 
ATOM     17  O   UNL d   1     -56.241-102.782 -38.722  0.00  0.00    -0.258 OA
BRANCH  16  18
ATOM     18  O   UNL d   1     -54.848-102.484 -38.557  0.00  0.00    -0.271 OA
BRANCH  18  19
ATOM     19  C   UNL d   1     -54.824-102.785 -37.781  0.00  0.00     0.126 C 
ATOM     20  C   UNL d   1     -55.013-102.299 -37.143  0.00  0.00     0.029 C 
ENDBRANCH  18  19
ENDBRANCH  16  18
ENDBRANCH  15  16
ENDBRANCH  14  15
ENDBRANCH   4  14
TORSDOF 7
ENDMDL
