MODEL 1
REMARK VINA RESULT:      -2.1      0.000      0.000
REMARK  6 active torsions:
REMARK  status: ('A' for Active; 'I' for Inactive)
REMARK       I    between atoms: C_3  and  N_1 
REMARK    1  A    between atoms: C_4  and  N_1 
REMARK    2  A    between atoms: S_2  and  C_12 
REMARK    3  A    between atoms: C_6  and  C_3 
REMARK    4  A    between atoms: N_5  and  C_6 
REMARK       I    between atoms: C_7  and  N_5 
REMARK    5  A    between atoms: C_8  and  C_6 
REMARK    6  A    between atoms: C_12  and  C_8 
ROOT
ATOM      1  N   UNL d   1      30.531  17.056 -23.495  0.00  0.00    -0.207 NA
ATOM      2  C   UNL d   1      31.188  16.815 -23.931  0.00  0.00     0.297 C 
ATOM      3  O   UNL d   1      31.083  16.341 -24.604  0.00  0.00    -0.264 OA
ENDROOT
BRANCH   2   4
ATOM      4  C   UNL d   1      31.952  17.044 -23.697  0.00  0.00     0.143 C 
BRANCH   4   5
ATOM      5  N   UNL d   1      32.381  16.570 -23.174  0.00  0.00    -0.203 NA
ATOM      6  C   UNL d   1      32.810  15.927 -23.458  0.00  0.00     0.280 C 
ATOM      7  O   UNL d   1      32.811  15.757 -24.265  0.00  0.00    -0.265 OA
ATOM      8  C   UNL d   1      33.240  15.453 -22.935  0.00  0.00     0.068 C 
ENDBRANCH   4   5
BRANCH   4   9
ATOM      9  C   UNL d   1      32.280  17.743 -23.985  0.00  0.00     0.036 C 
BRANCH   9  10
ATOM     10  C   UNL d   1      32.577  18.305 -23.460  0.00  0.00     0.096 C 
BRANCH  10  11
ATOM     11  S   UNL d   1      32.918  18.997 -23.749  0.00  0.00     0.192 S 
ATOM     12  O   UNL d   1      32.793  19.147 -22.940  0.00  0.00    -0.222 OA
ATOM     13  O   UNL d   1      33.241  19.762 -23.833  0.00  0.00    -0.222 OA
ATOM     14  C   UNL d   1      33.121  19.052 -24.545  0.00  0.00     0.145 C 
ENDBRANCH  10  11
ENDBRANCH   9  10
ENDBRANCH   4   9
ENDBRANCH   2   4
BRANCH   1  15
ATOM     15  C   UNL d   1      29.757  16.820 -23.737  0.00  0.00     0.085 A 
ATOM     16  C   UNL d   1      29.438  16.133 -23.437  0.00  0.00     0.018 A 
ATOM     17  C   UNL d   1      28.674  15.910 -23.683  0.00  0.00     0.002 A 
ATOM     18  C   UNL d   1      29.846  15.663 -22.906  0.00  0.00     0.002 C 
ATOM     19  C   UNL d   1      28.244  16.370 -24.219  0.00  0.00     0.000 A 
ATOM     20  C   UNL d   1      28.586  17.066 -24.513  0.00  0.00     0.002 A 
ATOM     21  C   UNL d   1      29.355  17.300 -24.272  0.00  0.00     0.018 A 
ATOM     22  C   UNL d   1      29.676  17.990 -24.573  0.00  0.00     0.002 C 
ENDBRANCH   1  15
TORSDOF 6
ENDMDL
MODEL 2
REMARK VINA RESULT:       0.5      1.556      3.695
REMARK  6 active torsions:
REMARK  status: ('A' for Active; 'I' for Inactive)
REMARK       I    between atoms: C_3  and  N_1 
REMARK    1  A    between atoms: C_4  and  N_1 
REMARK    2  A    between atoms: S_2  and  C_12 
REMARK    3  A    between atoms: C_6  and  C_3 
REMARK    4  A    between atoms: N_5  and  C_6 
REMARK       I    between atoms: C_7  and  N_5 
REMARK    5  A    between atoms: C_8  and  C_6 
REMARK    6  A    between atoms: C_12  and  C_8 
ROOT
ATOM      1  N   UNL d   1      31.966  18.488 -23.860  0.00  0.00    -0.207 NA
ATOM      2  C   UNL d   1      32.347  17.760 -23.937  0.00  0.00     0.297 C 
ATOM      3  O   UNL d   1      33.151  17.694 -23.740  0.00  0.00    -0.264 OA
ENDROOT
BRANCH   2   4
ATOM      4  C   UNL d   1      31.929  17.097 -24.211  0.00  0.00     0.143 C 
BRANCH   4   5
ATOM      5  N   UNL d   1      32.281  16.584 -24.754  0.00  0.00    -0.203 NA
ATOM      6  C   UNL d   1      32.776  15.980 -24.490  0.00  0.00     0.280 C 
ATOM      7  O   UNL d   1      32.918  15.888 -23.683  0.00  0.00    -0.265 OA
ATOM      8  C   UNL d   1      33.129  15.467 -25.033  0.00  0.00     0.068 C 
ENDBRANCH   4   5
BRANCH   4   9
ATOM      9  C   UNL d   1      31.164  16.951 -23.942  0.00  0.00     0.036 C 
BRANCH   9  10
ATOM     10  C   UNL d   1      30.599  16.641 -24.457  0.00  0.00     0.096 C 
BRANCH  10  11
ATOM     11  S   UNL d   1      29.821  16.545 -24.203  0.00  0.00     0.192 S 
ATOM     12  O   UNL d   1      29.778  17.135 -24.788  0.00  0.00    -0.222 OA
ATOM     13  O   UNL d   1      28.995  16.604 -24.096  0.00  0.00    -0.222 OA
ATOM     14  C   UNL d   1      29.646  15.995 -23.615  0.00  0.00     0.145 C 
ENDBRANCH  10  11
ENDBRANCH   9  10
ENDBRANCH   4   9
ENDBRANCH   2   4
BRANCH   1  15
ATOM     15  C   UNL d   1      32.397  19.159 -23.582  0.00  0.00     0.085 A 
ATOM     16  C   UNL d   1      32.503  19.259 -22.781  0.00  0.00     0.018 A 
ATOM     17  C   UNL d   1      32.930  19.925 -22.517  0.00  0.00     0.002 A 
ATOM     18  C   UNL d   1      32.205  18.728 -22.235  0.00  0.00     0.002 C 
ATOM     19  C   UNL d   1      33.240  20.475 -23.051  0.00  0.00     0.000 A 
ATOM     20  C   UNL d   1      33.121  20.355 -23.863  0.00  0.00     0.002 A 
ATOM     21  C   UNL d   1      32.693  19.688 -24.139  0.00  0.00     0.018 A 
ATOM     22  C   UNL d   1      32.586  19.587 -24.944  0.00  0.00     0.002 C 
ENDBRANCH   1  15
TORSDOF 6
ENDMDL
