MODEL 1
REMARK VINA RESULT:      -7.6      0.000      0.000
REMARK  3 active torsions:
REMARK  status: ('A' for Active; 'I' for Inactive)
REMARK    1  A    between atoms: C_8  and  C_4 
REMARK    2  A    between atoms: N_5  and  C_7 
REMARK    3  A    between atoms: C_12  and  C_6 
ROOT
ATOM      1  O   UNL d   1     -41.832-122.866 -51.723  0.00  0.00    -0.268 OA
ATOM      2  N   UNL d   1     -41.123-121.769 -51.999  0.00  0.00    -0.121 NA
ATOM      3  N   UNL d   1     -41.244-121.790 -51.183  0.00  0.00    -0.121 NA
ATOM      4  C   UNL d   1     -41.481-122.425 -52.332  0.00  0.00     0.204 A 
ATOM      5  C   UNL d   1     -41.682-122.467 -51.008  0.00  0.00     0.204 A 
ENDROOT
BRANCH   4   6
ATOM      6  C   UNL d   1     -41.498-122.625 -53.136  0.00  0.00     0.045 A 
ATOM      7  C   UNL d   1     -41.871-122.128 -53.678  0.00  0.00     0.027 A 
ATOM      8  C   UNL d   1     -41.886-122.330 -54.474  0.00  0.00     0.127 A 
ATOM      9  C   UNL d   1     -41.528-123.030 -54.732  0.00  0.00     0.024 A 
ATOM     10  C   UNL d   1     -41.156-123.526 -54.193  0.00  0.00     0.002 A 
ATOM     11  C   UNL d   1     -41.140-123.325 -53.394  0.00  0.00     0.004 A 
BRANCH   8  12
ATOM     12  N   UNL d   1     -42.264-121.825 -55.017  0.00  0.00    -0.114 N 
ATOM     13  O   UNL d   1     -43.075-121.655 -54.928  0.00  0.00    -0.532 OA
ATOM     14  O   UNL d   1     -41.841-121.490 -55.642  0.00  0.00    -0.532 OA
ENDBRANCH   8  12
ENDBRANCH   4   6
BRANCH   5  15
ATOM     15  C   UNL d   1     -41.926-122.703 -50.259  0.00  0.00     0.043 A 
ATOM     16  C   UNL d   1     -41.414-123.125 -49.773  0.00  0.00     0.004 A 
ATOM     17  C   UNL d   1     -41.664-123.362 -49.017  0.00  0.00     0.000 A 
ATOM     18  C   UNL d   1     -42.423-123.174 -48.756  0.00  0.00     0.000 A 
ATOM     19  C   UNL d   1     -42.932-122.748 -49.253  0.00  0.00     0.000 A 
ATOM     20  C   UNL d   1     -42.691-122.510 -50.003  0.00  0.00     0.004 A 
ENDBRANCH   5  15
TORSDOF 3
ENDMDL
