MODEL 1
REMARK VINA RESULT:      29.7      0.000      0.000
REMARK  5 active torsions:
REMARK  status: ('A' for Active; 'I' for Inactive)
REMARK    1  A    between atoms: N_2  and  S_1 
REMARK    2  A    between atoms: C_3  and  S_1 
REMARK    3  A    between atoms: C_10  and  C_3 
REMARK    4  A    between atoms: C_9  and  N_4 
REMARK    5  A    between atoms: C_16  and  C_10 
ROOT
ATOM      1  N   UNL d   1      45.725 -18.035  40.182  0.00  0.00    -0.226 N 
ATOM      2  N   UNL d   1      46.026 -18.735  41.627  0.00  0.00    -0.301 N 
ATOM      3  C   UNL d   1      45.127 -18.084  40.736  0.00  0.00     0.111 A 
ATOM      4  C   UNL d   1      46.480 -18.333  40.339  0.00  0.00     0.111 A 
ATOM      5  C   UNL d   1      45.272 -18.436  41.467  0.00  0.00     0.100 A 
ATOM      6  C   UNL d   1      46.635 -18.687  41.067  0.00  0.00     0.100 A 
ENDROOT
BRANCH   1   7
ATOM      7  S   UNL d   1      45.567 -17.674  39.438  0.00  0.00     0.272 S 
ATOM      8  O   UNL d   1      46.351 -17.410  39.402  0.00  0.00    -0.200 OA
ATOM      9  O   UNL d   1      44.773 -17.943  39.480  0.00  0.00    -0.200 OA
BRANCH   7  10
ATOM     10  C   UNL d   1      45.399 -17.318  38.700  0.00  0.00     0.116 C 
BRANCH  10  11
ATOM     11  C   UNL d   1      45.067 -16.561  38.684  0.00  0.00     0.014 C 
BRANCH  11  12
ATOM     12  C   UNL d   1      44.946 -16.191  37.958  0.00  0.00     0.001 A 
ATOM     13  C   UNL d   1      45.579 -15.777  37.573  0.00  0.00     0.000 A 
ATOM     14  C   UNL d   1      45.447 -15.409  36.843  0.00  0.00     0.000 A 
ATOM     15  C   UNL d   1      44.681 -15.452  36.491  0.00  0.00     0.000 A 
ATOM     16  C   UNL d   1      44.073 -15.851  36.862  0.00  0.00     0.000 A 
ATOM     17  C   UNL d   1      44.214 -16.220  37.599  0.00  0.00     0.000 A 
ENDBRANCH  11  12
ENDBRANCH  10  11
ENDBRANCH   7  10
ENDBRANCH   1   7
BRANCH   2  18
ATOM     18  C   UNL d   1      46.173 -19.092  42.368  0.00  0.00     0.064 A 
ATOM     19  C   UNL d   1      46.022 -19.893  42.476  0.00  0.00     0.020 A 
ATOM     20  C   UNL d   1      46.169 -20.238  43.210  0.00  0.00     0.031 A 
ATOM     21  C   UNL d   1      46.465 -19.782  43.824  0.00  0.00     0.140 A 
ATOM     22  C   UNL d   1      46.620 -18.971  43.721  0.00  0.00     0.031 A 
ATOM     23  F   UNL d   1      46.618 -20.135  44.582  0.00  0.00    -0.204 F 
ATOM     24  C   UNL d   1      46.472 -18.628  42.985  0.00  0.00     0.020 A 
ENDBRANCH   2  18
TORSDOF 5
ENDMDL
