MODEL 1
REMARK VINA RESULT:      -3.3      0.000      0.000
REMARK  4 active torsions:
REMARK  status: ('A' for Active; 'I' for Inactive)
REMARK    1  A    between atoms: N_2  and  S_1 
REMARK    2  A    between atoms: C_4  and  S_1 
REMARK    3  A    between atoms: O_16  and  C_13 
REMARK    4  A    between atoms: C_19  and  O_16 
ROOT
ATOM      1  S   UNL d   1      33.076  20.117 -22.244  0.00  0.00     0.271 S 
ATOM      2  O   UNL d   1      32.913  19.578 -21.641  0.00  0.00    -0.200 OA
ATOM      3  O   UNL d   1      33.240  20.662 -22.850  0.00  0.00    -0.200 OA
ENDROOT
BRANCH   1   4
ATOM      4  N   UNL d   1      33.034  20.741 -21.697  0.00  0.00    -0.229 N 
ATOM      5  C   UNL d   1      32.786  21.487 -21.939  0.00  0.00     0.092 A 
ATOM      6  C   UNL d   1      32.745  22.103 -21.393  0.00  0.00     0.018 A 
ATOM      7  C   UNL d   1      32.497  22.853 -21.635  0.00  0.00     0.002 A 
ATOM      8  C   UNL d   1      32.953  21.971 -20.606  0.00  0.00     0.003 A 
ATOM      9  C   UNL d   1      32.456  23.469 -21.089  0.00  0.00     0.000 A 
ATOM     10  C   UNL d   1      32.663  23.337 -20.301  0.00  0.00     0.000 A 
ATOM     11  C   UNL d   1      32.911  22.590 -20.059  0.00  0.00     0.000 A 
ATOM     12  C   UNL d   1      33.201  21.224 -20.363  0.00  0.00     0.020 A 
ATOM     13  C   UNL d   1      33.241  20.609 -20.909  0.00  0.00     0.092 A 
ENDBRANCH   1   4
BRANCH   1  14
ATOM     14  C   UNL d   1      33.117  19.498 -22.784  0.00  0.00     0.104 A 
ATOM     15  C   UNL d   1      33.077  18.715 -22.520  0.00  0.00     0.015 A 
ATOM     16  C   UNL d   1      33.118  18.095 -23.060  0.00  0.00     0.025 A 
ATOM     17  C   UNL d   1      33.200  18.253 -23.866  0.00  0.00     0.100 A 
ATOM     18  C   UNL d   1      33.240  19.032 -24.130  0.00  0.00     0.025 A 
ATOM     19  C   UNL d   1      33.198  19.657 -23.590  0.00  0.00     0.015 A 
BRANCH  17  20
ATOM     20  O   UNL d   1      33.241  17.634 -24.406  0.00  0.00    -0.305 OA
BRANCH  20  21
ATOM     21  C   UNL d   1      32.742  16.982 -24.324  0.00  0.00     0.123 C 
ATOM     22  C   UNL d   1      32.743  16.388 -24.896  0.00  0.00     0.029 C 
ENDBRANCH  20  21
ENDBRANCH  17  20
ENDBRANCH   1  14
TORSDOF 4
ENDMDL
MODEL 2
REMARK VINA RESULT:      -3.2      1.309      5.163
REMARK  4 active torsions:
REMARK  status: ('A' for Active; 'I' for Inactive)
REMARK    1  A    between atoms: N_2  and  S_1 
REMARK    2  A    between atoms: C_4  and  S_1 
REMARK    3  A    between atoms: O_16  and  C_13 
REMARK    4  A    between atoms: C_19  and  O_16 
ROOT
ATOM      1  S   UNL d   1      32.824  18.748 -23.278  0.00  0.00     0.271 S 
ATOM      2  O   UNL d   1      32.613  19.191 -23.942  0.00  0.00    -0.200 OA
ATOM      3  O   UNL d   1      33.036  18.300 -22.611  0.00  0.00    -0.200 OA
ENDROOT
BRANCH   1   4
ATOM      4  N   UNL d   1      32.718  18.048 -23.713  0.00  0.00    -0.229 N 
ATOM      5  C   UNL d   1      32.096  17.540 -23.532  0.00  0.00     0.092 A 
ATOM      6  C   UNL d   1      31.994  16.847 -23.966  0.00  0.00     0.018 A 
ATOM      7  C   UNL d   1      31.371  16.335 -23.786  0.00  0.00     0.002 A 
ATOM      8  C   UNL d   1      32.513  16.664 -24.581  0.00  0.00     0.003 A 
ATOM      9  C   UNL d   1      31.269  15.642 -24.220  0.00  0.00     0.000 A 
ATOM     10  C   UNL d   1      31.788  15.459 -24.835  0.00  0.00     0.000 A 
ATOM     11  C   UNL d   1      32.410  15.968 -25.016  0.00  0.00     0.000 A 
ATOM     12  C   UNL d   1      33.135  17.173 -24.762  0.00  0.00     0.020 A 
ATOM     13  C   UNL d   1      33.237  17.865 -24.328  0.00  0.00     0.092 A 
ENDBRANCH   1   4
BRANCH   1  14
ATOM     14  C   UNL d   1      32.928  19.442 -22.849  0.00  0.00     0.104 A 
ATOM     15  C   UNL d   1      32.837  19.439 -22.027  0.00  0.00     0.015 A 
ATOM     16  C   UNL d   1      32.941  20.134 -21.598  0.00  0.00     0.025 A 
ATOM     17  C   UNL d   1      33.137  20.835 -21.988  0.00  0.00     0.100 A 
ATOM     18  C   UNL d   1      33.228  20.839 -22.806  0.00  0.00     0.025 A 
ATOM     19  C   UNL d   1      33.124  20.143 -23.239  0.00  0.00     0.015 A 
BRANCH  17  20
ATOM     20  O   UNL d   1      33.241  21.529 -21.559  0.00  0.00    -0.305 OA
BRANCH  20  21
ATOM     21  C   UNL d   1      32.586  21.932 -21.260  0.00  0.00     0.123 C 
ATOM     22  C   UNL d   1      32.673  22.694 -20.957  0.00  0.00     0.029 C 
ENDBRANCH  20  21
ENDBRANCH  17  20
ENDBRANCH   1  14
TORSDOF 4
ENDMDL
MODEL 3
REMARK VINA RESULT:      -3.2      0.961      4.901
REMARK  4 active torsions:
REMARK  status: ('A' for Active; 'I' for Inactive)
REMARK    1  A    between atoms: N_2  and  S_1 
REMARK    2  A    between atoms: C_4  and  S_1 
REMARK    3  A    between atoms: O_16  and  C_13 
REMARK    4  A    between atoms: C_19  and  O_16 
ROOT
ATOM      1  S   UNL d   1      33.103  19.911 -22.507  0.00  0.00     0.271 S 
ATOM      2  O   UNL d   1      33.168  20.457 -23.124  0.00  0.00    -0.200 OA
ATOM      3  O   UNL d   1      33.037  19.360 -21.890  0.00  0.00    -0.200 OA
ENDROOT
BRANCH   1   4
ATOM      4  N   UNL d   1      33.068  19.292 -23.062  0.00  0.00    -0.229 N 
ATOM      5  C   UNL d   1      32.863  18.533 -22.820  0.00  0.00     0.092 A 
ATOM      6  C   UNL d   1      32.829  17.922 -23.372  0.00  0.00     0.018 A 
ATOM      7  C   UNL d   1      32.623  17.159 -23.132  0.00  0.00     0.002 A 
ATOM      8  C   UNL d   1      33.002  18.072 -24.165  0.00  0.00     0.003 A 
ATOM      9  C   UNL d   1      32.590  16.549 -23.684  0.00  0.00     0.000 A 
ATOM     10  C   UNL d   1      32.762  16.698 -24.477  0.00  0.00     0.000 A 
ATOM     11  C   UNL d   1      32.968  17.459 -24.718  0.00  0.00     0.000 A 
ATOM     12  C   UNL d   1      33.208  18.833 -24.406  0.00  0.00     0.020 A 
ATOM     13  C   UNL d   1      33.241  19.442 -23.854  0.00  0.00     0.092 A 
ENDBRANCH   1   4
BRANCH   1  14
ATOM     14  C   UNL d   1      33.137  20.525 -21.962  0.00  0.00     0.104 A 
ATOM     15  C   UNL d   1      33.108  20.362 -21.151  0.00  0.00     0.015 A 
ATOM     16  C   UNL d   1      33.142  20.976 -20.605  0.00  0.00     0.025 A 
ATOM     17  C   UNL d   1      33.206  21.757 -20.864  0.00  0.00     0.100 A 
ATOM     18  C   UNL d   1      33.236  21.921 -21.671  0.00  0.00     0.025 A 
ATOM     19  C   UNL d   1      33.202  21.305 -22.221  0.00  0.00     0.015 A 
BRANCH  17  20
ATOM     20  O   UNL d   1      33.241  22.371 -20.319  0.00  0.00    -0.305 OA
BRANCH  20  21
ATOM     21  C   UNL d   1      32.553  22.773 -20.105  0.00  0.00     0.123 C 
ATOM     22  C   UNL d   1      32.584  23.375 -19.543  0.00  0.00     0.029 C 
ENDBRANCH  20  21
ENDBRANCH  17  20
ENDBRANCH   1  14
TORSDOF 4
ENDMDL
MODEL 4
REMARK VINA RESULT:      -2.2      1.409      2.205
REMARK  4 active torsions:
REMARK  status: ('A' for Active; 'I' for Inactive)
REMARK    1  A    between atoms: N_2  and  S_1 
REMARK    2  A    between atoms: C_4  and  S_1 
REMARK    3  A    between atoms: O_16  and  C_13 
REMARK    4  A    between atoms: C_19  and  O_16 
ROOT
ATOM      1  S   UNL d   1      33.049  21.426 -20.963  0.00  0.00     0.271 S 
ATOM      2  O   UNL d   1      33.241  20.851 -20.401  0.00  0.00    -0.200 OA
ATOM      3  O   UNL d   1      32.857  22.006 -21.526  0.00  0.00    -0.200 OA
ENDROOT
BRANCH   1   4
ATOM      4  N   UNL d   1      33.002  21.997 -20.361  0.00  0.00    -0.229 N 
ATOM      5  C   UNL d   1      33.063  21.770 -19.572  0.00  0.00     0.092 A 
ATOM      6  C   UNL d   1      33.015  22.338 -18.977  0.00  0.00     0.018 A 
ATOM      7  C   UNL d   1      33.076  22.112 -18.184  0.00  0.00     0.002 A 
ATOM      8  C   UNL d   1      32.907  23.132 -19.172  0.00  0.00     0.003 A 
ATOM      9  C   UNL d   1      33.028  22.681 -17.590  0.00  0.00     0.000 A 
ATOM     10  C   UNL d   1      32.920  23.475 -17.785  0.00  0.00     0.000 A 
ATOM     11  C   UNL d   1      32.859  23.702 -18.575  0.00  0.00     0.000 A 
ATOM     12  C   UNL d   1      32.846  23.359 -19.962  0.00  0.00     0.020 A 
ATOM     13  C   UNL d   1      32.894  22.791 -20.556  0.00  0.00     0.092 A 
ENDBRANCH   1   4
BRANCH   1  14
ATOM     14  C   UNL d   1      33.097  20.859 -21.557  0.00  0.00     0.104 A 
ATOM     15  C   UNL d   1      33.064  20.055 -21.365  0.00  0.00     0.015 A 
ATOM     16  C   UNL d   1      33.112  19.487 -21.959  0.00  0.00     0.025 A 
ATOM     17  C   UNL d   1      33.193  19.719 -22.747  0.00  0.00     0.100 A 
ATOM     18  C   UNL d   1      33.225  20.519 -22.939  0.00  0.00     0.025 A 
ATOM     19  C   UNL d   1      33.178  21.091 -22.344  0.00  0.00     0.015 A 
BRANCH  17  20
ATOM     20  O   UNL d   1      33.241  19.152 -23.341  0.00  0.00    -0.305 OA
BRANCH  20  21
ATOM     21  C   UNL d   1      32.555  18.884 -23.713  0.00  0.00     0.123 C 
ATOM     22  C   UNL d   1      32.601  18.514 -24.448  0.00  0.00     0.029 C 
ENDBRANCH  20  21
ENDBRANCH  17  20
ENDBRANCH   1  14
TORSDOF 4
ENDMDL
MODEL 5
REMARK VINA RESULT:      -1.6      2.155      5.187
REMARK  4 active torsions:
REMARK  status: ('A' for Active; 'I' for Inactive)
REMARK    1  A    between atoms: N_2  and  S_1 
REMARK    2  A    between atoms: C_4  and  S_1 
REMARK    3  A    between atoms: O_16  and  C_13 
REMARK    4  A    between atoms: C_19  and  O_16 
ROOT
ATOM      1  S   UNL d   1      33.162  22.035 -20.731  0.00  0.00     0.271 S 
ATOM      2  O   UNL d   1      33.083  21.324 -20.318  0.00  0.00    -0.200 OA
ATOM      3  O   UNL d   1      33.241  22.749 -21.148  0.00  0.00    -0.200 OA
ENDROOT
BRANCH   1   4
ATOM      4  N   UNL d   1      33.173  21.615 -21.448  0.00  0.00    -0.229 N 
ATOM      5  C   UNL d   1      33.179  22.022 -22.164  0.00  0.00     0.092 A 
ATOM      6  C   UNL d   1      33.190  21.602 -22.873  0.00  0.00     0.018 A 
ATOM      7  C   UNL d   1      33.196  22.008 -23.593  0.00  0.00     0.002 A 
ATOM      8  C   UNL d   1      33.195  20.777 -22.865  0.00  0.00     0.003 A 
ATOM      9  C   UNL d   1      33.207  21.588 -24.301  0.00  0.00     0.000 A 
ATOM     10  C   UNL d   1      33.213  20.763 -24.294  0.00  0.00     0.000 A 
ATOM     11  C   UNL d   1      33.207  20.357 -23.577  0.00  0.00     0.000 A 
ATOM     12  C   UNL d   1      33.190  20.371 -22.148  0.00  0.00     0.020 A 
ATOM     13  C   UNL d   1      33.178  20.790 -21.440  0.00  0.00     0.092 A 
ENDBRANCH   1   4
BRANCH   1  14
ATOM     14  C   UNL d   1      33.150  22.448 -20.019  0.00  0.00     0.104 A 
ATOM     15  C   UNL d   1      33.080  23.272 -20.019  0.00  0.00     0.015 A 
ATOM     16  C   UNL d   1      33.068  23.685 -19.307  0.00  0.00     0.025 A 
ATOM     17  C   UNL d   1      33.126  23.278 -18.592  0.00  0.00     0.100 A 
ATOM     18  C   UNL d   1      33.196  22.457 -18.590  0.00  0.00     0.025 A 
ATOM     19  C   UNL d   1      33.208  22.040 -19.304  0.00  0.00     0.015 A 
BRANCH  17  20
ATOM     20  O   UNL d   1      33.115  23.690 -17.881  0.00  0.00    -0.305 OA
BRANCH  20  21
ATOM     21  C   UNL d   1      32.681  23.400 -17.242  0.00  0.00     0.123 C 
ATOM     22  C   UNL d   1      32.998  23.425 -16.482  0.00  0.00     0.029 C 
ENDBRANCH  20  21
ENDBRANCH  17  20
ENDBRANCH   1  14
TORSDOF 4
ENDMDL
MODEL 6
REMARK VINA RESULT:      -0.7      4.115      5.669
REMARK  4 active torsions:
REMARK  status: ('A' for Active; 'I' for Inactive)
REMARK    1  A    between atoms: N_2  and  S_1 
REMARK    2  A    between atoms: C_4  and  S_1 
REMARK    3  A    between atoms: O_16  and  C_13 
REMARK    4  A    between atoms: C_19  and  O_16 
ROOT
ATOM      1  S   UNL d   1      30.199  16.712 -24.162  0.00  0.00     0.271 S 
ATOM      2  O   UNL d   1      30.539  16.289 -23.539  0.00  0.00    -0.200 OA
ATOM      3  O   UNL d   1      29.859  17.138 -24.788  0.00  0.00    -0.200 OA
ENDROOT
BRANCH   1   4
ATOM      4  N   UNL d   1      30.944  17.028 -24.352  0.00  0.00    -0.229 N 
ATOM      5  C   UNL d   1      31.019  17.828 -24.532  0.00  0.00     0.092 A 
ATOM      6  C   UNL d   1      31.759  18.137 -24.720  0.00  0.00     0.018 A 
ATOM      7  C   UNL d   1      31.837  18.940 -24.900  0.00  0.00     0.002 A 
ATOM      8  C   UNL d   1      32.423  17.647 -24.728  0.00  0.00     0.003 A 
ATOM      9  C   UNL d   1      32.577  19.250 -25.088  0.00  0.00     0.000 A 
ATOM     10  C   UNL d   1      33.240  18.759 -25.097  0.00  0.00     0.000 A 
ATOM     11  C   UNL d   1      33.164  17.959 -24.917  0.00  0.00     0.000 A 
ATOM     12  C   UNL d   1      32.347  16.846 -24.548  0.00  0.00     0.020 A 
ATOM     13  C   UNL d   1      31.607  16.538 -24.361  0.00  0.00     0.092 A 
ENDBRANCH   1   4
BRANCH   1  14
ATOM     14  C   UNL d   1      29.463  16.398 -23.971  0.00  0.00     0.104 A 
ATOM     15  C   UNL d   1      29.035  16.704 -23.333  0.00  0.00     0.015 A 
ATOM     16  C   UNL d   1      28.299  16.389 -23.141  0.00  0.00     0.025 A 
ATOM     17  C   UNL d   1      27.987  15.768 -23.586  0.00  0.00     0.100 A 
ATOM     18  C   UNL d   1      28.412  15.462 -24.221  0.00  0.00     0.025 A 
ATOM     19  C   UNL d   1      29.152  15.776 -24.415  0.00  0.00     0.015 A 
BRANCH  17  20
ATOM     20  O   UNL d   1      27.251  15.453 -23.395  0.00  0.00    -0.305 OA
BRANCH  20  21
ATOM     21  C   UNL d   1      26.569  15.753 -23.749  0.00  0.00     0.123 C 
ATOM     22  C   UNL d   1      25.827  15.491 -23.504  0.00  0.00     0.029 C 
ENDBRANCH  20  21
ENDBRANCH  17  20
ENDBRANCH   1  14
TORSDOF 4
ENDMDL
