MODEL 1
REMARK VINA RESULT:      76.9      0.000      0.000
REMARK  9 active torsions:
REMARK  status: ('A' for Active; 'I' for Inactive)
REMARK    1  A    between atoms: C_17  and  N_1 
REMARK    2  A    between atoms: S_10  and  C_2 
REMARK    3  A    between atoms: N_8  and  C_9 
REMARK    4  A    between atoms: C_19  and  S_10 
REMARK    5  A    between atoms: C_11  and  C_19 
REMARK       I    between atoms: N_13  and  C_11 
REMARK    6  A    between atoms: C_20  and  N_13 
REMARK    7  A    between atoms: C_28  and  C_17 
REMARK    8  A    between atoms: C_23  and  C_20 
REMARK    9  A    between atoms: C_29  and  C_28 
ROOT
ATOM      1  N   UNL d   1     -49.542  25.552  33.331  0.00  0.00    -0.253 N 
ATOM      2  C   UNL d   1     -49.632  26.372  33.330  0.00  0.00     0.182 A 
ATOM      3  C   UNL d   1     -50.214  25.063  33.354  0.00  0.00     0.268 A 
ATOM      4  C   UNL d   1     -50.967  25.396  33.375  0.00  0.00     0.076 A 
ATOM      5  N   UNL d   1     -50.394  26.703  33.351  0.00  0.00    -0.222 NA
ATOM      6  C   UNL d   1     -51.057  26.216  33.374  0.00  0.00     0.088 A 
ATOM      7  C   UNL d   1     -51.629  24.908  33.398  0.00  0.00     0.024 A 
ATOM      8  C   UNL d   1     -52.383  25.241  33.419  0.00  0.00     0.065 A 
ATOM      9  O   UNL d   1     -50.124  24.243  33.356  0.00  0.00    -0.267 OA
ATOM     10  C   UNL d   1     -51.809  26.548  33.395  0.00  0.00     0.021 A 
ATOM     11  C   UNL d   1     -52.473  26.061  33.417  0.00  0.00     0.019 A 
ENDROOT
BRANCH   2  12
ATOM     12  S   UNL d   1     -48.966  26.864  33.307  0.00  0.00    -0.044 SA
BRANCH  12  13
ATOM     13  C   UNL d   1     -49.044  27.683  33.440  0.00  0.00     0.101 C 
BRANCH  13  14
ATOM     14  C   UNL d   1     -48.834  28.003  34.174  0.00  0.00     0.286 C 
ATOM     15  N   UNL d   1     -48.910  28.820  34.302  0.00  0.00    -0.206 NA
ATOM     16  O   UNL d   1     -48.551  27.507  34.770  0.00  0.00    -0.265 OA
BRANCH  15  17
ATOM     17  C   UNL d   1     -48.698  29.141  35.042  0.00  0.00     0.102 C 
BRANCH  17  18
ATOM     18  C   UNL d   1     -48.131  29.747  35.079  0.00  0.00     0.019 A 
ATOM     19  C   UNL d   1     -47.618  29.793  35.723  0.00  0.00     0.002 A 
ATOM     20  C   UNL d   1     -47.054  30.393  35.764  0.00  0.00     0.000 A 
ATOM     21  C   UNL d   1     -47.004  30.958  35.143  0.00  0.00     0.000 A 
ATOM     22  C   UNL d   1     -47.518  30.910  34.499  0.00  0.00     0.000 A 
ATOM     23  C   UNL d   1     -48.085  30.305  34.462  0.00  0.00     0.002 A 
ENDBRANCH  17  18
ENDBRANCH  15  17
ENDBRANCH  13  14
ENDBRANCH  12  13
ENDBRANCH   2  12
BRANCH   1  24
ATOM     24  C   UNL d   1     -48.786  25.219  33.310  0.00  0.00     0.085 C 
BRANCH  24  25
ATOM     25  C   UNL d   1     -48.654  24.474  33.639  0.00  0.00     0.019 C 
BRANCH  25  26
ATOM     26  C   UNL d   1     -48.350  24.411  34.409  0.00  0.00     0.002 C 
ATOM     27  C   UNL d   1     -48.042  23.693  34.674  0.00  0.00     0.000 C 
ENDBRANCH  25  26
ENDBRANCH  24  25
ENDBRANCH   1  24
BRANCH   8  28
ATOM     28  N   UNL d   1     -53.045  24.753  33.441  0.00  0.00    -0.300 N 
ATOM     29  C   UNL d   1     -53.794  25.071  33.308  0.00  0.00     0.107 A 
ATOM     30  C   UNL d   1     -54.469  24.582  33.330  0.00  0.00     0.142 A 
ATOM     31  O   UNL d   1     -54.383  23.768  33.486  0.00  0.00    -0.300 OA
ATOM     32  C   UNL d   1     -53.623  23.451  33.620  0.00  0.00     0.142 A 
ATOM     33  C   UNL d   1     -52.960  23.939  33.598  0.00  0.00     0.107 A 
ENDBRANCH   8  28
TORSDOF 9
ENDMDL
