MODEL 1
REMARK VINA RESULT:      -3.0      0.000      0.000
REMARK  7 active torsions:
REMARK  status: ('A' for Active; 'I' for Inactive)
REMARK    1  A    between atoms: S_2  and  C_1 
REMARK    2  A    between atoms: C_6  and  S_2 
REMARK    3  A    between atoms: C_24  and  C_16 
REMARK    4  A    between atoms: C_25  and  C_24 
REMARK    5  A    between atoms: C_28  and  C_25 
REMARK    6  A    between atoms: C_26  and  C_27 
REMARK    7  A    between atoms: C_27  and  C_28 
ROOT
ATOM      1  C   UNL d   1      57.032   0.584  32.948  0.00  0.00     0.151 A 
ATOM      2  C   UNL d   1      57.737   0.624  33.373  0.00  0.00     0.311 A 
ATOM      3  C   UNL d   1      57.048   0.530  32.127  0.00  0.00     0.019 A 
ATOM      4  O   UNL d   1      58.459   0.611  32.978  0.00  0.00    -0.272 OA
ATOM      5  C   UNL d   1      58.476   0.557  32.156  0.00  0.00     0.106 A 
ATOM      6  C   UNL d   1      57.770   0.516  31.731  0.00  0.00     0.024 A 
ATOM      7  C   UNL d   1      59.198   0.543  31.761  0.00  0.00     0.067 A 
ATOM      8  C   UNL d   1      59.220   0.488  30.928  0.00  0.00     0.198 A 
ATOM      9  C   UNL d   1      57.786   0.462  30.910  0.00  0.00     0.005 A 
ATOM     10  C   UNL d   1      58.515   0.448  30.502  0.00  0.00     0.039 A 
ATOM     11  O   UNL d   1      57.722   0.679  34.210  0.00  0.00    -0.258 OA
ATOM     12  O   UNL d   1      59.942   0.475  30.533  0.00  0.00    -0.286 OA
ENDROOT
BRANCH   1  13
ATOM     13  S   UNL d   1      56.304   0.598  33.354  0.00  0.00     0.215 S 
ATOM     14  O   UNL d   1      55.901   0.682  32.628  0.00  0.00    -0.217 OA
ATOM     15  O   UNL d   1      56.702   0.515  34.077  0.00  0.00    -0.217 OA
BRANCH  13  16
ATOM     16  C   UNL d   1      55.582   0.613  33.749  0.00  0.00     0.089 A 
ATOM     17  C   UNL d   1      55.563   0.599  34.576  0.00  0.00     0.025 A 
ATOM     18  C   UNL d   1      54.837   0.613  34.979  0.00  0.00     0.086 A 
ATOM     19 CL   UNL d   1      54.820   0.599  35.803  0.00  0.00    -0.080 Cl
ATOM     20  C   UNL d   1      54.131   0.643  34.552  0.00  0.00     0.151 A 
ATOM     21  C   UNL d   1      54.149   0.657  33.728  0.00  0.00     0.031 A 
ATOM     22  F   UNL d   1      53.408   0.657  34.951  0.00  0.00    -0.203 F 
ATOM     23  C   UNL d   1      54.870   0.642  33.333  0.00  0.00     0.014 A 
ENDBRANCH  13  16
ENDBRANCH   1  13
BRANCH  10  24
ATOM     24  C   UNL d   1      58.536   0.394  29.675  0.00  0.00     0.003 C 
BRANCH  24  25
ATOM     25  C   UNL d   1      58.176  -0.239  29.287  0.00  0.00     0.000 C 
BRANCH  25  26
ATOM     26  C   UNL d   1      58.585  -0.658  28.707  0.00  0.00     0.000 C 
BRANCH  26  27
ATOM     27  C   UNL d   1      58.603  -1.483  28.717  0.00  0.00     0.000 C 
BRANCH  27  28
ATOM     28  C   UNL d   1      59.271  -1.895  28.455  0.00  0.00     0.000 C 
ATOM     29  C   UNL d   1      59.378  -2.683  28.660  0.00  0.00     0.000 C 
ENDBRANCH  27  28
ENDBRANCH  26  27
ENDBRANCH  25  26
ENDBRANCH  24  25
ENDBRANCH  10  24
TORSDOF 7
ENDMDL
MODEL 2
REMARK VINA RESULT:      -1.3      9.638     10.338
REMARK  7 active torsions:
REMARK  status: ('A' for Active; 'I' for Inactive)
REMARK    1  A    between atoms: S_2  and  C_1 
REMARK    2  A    between atoms: C_6  and  S_2 
REMARK    3  A    between atoms: C_24  and  C_16 
REMARK    4  A    between atoms: C_25  and  C_24 
REMARK    5  A    between atoms: C_28  and  C_25 
REMARK    6  A    between atoms: C_26  and  C_27 
REMARK    7  A    between atoms: C_27  and  C_28 
ROOT
ATOM      1  C   UNL d   1      58.596  -9.626  32.372  0.00  0.00     0.151 A 
ATOM      2  C   UNL d   1      57.774  -9.625  32.447  0.00  0.00     0.311 A 
ATOM      3  C   UNL d   1      58.941  -9.664  31.626  0.00  0.00     0.019 A 
ATOM      4  O   UNL d   1      57.298  -9.662  31.777  0.00  0.00    -0.272 OA
ATOM      5  C   UNL d   1      57.644  -9.701  31.030  0.00  0.00     0.106 A 
ATOM      6  C   UNL d   1      58.465  -9.702  30.955  0.00  0.00     0.024 A 
ATOM      7  C   UNL d   1      57.168  -9.739  30.360  0.00  0.00     0.067 A 
ATOM      8  C   UNL d   1      57.513  -9.778  29.600  0.00  0.00     0.198 A 
ATOM      9  C   UNL d   1      58.811  -9.741  30.209  0.00  0.00     0.005 A 
ATOM     10  C   UNL d   1      58.334  -9.779  29.525  0.00  0.00     0.039 A 
ATOM     11  O   UNL d   1      57.421  -9.586  33.207  0.00  0.00    -0.258 OA
ATOM     12  O   UNL d   1      57.036  -9.816  28.930  0.00  0.00    -0.286 OA
ENDROOT
BRANCH   1  13
ATOM     13  S   UNL d   1      59.072  -9.587  33.055  0.00  0.00     0.215 S 
ATOM     14  O   UNL d   1      58.388  -9.614  33.532  0.00  0.00    -0.217 OA
ATOM     15  O   UNL d   1      59.754  -9.561  32.582  0.00  0.00    -0.217 OA
BRANCH  13  16
ATOM     16  C   UNL d   1      59.536  -9.550  33.734  0.00  0.00     0.089 A 
ATOM     17  C   UNL d   1      59.188  -9.376  34.464  0.00  0.00     0.025 A 
ATOM     18  C   UNL d   1      59.653  -9.337  35.151  0.00  0.00     0.086 A 
ATOM     19 CL   UNL d   1      59.304  -9.164  35.877  0.00  0.00    -0.080 Cl
ATOM     20  C   UNL d   1      60.465  -9.473  35.105  0.00  0.00     0.151 A 
ATOM     21  C   UNL d   1      60.813  -9.646  34.379  0.00  0.00     0.031 A 
ATOM     22  F   UNL d   1      60.929  -9.434  35.788  0.00  0.00    -0.203 F 
ATOM     23  C   UNL d   1      60.350  -9.684  33.700  0.00  0.00     0.014 A 
ENDBRANCH  13  16
ENDBRANCH   1  13
BRANCH  10  24
ATOM     24  C   UNL d   1      58.679  -9.818  28.771  0.00  0.00     0.003 C 
BRANCH  24  25
ATOM     25  C   UNL d   1      59.498  -9.783  28.682  0.00  0.00     0.000 C 
BRANCH  25  26
ATOM     26  C   UNL d   1      59.873  -9.061  28.560  0.00  0.00     0.000 C 
BRANCH  26  27
ATOM     27  C   UNL d   1      60.691  -9.023  28.455  0.00  0.00     0.000 C 
BRANCH  27  28
ATOM     28  C   UNL d   1      61.133  -8.406  28.787  0.00  0.00     0.000 C 
ATOM     29  C   UNL d   1      60.990  -7.630  28.563  0.00  0.00     0.000 C 
ENDBRANCH  27  28
ENDBRANCH  26  27
ENDBRANCH  25  26
ENDBRANCH  24  25
ENDBRANCH  10  24
TORSDOF 7
ENDMDL
MODEL 3
REMARK VINA RESULT:      -0.2      4.511      6.726
REMARK  7 active torsions:
REMARK  status: ('A' for Active; 'I' for Inactive)
REMARK    1  A    between atoms: S_2  and  C_1 
REMARK    2  A    between atoms: C_6  and  S_2 
REMARK    3  A    between atoms: C_24  and  C_16 
REMARK    4  A    between atoms: C_25  and  C_24 
REMARK    5  A    between atoms: C_28  and  C_25 
REMARK    6  A    between atoms: C_26  and  C_27 
REMARK    7  A    between atoms: C_27  and  C_28 
ROOT
ATOM      1  C   UNL d   1      59.384  -3.818  28.487  0.00  0.00     0.151 A 
ATOM      2  C   UNL d   1      60.207  -3.880  28.498  0.00  0.00     0.311 A 
ATOM      3  C   UNL d   1      59.026  -3.078  28.482  0.00  0.00     0.019 A 
ATOM      4  O   UNL d   1      60.672  -3.200  28.504  0.00  0.00    -0.272 OA
ATOM      5  C   UNL d   1      60.313  -2.459  28.499  0.00  0.00     0.106 A 
ATOM      6  C   UNL d   1      59.490  -2.397  28.489  0.00  0.00     0.024 A 
ATOM      7  C   UNL d   1      60.778  -1.779  28.506  0.00  0.00     0.067 A 
ATOM      8  C   UNL d   1      60.420  -1.025  28.501  0.00  0.00     0.198 A 
ATOM      9  C   UNL d   1      59.132  -1.656  28.484  0.00  0.00     0.005 A 
ATOM     10  C   UNL d   1      59.597  -0.963  28.490  0.00  0.00     0.039 A 
ATOM     11  O   UNL d   1      60.572  -4.634  28.503  0.00  0.00    -0.258 OA
ATOM     12  O   UNL d   1      60.885  -0.345  28.507  0.00  0.00    -0.286 OA
ENDROOT
BRANCH   1  13
ATOM     13  S   UNL d   1      58.919  -4.511  28.481  0.00  0.00     0.215 S 
ATOM     14  O   UNL d   1      58.227  -4.045  28.482  0.00  0.00    -0.217 OA
ATOM     15  O   UNL d   1      59.607  -4.976  28.480  0.00  0.00    -0.217 OA
BRANCH  13  16
ATOM     16  C   UNL d   1      58.454  -5.190  28.475  0.00  0.00     0.089 A 
ATOM     17  C   UNL d   1      58.813  -5.936  28.482  0.00  0.00     0.025 A 
ATOM     18  C   UNL d   1      58.347  -6.624  28.476  0.00  0.00     0.086 A 
ATOM     19 CL   UNL d   1      58.706  -7.366  28.484  0.00  0.00    -0.080 Cl
ATOM     20  C   UNL d   1      57.525  -6.562  28.463  0.00  0.00     0.151 A 
ATOM     21  C   UNL d   1      57.167  -5.821  28.455  0.00  0.00     0.031 A 
ATOM     22  F   UNL d   1      57.060  -7.247  28.456  0.00  0.00    -0.203 F 
ATOM     23  C   UNL d   1      57.631  -5.141  28.461  0.00  0.00     0.014 A 
ENDBRANCH  13  16
ENDBRANCH   1  13
BRANCH  10  24
ATOM     24  C   UNL d   1      59.240  -0.214  28.485  0.00  0.00     0.003 C 
BRANCH  24  25
ATOM     25  C   UNL d   1      58.507  -0.097  28.844  0.00  0.00     0.000 C 
BRANCH  25  26
ATOM     26  C   UNL d   1      58.327   0.625  29.197  0.00  0.00     0.000 C 
BRANCH  26  27
ATOM     27  C   UNL d   1      57.722   0.682  29.756  0.00  0.00     0.000 C 
BRANCH  27  28
ATOM     28  C   UNL d   1      57.863   0.503  30.552  0.00  0.00     0.000 C 
ATOM     29  C   UNL d   1      57.278   0.627  31.114  0.00  0.00     0.000 C 
ENDBRANCH  27  28
ENDBRANCH  26  27
ENDBRANCH  25  26
ENDBRANCH  24  25
ENDBRANCH  10  24
TORSDOF 7
ENDMDL
