MODEL 1
REMARK VINA RESULT:      -8.1      0.000      0.000
REMARK  3 active torsions:
REMARK  status: ('A' for Active; 'I' for Inactive)
REMARK    1  A    between atoms: C_2  and  S_1 
REMARK    2  A    between atoms: N_3  and  S_1 
REMARK    3  A    between atoms: C_10  and  N_3 
ROOT
ATOM      1  C   UNL d   1     -48.522  13.854  22.487  0.00  0.00     0.107 A 
ATOM      2  C   UNL d   1     -49.275  13.733  22.803  0.00  0.00     0.040 A 
ATOM      3  C   UNL d   1     -49.753  14.354  23.028  0.00  0.00     0.123 A 
ATOM      4  C   UNL d   1     -49.481  15.119  22.938  0.00  0.00     0.123 A 
ATOM      5  O   UNL d   1     -50.474  14.220  23.329  0.00  0.00    -0.301 OA
ATOM      6  O   UNL d   1     -49.928  15.756  23.150  0.00  0.00    -0.301 OA
ATOM      7  C   UNL d   1     -48.241  14.644  22.395  0.00  0.00     0.015 A 
ATOM      8  C   UNL d   1     -48.729  15.269  22.624  0.00  0.00     0.028 A 
ATOM      9  C   UNL d   1     -50.962  14.845  23.558  0.00  0.00     0.149 A 
ATOM     10  C   UNL d   1     -50.681  15.636  23.466  0.00  0.00     0.149 A 
ENDROOT
BRANCH   1  11
ATOM     11  S   UNL d   1     -48.059  13.187  22.268  0.00  0.00     0.285 S 
ATOM     12  O   UNL d   1     -47.595  12.511  22.040  0.00  0.00    -0.198 OA
ATOM     13  O   UNL d   1     -48.448  13.130  21.527  0.00  0.00    -0.198 OA
BRANCH  11  14
ATOM     14  N   UNL d   1     -47.655  13.208  22.981  0.00  0.00    -0.157 NA
BRANCH  14  15
ATOM     15  C   UNL d   1     -47.147  12.635  23.193  0.00  0.00     0.113 A 
ATOM     16  C   UNL d   1     -46.333  12.753  23.126  0.00  0.00     0.119 A 
ATOM     17  N   UNL d   1     -45.807  12.159  23.346  0.00  0.00    -0.241 NA
ATOM     18  C   UNL d   1     -46.086  11.461  23.626  0.00  0.00     0.099 A 
ATOM     19  C   UNL d   1     -46.917  11.330  23.698  0.00  0.00     0.022 A 
ATOM     20  C   UNL d   1     -47.422  11.932  23.475  0.00  0.00     0.023 A 
ENDBRANCH  14  15
ENDBRANCH  11  14
ENDBRANCH   1  11
TORSDOF 3
ENDMDL
MODEL 2
REMARK VINA RESULT:      -7.3      1.345      3.950
REMARK  3 active torsions:
REMARK  status: ('A' for Active; 'I' for Inactive)
REMARK    1  A    between atoms: C_2  and  S_1 
REMARK    2  A    between atoms: N_3  and  S_1 
REMARK    3  A    between atoms: C_10  and  N_3 
ROOT
ATOM      1  C   UNL d   1     -48.263  13.011  22.711  0.00  0.00     0.107 A 
ATOM      2  C   UNL d   1     -47.623  13.325  22.296  0.00  0.00     0.040 A 
ATOM      3  C   UNL d   1     -46.852  13.127  22.477  0.00  0.00     0.123 A 
ATOM      4  C   UNL d   1     -46.708  12.602  23.086  0.00  0.00     0.123 A 
ATOM      5  O   UNL d   1     -46.249  13.438  22.068  0.00  0.00    -0.301 OA
ATOM      6  O   UNL d   1     -45.960  12.384  23.291  0.00  0.00    -0.301 OA
ATOM      7  C   UNL d   1     -48.115  12.469  23.340  0.00  0.00     0.015 A 
ATOM      8  C   UNL d   1     -47.334  12.272  23.519  0.00  0.00     0.028 A 
ATOM      9  C   UNL d   1     -45.468  13.240  22.247  0.00  0.00     0.149 A 
ATOM     10  C   UNL d   1     -45.319  12.698  22.876  0.00  0.00     0.149 A 
ENDROOT
BRANCH   1  11
ATOM     11  S   UNL d   1     -49.042  13.241  22.494  0.00  0.00     0.285 S 
ATOM     12  O   UNL d   1     -49.831  13.469  22.269  0.00  0.00    -0.198 OA
ATOM     13  O   UNL d   1     -49.080  12.647  21.903  0.00  0.00    -0.198 OA
BRANCH  11  14
ATOM     14  N   UNL d   1     -49.046  13.835  23.060  0.00  0.00    -0.157 NA
BRANCH  14  15
ATOM     15  C   UNL d   1     -49.646  14.353  23.121  0.00  0.00     0.113 A 
ATOM     16  C   UNL d   1     -49.644  15.047  22.675  0.00  0.00     0.119 A 
ATOM     17  N   UNL d   1     -50.266  15.583  22.739  0.00  0.00    -0.241 NA
ATOM     18  C   UNL d   1     -50.876  15.431  23.237  0.00  0.00     0.099 A 
ATOM     19  C   UNL d   1     -50.887  14.724  23.698  0.00  0.00     0.022 A 
ATOM     20  C   UNL d   1     -50.260  14.205  23.620  0.00  0.00     0.023 A 
ENDBRANCH  14  15
ENDBRANCH  11  14
ENDBRANCH   1  11
TORSDOF 3
ENDMDL
MODEL 3
REMARK VINA RESULT:      -7.2      0.650      1.332
REMARK  3 active torsions:
REMARK  status: ('A' for Active; 'I' for Inactive)
REMARK    1  A    between atoms: C_2  and  S_1 
REMARK    2  A    between atoms: N_3  and  S_1 
REMARK    3  A    between atoms: C_10  and  N_3 
ROOT
ATOM      1  C   UNL d   1     -48.885  13.436  22.584  0.00  0.00     0.107 A 
ATOM      2  C   UNL d   1     -49.044  14.245  22.546  0.00  0.00     0.040 A 
ATOM      3  C   UNL d   1     -49.695  14.574  22.911  0.00  0.00     0.123 A 
ATOM      4  C   UNL d   1     -50.207  14.092  23.326  0.00  0.00     0.123 A 
ATOM      5  O   UNL d   1     -49.832  15.353  22.865  0.00  0.00    -0.301 OA
ATOM      6  O   UNL d   1     -50.859  14.384  23.698  0.00  0.00    -0.301 OA
ATOM      7  C   UNL d   1     -49.414  12.937  23.013  0.00  0.00     0.015 A 
ATOM      8  C   UNL d   1     -50.071  13.275  23.380  0.00  0.00     0.028 A 
ATOM      9  C   UNL d   1     -50.489  15.692  23.232  0.00  0.00     0.149 A 
ATOM     10  C   UNL d   1     -51.018  15.193  23.660  0.00  0.00     0.149 A 
ENDROOT
BRANCH   1  11
ATOM     11  S   UNL d   1     -48.204  13.135  22.195  0.00  0.00     0.285 S 
ATOM     12  O   UNL d   1     -47.518  12.829  21.795  0.00  0.00    -0.198 OA
ATOM     13  O   UNL d   1     -48.651  12.932  21.515  0.00  0.00    -0.198 OA
BRANCH  11  14
ATOM     14  N   UNL d   1     -47.731  13.318  22.839  0.00  0.00    -0.157 NA
BRANCH  14  15
ATOM     15  C   UNL d   1     -46.960  13.124  22.863  0.00  0.00     0.113 A 
ATOM     16  C   UNL d   1     -46.709  12.466  23.293  0.00  0.00     0.119 A 
ATOM     17  N   UNL d   1     -45.911  12.266  23.317  0.00  0.00    -0.241 NA
ATOM     18  C   UNL d   1     -45.374  12.712  22.922  0.00  0.00     0.099 A 
ATOM     19  C   UNL d   1     -45.621  13.387  22.479  0.00  0.00     0.022 A 
ATOM     20  C   UNL d   1     -46.418  13.568  22.468  0.00  0.00     0.023 A 
ENDBRANCH  14  15
ENDBRANCH  11  14
ENDBRANCH   1  11
TORSDOF 3
ENDMDL
