MODEL 1
REMARK VINA RESULT:      10.1      0.000      0.000
REMARK  2 active torsions:
REMARK  status: ('A' for Active; 'I' for Inactive)
REMARK    1  A    between atoms: C_6  and  C_1 
REMARK    2  A    between atoms: C_7  and  C_5 
ROOT
ATOM      1  C   UNL d   1      42.255 -15.909  36.466  0.00  0.00     0.169 A 
ATOM      2  C   UNL d   1      42.484 -15.221  36.670  0.00  0.00     0.048 A 
ATOM      3  N   UNL d   1      43.503 -16.315  36.434  0.00  0.00    -0.148 NA
ATOM      4  N   UNL d   1      42.761 -16.462  36.346  0.00  0.00    -0.142 NA
ATOM      5  C   UNL d   1      43.733 -15.627  36.639  0.00  0.00     0.105 A 
ENDROOT
BRANCH   5   6
ATOM      6  C   UNL d   1      44.461 -15.273  36.784  0.00  0.00     0.020 A 
ATOM      7  C   UNL d   1      45.131 -15.506  36.358  0.00  0.00     0.004 A 
ATOM      8  C   UNL d   1      45.863 -15.149  36.504  0.00  0.00     0.030 A 
ATOM      9  C   UNL d   1      45.927 -14.556  37.078  0.00  0.00     0.140 A 
ATOM     10  C   UNL d   1      45.248 -14.322  37.507  0.00  0.00     0.030 A 
ATOM     11  F   UNL d   1      46.647 -14.201  37.226  0.00  0.00    -0.204 F 
ATOM     12  C   UNL d   1      44.522 -14.683  37.355  0.00  0.00     0.004 A 
ENDBRANCH   5   6
BRANCH   1  13
ATOM     13  C   UNL d   1      41.513 -16.055  36.378  0.00  0.00     0.231 C 
ATOM     14  O   UNL d   1      41.017 -15.489  36.337  0.00  0.00    -0.643 OA
ATOM     15  O   UNL d   1      41.278 -16.774  36.331  0.00  0.00    -0.643 OA
ENDBRANCH   1  13
TORSDOF 2
ENDMDL
MODEL 2
REMARK VINA RESULT:      11.7      7.881      8.402
REMARK  2 active torsions:
REMARK  status: ('A' for Active; 'I' for Inactive)
REMARK    1  A    between atoms: C_6  and  C_1 
REMARK    2  A    between atoms: C_7  and  C_5 
ROOT
ATOM      1  C   UNL d   1      46.220 -17.780  43.936  0.00  0.00     0.169 A 
ATOM      2  C   UNL d   1      46.189 -17.181  43.480  0.00  0.00     0.048 A 
ATOM      3  N   UNL d   1      45.888 -17.022  44.955  0.00  0.00    -0.148 NA
ATOM      4  N   UNL d   1      46.070 -17.706  44.676  0.00  0.00    -0.142 NA
ATOM      5  C   UNL d   1      45.857 -16.422  44.499  0.00  0.00     0.105 A 
ENDROOT
BRANCH   5   6
ATOM      6  C   UNL d   1      45.687 -15.623  44.595  0.00  0.00     0.020 A 
ATOM      7  C   UNL d   1      44.940 -15.384  44.859  0.00  0.00     0.004 A 
ATOM      8  C   UNL d   1      44.770 -14.579  44.955  0.00  0.00     0.030 A 
ATOM      9  C   UNL d   1      45.348 -14.011  44.787  0.00  0.00     0.140 A 
ATOM     10  C   UNL d   1      46.102 -14.256  44.520  0.00  0.00     0.030 A 
ATOM     11  F   UNL d   1      45.185 -13.217  44.880  0.00  0.00    -0.204 F 
ATOM     12  C   UNL d   1      46.264 -15.059  44.427  0.00  0.00     0.004 A 
ENDBRANCH   5   6
BRANCH   1  13
ATOM     13  C   UNL d   1      46.402 -18.465  43.657  0.00  0.00     0.231 C 
ATOM     14  O   UNL d   1      46.582 -19.029  44.124  0.00  0.00    -0.643 OA
ATOM     15  O   UNL d   1      46.400 -18.574  42.907  0.00  0.00    -0.643 OA
ENDBRANCH   1  13
TORSDOF 2
ENDMDL
