MODEL 1
REMARK VINA RESULT:      -6.4      0.000      0.000
REMARK  3 active torsions:
REMARK  status: ('A' for Active; 'I' for Inactive)
REMARK    1  A    between atoms: C_5  and  C_1 
REMARK       I    between atoms: N_7  and  C_5 
REMARK    2  A    between atoms: C_15  and  N_10 
REMARK    3  A    between atoms: C_21  and  C_15 
ROOT
ATOM      1  C   UNL d   1     -41.616-122.057 -50.731  0.00  0.00     0.270 C 
ATOM      2  N   UNL d   1     -41.547-122.337 -51.525  0.00  0.00    -0.270 N 
ATOM      3  N   UNL d   1     -41.416-122.903 -53.095  0.00  0.00    -0.300 N 
ATOM      4  O   UNL d   1     -41.332-121.333 -50.556  0.00  0.00    -0.269 OA
ATOM      5  C   UNL d   1     -41.186-121.862 -52.118  0.00  0.00     0.102 A 
ATOM      6  C   UNL d   1     -41.846-123.095 -51.704  0.00  0.00     0.102 A 
ATOM      7  C   UNL d   1     -41.123-122.143 -52.890  0.00  0.00     0.100 A 
ATOM      8  C   UNL d   1     -41.778-123.379 -52.501  0.00  0.00     0.100 A 
ENDROOT
BRANCH   1   9
ATOM      9  C   UNL d   1     -41.956-122.504 -50.174  0.00  0.00     0.191 A 
ATOM     10  O   UNL d   1     -42.658-122.281 -50.424  0.00  0.00    -0.293 OA
ATOM     11  C   UNL d   1     -42.998-122.728 -49.867  0.00  0.00     0.275 A 
ATOM     12  O   UNL d   1     -43.753-122.894 -49.640  0.00  0.00    -0.264 OA
ATOM     13  C   UNL d   1     -42.291-122.964 -49.601  0.00  0.00     0.099 A 
ATOM     14  C   UNL d   1     -42.012-123.443 -49.025  0.00  0.00     0.047 A 
ATOM     15  C   UNL d   1     -42.791-123.340 -49.126  0.00  0.00     0.014 C 
ATOM     16  C   UNL d   1     -41.495-122.927 -49.672  0.00  0.00    -0.019 A 
ATOM     17  C   UNL d   1     -42.525-123.817 -48.551  0.00  0.00     0.004 C 
ATOM     18  C   UNL d   1     -41.298-123.670 -48.771  0.00  0.00     0.004 C 
ATOM     19  C   UNL d   1     -41.164-122.477 -50.232  0.00  0.00     0.006 A 
ENDBRANCH   1   9
BRANCH   3  20
ATOM     20  C   UNL d   1     -41.353-123.195 -53.887  0.00  0.00     0.080 C 
BRANCH  20  21
ATOM     21  C   UNL d   1     -41.703-122.770 -54.523  0.00  0.00     0.018 A 
ATOM     22  C   UNL d   1     -42.537-122.742 -54.600  0.00  0.00     0.002 A 
ATOM     23  C   UNL d   1     -42.900-122.317 -55.237  0.00  0.00     0.000 A 
ATOM     24  C   UNL d   1     -42.399-121.921 -55.792  0.00  0.00     0.000 A 
ATOM     25  C   UNL d   1     -41.561-121.949 -55.715  0.00  0.00     0.000 A 
ATOM     26  C   UNL d   1     -41.215-122.373 -55.080  0.00  0.00     0.002 A 
ENDBRANCH  20  21
ENDBRANCH   3  20
TORSDOF 3
ENDMDL
MODEL 2
REMARK VINA RESULT:      -5.1      1.567      4.944
REMARK  3 active torsions:
REMARK  status: ('A' for Active; 'I' for Inactive)
REMARK    1  A    between atoms: C_5  and  C_1 
REMARK       I    between atoms: N_7  and  C_5 
REMARK    2  A    between atoms: C_15  and  N_10 
REMARK    3  A    between atoms: C_21  and  C_15 
ROOT
ATOM      1  C   UNL d   1     -41.537-123.145 -54.043  0.00  0.00     0.270 C 
ATOM      2  N   UNL d   1     -41.529-122.893 -53.236  0.00  0.00    -0.270 N 
ATOM      3  N   UNL d   1     -41.520-122.385 -51.642  0.00  0.00    -0.300 N 
ATOM      4  O   UNL d   1     -41.154-123.817 -54.236  0.00  0.00    -0.269 OA
ATOM      5  C   UNL d   1     -41.125-123.343 -52.650  0.00  0.00     0.102 A 
ATOM      6  C   UNL d   1     -41.930-122.190 -53.038  0.00  0.00     0.102 A 
ATOM      7  C   UNL d   1     -41.123-123.090 -51.866  0.00  0.00     0.100 A 
ATOM      8  C   UNL d   1     -41.924-121.935 -52.228  0.00  0.00     0.100 A 
ENDROOT
BRANCH   1   9
ATOM      9  C   UNL d   1     -41.916-122.723 -54.593  0.00  0.00     0.191 A 
ATOM     10  O   UNL d   1     -42.598-122.985 -54.324  0.00  0.00    -0.293 OA
ATOM     11  C   UNL d   1     -42.977-122.562 -54.875  0.00  0.00     0.275 A 
ATOM     12  O   UNL d   1     -43.746-122.442 -55.083  0.00  0.00    -0.264 OA
ATOM     13  C   UNL d   1     -42.292-122.287 -55.160  0.00  0.00     0.099 A 
ATOM     14  C   UNL d   1     -42.057-121.796 -55.746  0.00  0.00     0.047 A 
ATOM     15  C   UNL d   1     -42.825-121.944 -55.623  0.00  0.00     0.014 C 
ATOM     16  C   UNL d   1     -41.494-122.277 -55.109  0.00  0.00    -0.019 A 
ATOM     17  C   UNL d   1     -42.602-121.456 -56.208  0.00  0.00     0.004 C 
ATOM     18  C   UNL d   1     -41.364-121.529 -56.019  0.00  0.00     0.004 C 
ATOM     19  C   UNL d   1     -41.123-122.702 -54.555  0.00  0.00     0.006 A 
ENDBRANCH   1   9
BRANCH   3  20
ATOM     20  C   UNL d   1     -41.519-122.123 -50.837  0.00  0.00     0.080 C 
BRANCH  20  21
ATOM     21  C   UNL d   1     -41.999-122.511 -50.265  0.00  0.00     0.018 A 
ATOM     22  C   UNL d   1     -41.666-123.094 -49.764  0.00  0.00     0.002 A 
ATOM     23  C   UNL d   1     -42.139-123.492 -49.186  0.00  0.00     0.000 A 
ATOM     24  C   UNL d   1     -42.958-123.285 -49.126  0.00  0.00     0.000 A 
ATOM     25  C   UNL d   1     -43.293-122.699 -49.630  0.00  0.00     0.000 A 
ATOM     26  C   UNL d   1     -42.813-122.313 -50.198  0.00  0.00     0.002 A 
ENDBRANCH  20  21
ENDBRANCH   3  20
TORSDOF 3
ENDMDL
