MODEL 1
REMARK VINA RESULT:      -1.5      0.000      0.000
REMARK  6 active torsions:
REMARK  status: ('A' for Active; 'I' for Inactive)
REMARK    1  A    between atoms: C_4  and  N_1 
REMARK    2  A    between atoms: N_6  and  C_2 
REMARK    3  A    between atoms: S_10  and  C_7 
REMARK    4  A    between atoms: C_12  and  C_9 
REMARK    5  A    between atoms: C_11  and  S_10 
REMARK    6  A    between atoms: O_24  and  C_20 
ROOT
ATOM      1  N   UNL d   1      32.827  18.880 -23.594  0.00  0.00    -0.240 N 
ATOM      2  C   UNL d   1      33.087  19.414 -24.155  0.00  0.00     0.268 A 
ATOM      3  C   UNL d   1      32.800  19.235 -22.844  0.00  0.00     0.273 A 
ATOM      4  C   UNL d   1      33.056  20.023 -22.956  0.00  0.00     0.091 A 
ATOM      5  C   UNL d   1      33.228  20.123 -23.758  0.00  0.00     0.072 A 
ATOM      6  O   UNL d   1      33.241  19.528 -24.829  0.00  0.00    -0.267 OA
ATOM      7  O   UNL d   1      32.573  18.906 -22.125  0.00  0.00    -0.266 OA
ENDROOT
BRANCH   1   8
ATOM      8  C   UNL d   1      32.620  18.090 -23.760  0.00  0.00     0.092 A 
ATOM      9  C   UNL d   1      31.886  17.958 -24.094  0.00  0.00     0.145 A 
ATOM     10  C   UNL d   1      31.657  17.177 -24.269  0.00  0.00     0.049 A 
ATOM     11  C   UNL d   1      32.170  16.553 -24.104  0.00  0.00     0.096 A 
ATOM     12  C   UNL d   1      32.930  16.700 -23.757  0.00  0.00     0.026 A 
ATOM     13  C   UNL d   1      33.143  17.477 -23.589  0.00  0.00     0.021 A 
BRANCH   9  14
ATOM     14  N   UNL d   1      31.382  18.593 -24.254  0.00  0.00    -0.112 N 
ATOM     15  O   UNL d   1      31.167  18.879 -23.892  0.00  0.00    -0.532 OA
ATOM     16  O   UNL d   1      31.171  18.832 -25.016  0.00  0.00    -0.532 OA
ENDBRANCH   9  14
BRANCH  11  17
ATOM     17  O   UNL d   1      31.920  15.785 -24.287  0.00  0.00    -0.328 OA
ATOM     18  C   UNL d   1      31.627  15.599 -25.028  0.00  0.00     0.181 C 
ENDBRANCH  11  17
ENDBRANCH   1   8
BRANCH   4  19
ATOM     19  S   UNL d   1      33.094  20.531 -22.314  0.00  0.00    -0.082 SA
BRANCH  19  20
ATOM     20  C   UNL d   1      33.041  21.361 -22.439  0.00  0.00     0.035 A 
ATOM     21  C   UNL d   1      32.800  21.851 -21.838  0.00  0.00     0.070 A 
ATOM     22  C   UNL d   1      32.746  22.657 -21.952  0.00  0.00     0.007 A 
ATOM     23  C   UNL d   1      32.943  22.974 -22.699  0.00  0.00     0.000 A 
ATOM     24  C   UNL d   1      33.189  22.480 -23.317  0.00  0.00     0.001 A 
ATOM     25  C   UNL d   1      33.231  21.664 -23.162  0.00  0.00     0.007 A 
BRANCH  21  26
ATOM     26  C   UNL d   1      32.603  21.554 -21.094  0.00  0.00     0.211 C 
ATOM     27  O   UNL d   1      33.105  21.632 -20.453  0.00  0.00    -0.644 OA
ATOM     28  O   UNL d   1      31.870  21.161 -20.978  0.00  0.00    -0.644 OA
ENDBRANCH  21  26
ENDBRANCH  19  20
ENDBRANCH   4  19
TORSDOF 6
ENDMDL
MODEL 2
REMARK VINA RESULT:       0.8      2.898      4.424
REMARK  6 active torsions:
REMARK  status: ('A' for Active; 'I' for Inactive)
REMARK    1  A    between atoms: C_4  and  N_1 
REMARK    2  A    between atoms: N_6  and  C_2 
REMARK    3  A    between atoms: S_10  and  C_7 
REMARK    4  A    between atoms: C_12  and  C_9 
REMARK    5  A    between atoms: C_11  and  S_10 
REMARK    6  A    between atoms: O_24  and  C_20 
ROOT
ATOM      1  N   UNL d   1      29.396  16.918 -24.231  0.00  0.00    -0.240 N 
ATOM      2  C   UNL d   1      29.424  17.571 -24.721  0.00  0.00     0.268 A 
ATOM      3  C   UNL d   1      30.162  16.688 -24.009  0.00  0.00     0.273 A 
ATOM      4  C   UNL d   1      30.680  17.228 -24.381  0.00  0.00     0.091 A 
ATOM      5  C   UNL d   1      30.221  17.762 -24.814  0.00  0.00     0.072 A 
ATOM      6  O   UNL d   1      29.061  18.038 -25.096  0.00  0.00    -0.267 OA
ATOM      7  O   UNL d   1      30.393  16.065 -23.524  0.00  0.00    -0.266 OA
ENDROOT
BRANCH   1   8
ATOM      8  C   UNL d   1      28.692  16.541 -23.993  0.00  0.00     0.092 A 
ATOM      9  C   UNL d   1      28.239  16.918 -23.428  0.00  0.00     0.145 A 
ATOM     10  C   UNL d   1      27.531  16.560 -23.174  0.00  0.00     0.049 A 
ATOM     11  C   UNL d   1      27.299  15.837 -23.495  0.00  0.00     0.096 A 
ATOM     12  C   UNL d   1      27.777  15.453 -24.082  0.00  0.00     0.026 A 
ATOM     13  C   UNL d   1      28.474  15.818 -24.323  0.00  0.00     0.021 A 
BRANCH   9  14
ATOM     14  N   UNL d   1      28.483  17.642 -23.114  0.00  0.00    -0.112 N 
ATOM     15  O   UNL d   1      28.927  17.709 -22.875  0.00  0.00    -0.532 OA
ATOM     16  O   UNL d   1      28.035  18.335 -23.154  0.00  0.00    -0.532 OA
ENDBRANCH   9  14
BRANCH  11  17
ATOM     17  O   UNL d   1      26.591  15.500 -23.227  0.00  0.00    -0.328 OA
ATOM     18  C   UNL d   1      25.866  15.823 -23.426  0.00  0.00     0.181 C 
ENDBRANCH  11  17
ENDBRANCH   1   8
BRANCH   4  19
ATOM     19  S   UNL d   1      31.489  17.154 -24.273  0.00  0.00    -0.082 SA
BRANCH  19  20
ATOM     20  C   UNL d   1      31.988  17.817 -24.411  0.00  0.00     0.035 A 
ATOM     21  C   UNL d   1      32.707  17.872 -24.038  0.00  0.00     0.070 A 
ATOM     22  C   UNL d   1      33.195  18.513 -24.168  0.00  0.00     0.007 A 
ATOM     23  C   UNL d   1      32.946  19.114 -24.690  0.00  0.00     0.000 A 
ATOM     24  C   UNL d   1      32.213  19.064 -25.074  0.00  0.00     0.001 A 
ATOM     25  C   UNL d   1      31.743  18.396 -24.916  0.00  0.00     0.007 A 
BRANCH  21  26
ATOM     26  C   UNL d   1      32.968  17.288 -23.519  0.00  0.00     0.211 C 
ATOM     27  O   UNL d   1      33.212  16.554 -23.786  0.00  0.00    -0.644 OA
ATOM     28  O   UNL d   1      32.991  17.436 -22.694  0.00  0.00    -0.644 OA
ENDBRANCH  21  26
ENDBRANCH  19  20
ENDBRANCH   4  19
TORSDOF 6
ENDMDL
