MODEL 1
REMARK VINA RESULT:      -3.0      0.000      0.000
REMARK  5 active torsions:
REMARK  status: ('A' for Active; 'I' for Inactive)
REMARK       I    between atoms: C_2  and  N_1 
REMARK    1  A    between atoms: C_3  and  N_1 
REMARK    2  A    between atoms: C_4  and  C_2 
REMARK    3  A    between atoms: N_6  and  C_3 
REMARK    4  A    between atoms: C_11  and  N_6 
REMARK    5  A    between atoms: C_12  and  C_11 
ROOT
ATOM      1  N   UNL d   1      31.882  17.623 -23.731  0.00  0.00    -0.179 NA
ATOM      2  C   UNL d   1      31.365  17.532 -24.350  0.00  0.00     0.281 C 
ATOM      3  O   UNL d   1      31.536  17.893 -25.077  0.00  0.00    -0.265 OA
ENDROOT
BRANCH   1   4
ATOM      4  C   UNL d   1      32.573  18.061 -23.799  0.00  0.00     0.224 C 
ATOM      5  S   UNL d   1      33.214  17.767 -24.230  0.00  0.00    -0.037 SA
BRANCH   4   6
ATOM      6  N   UNL d   1      32.620  18.789 -23.437  0.00  0.00    -0.214 NA
BRANCH   6   7
ATOM      7  C   UNL d   1      33.210  18.933 -22.876  0.00  0.00     0.126 C 
BRANCH   7   8
ATOM      8  C   UNL d   1      33.194  19.635 -22.422  0.00  0.00     0.119 A 
ATOM      9  O   UNL d   1      33.151  20.399 -22.730  0.00  0.00    -0.304 OA
ATOM     10  C   UNL d   1      33.149  20.932 -22.099  0.00  0.00     0.123 A 
ATOM     11  C   UNL d   1      33.191  20.485 -21.405  0.00  0.00     0.029 A 
ATOM     12  C   UNL d   1      33.218  19.693 -21.611  0.00  0.00     0.028 A 
ENDBRANCH   7   8
ENDBRANCH   6   7
ENDBRANCH   4   6
ENDBRANCH   1   4
BRANCH   2  13
ATOM     13  C   UNL d   1      30.670  17.081 -24.253  0.00  0.00     0.058 A 
ATOM     14  C   UNL d   1      29.981  17.360 -24.585  0.00  0.00     0.005 A 
ATOM     15  C   UNL d   1      29.284  16.924 -24.498  0.00  0.00     0.000 A 
ATOM     16  C   UNL d   1      29.278  16.215 -24.082  0.00  0.00     0.000 A 
ATOM     17  C   UNL d   1      29.992  15.945 -23.749  0.00  0.00     0.000 A 
ATOM     18  C   UNL d   1      28.563  15.788 -24.005  0.00  0.00     0.000 C 
ATOM     19  C   UNL d   1      30.677  16.379 -23.838  0.00  0.00     0.005 A 
ENDBRANCH   2  13
TORSDOF 5
ENDMDL
MODEL 2
REMARK VINA RESULT:      -2.1      1.133      4.841
REMARK  5 active torsions:
REMARK  status: ('A' for Active; 'I' for Inactive)
REMARK       I    between atoms: C_2  and  N_1 
REMARK    1  A    between atoms: C_3  and  N_1 
REMARK    2  A    between atoms: C_4  and  C_2 
REMARK    3  A    between atoms: N_6  and  C_3 
REMARK    4  A    between atoms: C_11  and  N_6 
REMARK    5  A    between atoms: C_12  and  C_11 
ROOT
ATOM      1  N   UNL d   1      32.726  19.138 -22.612  0.00  0.00    -0.179 NA
ATOM      2  C   UNL d   1      32.990  19.901 -22.701  0.00  0.00     0.281 C 
ATOM      3  O   UNL d   1      33.238  20.158 -23.449  0.00  0.00    -0.265 OA
ENDROOT
BRANCH   1   4
ATOM      4  C   UNL d   1      32.695  18.610 -23.240  0.00  0.00     0.224 C 
ATOM      5  S   UNL d   1      33.237  18.669 -23.863  0.00  0.00    -0.037 SA
BRANCH   4   6
ATOM      6  N   UNL d   1      32.126  18.028 -23.243  0.00  0.00    -0.214 NA
BRANCH   6   7
ATOM      7  C   UNL d   1      32.184  17.399 -23.778  0.00  0.00     0.126 C 
BRANCH   7   8
ATOM      8  C   UNL d   1      31.600  16.800 -23.784  0.00  0.00     0.119 A 
ATOM      9  O   UNL d   1      31.394  16.331 -23.138  0.00  0.00    -0.304 OA
ATOM     10  C   UNL d   1      30.798  15.811 -23.375  0.00  0.00     0.123 A 
ATOM     11  C   UNL d   1      30.645  15.968 -24.172  0.00  0.00     0.029 A 
ATOM     12  C   UNL d   1      31.139  16.573 -24.415  0.00  0.00     0.028 A 
ENDBRANCH   7   8
ENDBRANCH   6   7
ENDBRANCH   4   6
ENDBRANCH   1   4
BRANCH   2  13
ATOM     13  C   UNL d   1      33.010  20.416 -22.046  0.00  0.00     0.058 A 
ATOM     14  C   UNL d   1      32.893  21.211 -22.179  0.00  0.00     0.005 A 
ATOM     15  C   UNL d   1      32.911  21.735 -21.539  0.00  0.00     0.000 A 
ATOM     16  C   UNL d   1      33.044  21.465 -20.775  0.00  0.00     0.000 A 
ATOM     17  C   UNL d   1      33.162  20.649 -20.658  0.00  0.00     0.000 A 
ATOM     18  C   UNL d   1      33.059  22.010 -20.142  0.00  0.00     0.000 C 
ATOM     19  C   UNL d   1      33.144  20.137 -21.293  0.00  0.00     0.005 A 
ENDBRANCH   2  13
TORSDOF 5
ENDMDL
MODEL 3
REMARK VINA RESULT:      -1.9      0.808      1.199
REMARK  5 active torsions:
REMARK  status: ('A' for Active; 'I' for Inactive)
REMARK       I    between atoms: C_2  and  N_1 
REMARK    1  A    between atoms: C_3  and  N_1 
REMARK    2  A    between atoms: C_4  and  C_2 
REMARK    3  A    between atoms: N_6  and  C_3 
REMARK    4  A    between atoms: C_11  and  N_6 
REMARK    5  A    between atoms: C_12  and  C_11 
ROOT
ATOM      1  N   UNL d   1      31.929  18.229 -23.580  0.00  0.00    -0.179 NA
ATOM      2  C   UNL d   1      31.876  17.615 -24.108  0.00  0.00     0.281 C 
ATOM      3  O   UNL d   1      32.571  17.291 -24.424  0.00  0.00    -0.265 OA
ENDROOT
BRANCH   1   4
ATOM      4  C   UNL d   1      32.650  18.543 -23.346  0.00  0.00     0.224 C 
ATOM      5  S   UNL d   1      33.241  18.051 -23.039  0.00  0.00    -0.037 SA
BRANCH   4   6
ATOM      6  N   UNL d   1      32.778  19.344 -23.418  0.00  0.00    -0.214 NA
BRANCH   6   7
ATOM      7  C   UNL d   1      33.105  19.767 -22.787  0.00  0.00     0.126 C 
BRANCH   7   8
ATOM      8  C   UNL d   1      33.106  20.603 -22.799  0.00  0.00     0.119 A 
ATOM      9  O   UNL d   1      33.241  21.069 -23.466  0.00  0.00    -0.304 OA
ATOM     10  C   UNL d   1      33.193  21.862 -23.242  0.00  0.00     0.123 A 
ATOM     11  C   UNL d   1      33.028  21.874 -22.432  0.00  0.00     0.029 A 
ATOM     12  C   UNL d   1      32.976  21.101 -22.168  0.00  0.00     0.028 A 
ENDBRANCH   7   8
ENDBRANCH   6   7
ENDBRANCH   4   6
ENDBRANCH   1   4
BRANCH   2  13
ATOM     13  C   UNL d   1      31.130  17.314 -24.329  0.00  0.00     0.058 A 
ATOM     14  C   UNL d   1      30.930  16.564 -24.084  0.00  0.00     0.005 A 
ATOM     15  C   UNL d   1      30.193  16.252 -24.295  0.00  0.00     0.000 A 
ATOM     16  C   UNL d   1      29.663  16.689 -24.747  0.00  0.00     0.000 A 
ATOM     17  C   UNL d   1      29.885  17.454 -24.988  0.00  0.00     0.000 A 
ATOM     18  C   UNL d   1      28.924  16.356 -24.950  0.00  0.00     0.000 C 
ATOM     19  C   UNL d   1      30.613  17.757 -24.777  0.00  0.00     0.005 A 
ENDBRANCH   2  13
TORSDOF 5
ENDMDL
MODEL 4
REMARK VINA RESULT:      -1.8      2.272      3.243
REMARK  5 active torsions:
REMARK  status: ('A' for Active; 'I' for Inactive)
REMARK       I    between atoms: C_2  and  N_1 
REMARK    1  A    between atoms: C_3  and  N_1 
REMARK    2  A    between atoms: C_4  and  C_2 
REMARK    3  A    between atoms: N_6  and  C_3 
REMARK    4  A    between atoms: C_11  and  N_6 
REMARK    5  A    between atoms: C_12  and  C_11 
ROOT
ATOM      1  N   UNL d   1      32.956  19.904 -22.520  0.00  0.00    -0.179 NA
ATOM      2  C   UNL d   1      32.989  19.094 -22.479  0.00  0.00     0.281 C 
ATOM      3  O   UNL d   1      33.224  18.735 -21.769  0.00  0.00    -0.265 OA
ENDROOT
BRANCH   1   4
ATOM      4  C   UNL d   1      33.146  20.383 -21.881  0.00  0.00     0.224 C 
ATOM      5  S   UNL d   1      33.241  20.056 -21.127  0.00  0.00    -0.037 SA
BRANCH   4   6
ATOM      6  N   UNL d   1      33.241  21.183 -21.997  0.00  0.00    -0.214 NA
BRANCH   6   7
ATOM      7  C   UNL d   1      32.836  21.720 -21.516  0.00  0.00     0.126 C 
BRANCH   7   8
ATOM      8  C   UNL d   1      32.712  22.505 -21.776  0.00  0.00     0.119 A 
ATOM      9  O   UNL d   1      33.234  22.939 -22.243  0.00  0.00    -0.304 OA
ATOM     10  C   UNL d   1      32.905  23.685 -22.374  0.00  0.00     0.123 A 
ATOM     11  C   UNL d   1      32.178  23.700 -21.982  0.00  0.00     0.029 A 
ATOM     12  C   UNL d   1      32.067  22.976 -21.618  0.00  0.00     0.028 A 
ENDBRANCH   7   8
ENDBRANCH   6   7
ENDBRANCH   4   6
ENDBRANCH   1   4
BRANCH   2  13
ATOM     13  C   UNL d   1      32.790  18.632 -23.143  0.00  0.00     0.058 A 
ATOM     14  C   UNL d   1      32.299  17.992 -23.033  0.00  0.00     0.005 A 
ATOM     15  C   UNL d   1      32.092  17.523 -23.682  0.00  0.00     0.000 A 
ATOM     16  C   UNL d   1      32.375  17.695 -24.434  0.00  0.00     0.000 A 
ATOM     17  C   UNL d   1      32.877  18.353 -24.528  0.00  0.00     0.000 A 
ATOM     18  C   UNL d   1      32.155  17.209 -25.078  0.00  0.00     0.000 C 
ATOM     19  C   UNL d   1      33.077  18.811 -23.884  0.00  0.00     0.005 A 
ENDBRANCH   2  13
TORSDOF 5
ENDMDL
MODEL 5
REMARK VINA RESULT:      -1.5      1.308      1.901
REMARK  5 active torsions:
REMARK  status: ('A' for Active; 'I' for Inactive)
REMARK       I    between atoms: C_2  and  N_1 
REMARK    1  A    between atoms: C_3  and  N_1 
REMARK    2  A    between atoms: C_4  and  C_2 
REMARK    3  A    between atoms: N_6  and  C_3 
REMARK    4  A    between atoms: C_11  and  N_6 
REMARK    5  A    between atoms: C_12  and  C_11 
ROOT
ATOM      1  N   UNL d   1      32.543  19.099 -23.700  0.00  0.00    -0.179 NA
ATOM      2  C   UNL d   1      32.642  18.502 -24.240  0.00  0.00     0.281 C 
ATOM      3  O   UNL d   1      33.231  18.572 -24.819  0.00  0.00    -0.265 OA
ENDROOT
BRANCH   1   4
ATOM      4  C   UNL d   1      33.009  19.775 -23.706  0.00  0.00     0.224 C 
ATOM      5  S   UNL d   1      33.241  20.117 -24.423  0.00  0.00    -0.037 SA
BRANCH   4   6
ATOM      6  N   UNL d   1      33.241  20.106 -22.999  0.00  0.00    -0.214 NA
BRANCH   6   7
ATOM      7  C   UNL d   1      32.952  20.848 -22.778  0.00  0.00     0.126 C 
BRANCH   7   8
ATOM      8  C   UNL d   1      32.953  21.075 -21.973  0.00  0.00     0.119 A 
ATOM      9  O   UNL d   1      32.864  20.562 -21.334  0.00  0.00    -0.304 OA
ATOM     10  C   UNL d   1      32.897  21.006 -20.639  0.00  0.00     0.123 A 
ATOM     11  C   UNL d   1      33.007  21.794 -20.861  0.00  0.00     0.029 A 
ATOM     12  C   UNL d   1      33.040  21.829 -21.678  0.00  0.00     0.028 A 
ENDBRANCH   7   8
ENDBRANCH   6   7
ENDBRANCH   4   6
ENDBRANCH   1   4
BRANCH   2  13
ATOM     13  C   UNL d   1      32.154  17.826 -24.211  0.00  0.00     0.058 A 
ATOM     14  C   UNL d   1      32.456  17.148 -23.875  0.00  0.00     0.005 A 
ATOM     15  C   UNL d   1      31.985  16.469 -23.838  0.00  0.00     0.000 A 
ATOM     16  C   UNL d   1      31.219  16.470 -24.136  0.00  0.00     0.000 A 
ATOM     17  C   UNL d   1      30.927  17.172 -24.477  0.00  0.00     0.000 A 
ATOM     18  C   UNL d   1      30.758  15.775 -24.090  0.00  0.00     0.000 C 
ATOM     19  C   UNL d   1      31.396  17.838 -24.510  0.00  0.00     0.005 A 
ENDBRANCH   2  13
TORSDOF 5
ENDMDL
MODEL 6
REMARK VINA RESULT:      -1.3      3.952      5.628
REMARK  5 active torsions:
REMARK  status: ('A' for Active; 'I' for Inactive)
REMARK       I    between atoms: C_2  and  N_1 
REMARK    1  A    between atoms: C_3  and  N_1 
REMARK    2  A    between atoms: C_4  and  C_2 
REMARK    3  A    between atoms: N_6  and  C_3 
REMARK    4  A    between atoms: C_11  and  N_6 
REMARK    5  A    between atoms: C_12  and  C_11 
ROOT
ATOM      1  N   UNL d   1      32.986  22.311 -20.783  0.00  0.00    -0.179 NA
ATOM      2  C   UNL d   1      32.734  22.045 -21.508  0.00  0.00     0.281 C 
ATOM      3  O   UNL d   1      32.356  22.573 -22.024  0.00  0.00    -0.265 OA
ENDROOT
BRANCH   1   4
ATOM      4  C   UNL d   1      32.879  23.089 -20.542  0.00  0.00     0.224 C 
ATOM      5  S   UNL d   1      32.624  23.662 -21.080  0.00  0.00    -0.037 SA
BRANCH   4   6
ATOM      6  N   UNL d   1      33.026  23.288 -19.767  0.00  0.00    -0.214 NA
BRANCH   6   7
ATOM      7  C   UNL d   1      32.412  23.269 -19.213  0.00  0.00     0.126 C 
BRANCH   7   8
ATOM      8  C   UNL d   1      32.580  23.358 -18.398  0.00  0.00     0.119 A 
ATOM      9  O   UNL d   1      32.093  23.105 -17.782  0.00  0.00    -0.304 OA
ATOM     10  C   UNL d   1      32.460  23.297 -17.068  0.00  0.00     0.123 A 
ATOM     11  C   UNL d   1      33.174  23.668 -17.255  0.00  0.00     0.029 A 
ATOM     12  C   UNL d   1      33.241  23.702 -18.070  0.00  0.00     0.028 A 
ENDBRANCH   7   8
ENDBRANCH   6   7
ENDBRANCH   4   6
ENDBRANCH   1   4
BRANCH   2  13
ATOM     13  C   UNL d   1      32.855  21.250 -21.728  0.00  0.00     0.058 A 
ATOM     14  C   UNL d   1      33.090  21.094 -22.492  0.00  0.00     0.005 A 
ATOM     15  C   UNL d   1      33.214  20.310 -22.725  0.00  0.00     0.000 A 
ATOM     16  C   UNL d   1      33.105  19.690 -22.197  0.00  0.00     0.000 A 
ATOM     17  C   UNL d   1      32.864  19.868 -21.420  0.00  0.00     0.000 A 
ATOM     18  C   UNL d   1      33.235  18.904 -22.452  0.00  0.00     0.000 C 
ATOM     19  C   UNL d   1      32.743  20.643 -21.196  0.00  0.00     0.005 A 
ENDBRANCH   2  13
TORSDOF 5
ENDMDL
