MODEL 1
REMARK VINA RESULT:      -5.8      0.000      0.000
REMARK  2 active torsions:
REMARK  status: ('A' for Active; 'I' for Inactive)
REMARK    1  A    between atoms: C_5  and  N_2 
REMARK    2  A    between atoms: C_4  and  C_5 
ROOT
ATOM      1  C   UNL d   1     -46.713  13.162  23.205  0.00  0.00     0.206 A 
ATOM      2  N   UNL d   1     -47.473  12.831  23.202  0.00  0.00    -0.279 N 
ATOM      3  N   UNL d   1     -46.189  12.592  23.516  0.00  0.00    -0.215 NA
ATOM      4  C   UNL d   1     -46.630  11.921  23.698  0.00  0.00     0.120 A 
ATOM      5  C   UNL d   1     -47.421  12.066  23.506  0.00  0.00     0.103 A 
ATOM      6  S   UNL d   1     -46.510  13.921  22.948  0.00  0.00    -0.038 SA
ENDROOT
BRANCH   2   7
ATOM      7  C   UNL d   1     -48.168  13.205  22.938  0.00  0.00     0.089 C 
BRANCH   7   8
ATOM      8  C   UNL d   1     -48.842  12.762  22.797  0.00  0.00     0.047 A 
ATOM      9  S   UNL d   1     -49.464  12.652  23.322  0.00  0.00    -0.085 SA
ATOM     10  C   UNL d   1     -50.029  12.170  22.959  0.00  0.00     0.035 A 
ATOM     11  C   UNL d   1     -49.746  11.984  22.202  0.00  0.00     0.007 A 
ATOM     12  C   UNL d   1     -49.015  12.350  22.104  0.00  0.00     0.009 A 
ENDBRANCH   7   8
ENDBRANCH   2   7
TORSDOF 2
ENDMDL
MODEL 2
REMARK VINA RESULT:      -5.4      1.649      2.980
REMARK  2 active torsions:
REMARK  status: ('A' for Active; 'I' for Inactive)
REMARK    1  A    between atoms: C_5  and  N_2 
REMARK    2  A    between atoms: C_4  and  C_5 
ROOT
ATOM      1  C   UNL d   1     -49.105  14.387  22.261  0.00  0.00     0.206 A 
ATOM      2  N   UNL d   1     -48.447  13.901  22.396  0.00  0.00    -0.279 N 
ATOM      3  N   UNL d   1     -49.544  14.053  21.635  0.00  0.00    -0.215 NA
ATOM      4  C   UNL d   1     -49.153  13.370  21.393  0.00  0.00     0.120 A 
ATOM      5  C   UNL d   1     -48.478  13.274  21.860  0.00  0.00     0.103 A 
ATOM      6  S   UNL d   1     -49.292  15.078  22.674  0.00  0.00    -0.038 SA
ENDROOT
BRANCH   2   7
ATOM      7  C   UNL d   1     -47.858  14.023  22.970  0.00  0.00     0.089 C 
BRANCH   7   8
ATOM      8  C   UNL d   1     -47.155  13.605  22.930  0.00  0.00     0.047 A 
ATOM      9  S   UNL d   1     -47.002  12.882  23.288  0.00  0.00    -0.085 SA
ATOM     10  C   UNL d   1     -46.228  12.659  23.107  0.00  0.00     0.035 A 
ATOM     11  C   UNL d   1     -45.904  13.255  22.630  0.00  0.00     0.007 A 
ATOM     12  C   UNL d   1     -46.476  13.836  22.522  0.00  0.00     0.009 A 
ENDBRANCH   7   8
ENDBRANCH   2   7
TORSDOF 2
ENDMDL
