MODEL 1
REMARK VINA RESULT:      -3.9      0.000      0.000
REMARK  9 active torsions:
REMARK  status: ('A' for Active; 'I' for Inactive)
REMARK    1  A    between atoms: N_2  and  S_1 
REMARK    2  A    between atoms: C_12  and  S_1 
REMARK    3  A    between atoms: C_4  and  N_2 
REMARK    4  A    between atoms: N_6  and  C_8 
REMARK       I    between atoms: C_9  and  N_6 
REMARK    5  A    between atoms: O_22  and  C_7 
REMARK    6  A    between atoms: C_8  and  N_15 
REMARK    7  A    between atoms: C_16  and  C_9 
REMARK    8  A    between atoms: O_23  and  C_10 
REMARK    9  A    between atoms: N_15  and  C_21 
ROOT
ATOM      1  C   UNL d   1     -46.245  13.140  22.763  0.00  0.00     0.105 A 
ATOM      2  C   UNL d   1     -45.892  12.414  22.712  0.00  0.00     0.015 A 
ATOM      3  C   UNL d   1     -45.934  13.781  22.354  0.00  0.00     0.015 A 
ATOM      4  C   UNL d   1     -44.902  12.957  21.838  0.00  0.00     0.084 A 
ATOM      5  C   UNL d   1     -45.227  12.298  22.261  0.00  0.00     0.020 A 
ATOM      6  C   UNL d   1     -45.270  13.685  21.898  0.00  0.00     0.020 A 
ENDROOT
BRANCH   1   7
ATOM      7  S   UNL d   1     -46.929  13.252  23.229  0.00  0.00     0.287 S 
ATOM      8  O   UNL d   1     -46.942  12.427  23.383  0.00  0.00    -0.198 OA
ATOM      9  O   UNL d   1     -46.908  14.058  23.072  0.00  0.00    -0.198 OA
BRANCH   7  10
ATOM     10  N   UNL d   1     -47.611  13.339  23.698  0.00  0.00    -0.139 NA
BRANCH  10  11
ATOM     11  C   UNL d   1     -48.372  13.307  23.369  0.00  0.00     0.182 A 
ATOM     12  N   UNL d   1     -48.701  13.963  23.055  0.00  0.00    -0.185 NA
ATOM     13  C   UNL d   1     -49.458  13.945  22.725  0.00  0.00     0.274 A 
ATOM     14  N   UNL d   1     -49.874  13.260  22.717  0.00  0.00    -0.181 NA
ATOM     15  C   UNL d   1     -49.563  12.573  23.032  0.00  0.00     0.185 A 
ATOM     16  C   UNL d   1     -48.768  12.606  23.375  0.00  0.00     0.084 A 
BRANCH  13  17
ATOM     17  O   UNL d   1     -49.807  14.637  22.393  0.00  0.00    -0.297 OA
ATOM     18  C   UNL d   1     -50.087  15.239  22.873  0.00  0.00     0.185 C 
ENDBRANCH  13  17
BRANCH  15  19
ATOM     19  O   UNL d   1     -50.019  11.884  23.007  0.00  0.00    -0.312 OA
ATOM     20  C   UNL d   1     -50.362  11.592  23.698  0.00  0.00     0.183 C 
ENDBRANCH  15  19
ENDBRANCH  10  11
ENDBRANCH   7  10
ENDBRANCH   1   7
BRANCH   4  21
ATOM     21  N   UNL d   1     -44.225  12.880  21.367  0.00  0.00    -0.217 NA
BRANCH  21  22
ATOM     22  C   UNL d   1     -43.507  12.772  21.717  0.00  0.00     0.223 C 
ATOM     23  S   UNL d   1     -43.353  12.080  22.157  0.00  0.00    -0.037 SA
BRANCH  22  24
ATOM     24  N   UNL d   1     -42.931  13.344  21.638  0.00  0.00    -0.183 NA
ATOM     25  C   UNL d   1     -42.295  13.236  21.134  0.00  0.00     0.257 C 
ATOM     26  O   UNL d   1     -42.241  12.518  20.691  0.00  0.00    -0.270 OA
BRANCH  25  27
ATOM     27  C   UNL d   1     -41.712  13.814  21.054  0.00  0.00     0.073 C 
ATOM     28  C   UNL d   1     -42.033  14.035  20.316  0.00  0.00     0.009 C 
ATOM     29  C   UNL d   1     -41.393  13.593  21.790  0.00  0.00     0.009 C 
ATOM     30  C   UNL d   1     -41.124  14.397  20.974  0.00  0.00     0.009 C 
ENDBRANCH  25  27
ENDBRANCH  22  24
ENDBRANCH  21  22
ENDBRANCH   4  21
TORSDOF 9
ENDMDL
MODEL 2
REMARK VINA RESULT:      -3.8      1.081      1.475
REMARK  9 active torsions:
REMARK  status: ('A' for Active; 'I' for Inactive)
REMARK    1  A    between atoms: N_2  and  S_1 
REMARK    2  A    between atoms: C_12  and  S_1 
REMARK    3  A    between atoms: C_4  and  N_2 
REMARK    4  A    between atoms: N_6  and  C_8 
REMARK       I    between atoms: C_9  and  N_6 
REMARK    5  A    between atoms: O_22  and  C_7 
REMARK    6  A    between atoms: C_8  and  N_15 
REMARK    7  A    between atoms: C_16  and  C_9 
REMARK    8  A    between atoms: O_23  and  C_10 
REMARK    9  A    between atoms: N_15  and  C_21 
ROOT
ATOM      1  C   UNL d   1     -45.034  12.848  22.511  0.00  0.00     0.105 A 
ATOM      2  C   UNL d   1     -44.929  13.446  21.977  0.00  0.00     0.015 A 
ATOM      3  C   UNL d   1     -44.493  12.232  22.555  0.00  0.00     0.015 A 
ATOM      4  C   UNL d   1     -43.730  12.822  21.516  0.00  0.00     0.084 A 
ATOM      5  C   UNL d   1     -44.292  13.455  21.474  0.00  0.00     0.020 A 
ATOM      6  C   UNL d   1     -43.850  12.224  22.060  0.00  0.00     0.020 A 
ENDROOT
BRANCH   1   7
ATOM      7  S   UNL d   1     -45.692  12.844  23.026  0.00  0.00     0.287 S 
ATOM      8  O   UNL d   1     -45.598  12.015  23.117  0.00  0.00    -0.198 OA
ATOM      9  O   UNL d   1     -45.776  13.655  22.930  0.00  0.00    -0.198 OA
BRANCH   7  10
ATOM     10  N   UNL d   1     -46.345  12.815  23.541  0.00  0.00    -0.139 NA
BRANCH  10  11
ATOM     11  C   UNL d   1     -47.122  12.756  23.257  0.00  0.00     0.182 A 
ATOM     12  N   UNL d   1     -47.473  13.387  22.918  0.00  0.00    -0.185 NA
ATOM     13  C   UNL d   1     -48.247  13.341  22.631  0.00  0.00     0.274 A 
ATOM     14  N   UNL d   1     -48.656  12.654  22.691  0.00  0.00    -0.181 NA
ATOM     15  C   UNL d   1     -48.321  11.992  23.034  0.00  0.00     0.185 A 
ATOM     16  C   UNL d   1     -47.509  12.054  23.331  0.00  0.00     0.084 A 
BRANCH  13  17
ATOM     17  O   UNL d   1     -48.620  14.006  22.272  0.00  0.00    -0.297 OA
ATOM     18  C   UNL d   1     -49.136  14.479  22.697  0.00  0.00     0.185 C 
ENDBRANCH  13  17
BRANCH  15  19
ATOM     19  O   UNL d   1     -48.770  11.300  23.080  0.00  0.00    -0.312 OA
ATOM     20  C   UNL d   1     -49.307  11.198  23.698  0.00  0.00     0.183 C 
ENDBRANCH  15  19
ENDBRANCH  10  11
ENDBRANCH   7  10
ENDBRANCH   1   7
BRANCH   4  21
ATOM     21  N   UNL d   1     -43.068  12.796  21.020  0.00  0.00    -0.217 NA
BRANCH  21  22
ATOM     22  C   UNL d   1     -42.387  13.166  21.244  0.00  0.00     0.223 C 
ATOM     23  S   UNL d   1     -41.945  12.877  21.891  0.00  0.00    -0.037 SA
BRANCH  22  24
ATOM     24  N   UNL d   1     -42.132  13.824  20.835  0.00  0.00    -0.183 NA
ATOM     25  C   UNL d   1     -41.335  13.997  20.770  0.00  0.00     0.257 C 
ATOM     26  O   UNL d   1     -40.773  13.482  21.133  0.00  0.00    -0.270 OA
BRANCH  25  27
ATOM     27  C   UNL d   1     -41.078  14.663  20.356  0.00  0.00     0.073 C 
ATOM     28  C   UNL d   1     -41.230  15.138  21.025  0.00  0.00     0.009 C 
ATOM     29  C   UNL d   1     -40.925  14.190  19.689  0.00  0.00     0.009 C 
ATOM     30  C   UNL d   1     -40.818  15.334  19.939  0.00  0.00     0.009 C 
ENDBRANCH  25  27
ENDBRANCH  22  24
ENDBRANCH  21  22
ENDBRANCH   4  21
TORSDOF 9
ENDMDL
MODEL 3
REMARK VINA RESULT:      -3.8      0.635      1.407
REMARK  9 active torsions:
REMARK  status: ('A' for Active; 'I' for Inactive)
REMARK    1  A    between atoms: N_2  and  S_1 
REMARK    2  A    between atoms: C_12  and  S_1 
REMARK    3  A    between atoms: C_4  and  N_2 
REMARK    4  A    between atoms: N_6  and  C_8 
REMARK       I    between atoms: C_9  and  N_6 
REMARK    5  A    between atoms: O_22  and  C_7 
REMARK    6  A    between atoms: C_8  and  N_15 
REMARK    7  A    between atoms: C_16  and  C_9 
REMARK    8  A    between atoms: O_23  and  C_10 
REMARK    9  A    between atoms: N_15  and  C_21 
ROOT
ATOM      1  C   UNL d   1     -46.038  13.214  22.684  0.00  0.00     0.105 A 
ATOM      2  C   UNL d   1     -45.695  12.483  22.638  0.00  0.00     0.015 A 
ATOM      3  C   UNL d   1     -45.713  13.850  22.280  0.00  0.00     0.015 A 
ATOM      4  C   UNL d   1     -44.686  13.012  21.777  0.00  0.00     0.084 A 
ATOM      5  C   UNL d   1     -45.025  12.358  22.196  0.00  0.00     0.020 A 
ATOM      6  C   UNL d   1     -45.044  13.745  21.833  0.00  0.00     0.020 A 
ENDROOT
BRANCH   1   7
ATOM      7  S   UNL d   1     -46.727  13.335  23.140  0.00  0.00     0.287 S 
ATOM      8  O   UNL d   1     -46.871  12.509  23.118  0.00  0.00    -0.198 OA
ATOM      9  O   UNL d   1     -46.578  14.143  23.156  0.00  0.00    -0.198 OA
BRANCH   7  10
ATOM     10  N   UNL d   1     -47.418  13.432  23.594  0.00  0.00    -0.139 NA
BRANCH  10  11
ATOM     11  C   UNL d   1     -48.148  13.614  23.244  0.00  0.00     0.182 A 
ATOM     12  N   UNL d   1     -48.618  13.030  22.972  0.00  0.00    -0.185 NA
ATOM     13  C   UNL d   1     -49.347  13.198  22.621  0.00  0.00     0.274 A 
ATOM     14  N   UNL d   1     -49.591  13.958  22.550  0.00  0.00    -0.181 NA
ATOM     15  C   UNL d   1     -49.129  14.576  22.819  0.00  0.00     0.185 A 
ATOM     16  C   UNL d   1     -48.367  14.387  23.185  0.00  0.00     0.084 A 
BRANCH  13  17
ATOM     17  O   UNL d   1     -49.845  12.582  22.333  0.00  0.00    -0.297 OA
ATOM     18  C   UNL d   1     -50.005  12.509  21.533  0.00  0.00     0.185 C 
ENDBRANCH  13  17
BRANCH  15  19
ATOM     19  O   UNL d   1     -49.411  15.348  22.730  0.00  0.00    -0.312 OA
ATOM     20  C   UNL d   1     -49.931  15.665  23.286  0.00  0.00     0.183 C 
ENDBRANCH  15  19
ENDBRANCH  10  11
ENDBRANCH   7  10
ENDBRANCH   1   7
BRANCH   4  21
ATOM     21  N   UNL d   1     -44.004  12.925  21.316  0.00  0.00    -0.217 NA
BRANCH  21  22
ATOM     22  C   UNL d   1     -43.289  12.825  21.676  0.00  0.00     0.223 C 
ATOM     23  S   UNL d   1     -43.127  12.125  22.101  0.00  0.00    -0.037 SA
BRANCH  22  24
ATOM     24  N   UNL d   1     -42.725  13.411  21.623  0.00  0.00    -0.183 NA
ATOM     25  C   UNL d   1     -42.103  13.351  21.094  0.00  0.00     0.257 C 
ATOM     26  O   UNL d   1     -42.051  12.669  20.599  0.00  0.00    -0.270 OA
BRANCH  25  27
ATOM     27  C   UNL d   1     -41.532  13.944  21.040  0.00  0.00     0.073 C 
ATOM     28  C   UNL d   1     -41.175  13.665  21.742  0.00  0.00     0.009 C 
ATOM     29  C   UNL d   1     -41.887  14.223  20.341  0.00  0.00     0.009 C 
ATOM     30  C   UNL d   1     -40.956  14.542  20.986  0.00  0.00     0.009 C 
ENDBRANCH  25  27
ENDBRANCH  22  24
ENDBRANCH  21  22
ENDBRANCH   4  21
TORSDOF 9
ENDMDL
MODEL 4
REMARK VINA RESULT:      -3.8      2.314      2.872
REMARK  9 active torsions:
REMARK  status: ('A' for Active; 'I' for Inactive)
REMARK    1  A    between atoms: N_2  and  S_1 
REMARK    2  A    between atoms: C_12  and  S_1 
REMARK    3  A    between atoms: C_4  and  N_2 
REMARK    4  A    between atoms: N_6  and  C_8 
REMARK       I    between atoms: C_9  and  N_6 
REMARK    5  A    between atoms: O_22  and  C_7 
REMARK    6  A    between atoms: C_8  and  N_15 
REMARK    7  A    between atoms: C_16  and  C_9 
REMARK    8  A    between atoms: O_23  and  C_10 
REMARK    9  A    between atoms: N_15  and  C_21 
ROOT
ATOM      1  C   UNL d   1     -48.197  12.458  23.267  0.00  0.00     0.105 A 
ATOM      2  C   UNL d   1     -47.827  11.830  23.618  0.00  0.00     0.015 A 
ATOM      3  C   UNL d   1     -47.759  13.090  22.981  0.00  0.00     0.015 A 
ATOM      4  C   UNL d   1     -46.563  12.458  23.403  0.00  0.00     0.084 A 
ATOM      5  C   UNL d   1     -47.019  11.807  23.697  0.00  0.00     0.020 A 
ATOM      6  C   UNL d   1     -46.951  13.085  23.051  0.00  0.00     0.020 A 
ENDROOT
BRANCH   1   7
ATOM      7  S   UNL d   1     -49.029  12.475  23.189  0.00  0.00     0.287 S 
ATOM      8  O   UNL d   1     -49.049  13.142  23.698  0.00  0.00    -0.198 OA
ATOM      9  O   UNL d   1     -48.999  11.822  22.691  0.00  0.00    -0.198 OA
BRANCH   7  10
ATOM     10  N   UNL d   1     -49.858  12.512  23.126  0.00  0.00    -0.139 NA
BRANCH  10  11
ATOM     11  C   UNL d   1     -50.243  13.186  22.831  0.00  0.00     0.182 A 
ATOM     12  N   UNL d   1     -50.441  13.781  23.324  0.00  0.00    -0.185 NA
ATOM     13  C   UNL d   1     -50.825  14.457  23.043  0.00  0.00     0.274 A 
ATOM     14  N   UNL d   1     -51.003  14.522  22.265  0.00  0.00    -0.181 NA
ATOM     15  C   UNL d   1     -50.812  13.927  21.737  0.00  0.00     0.185 A 
ATOM     16  C   UNL d   1     -50.410  13.224  22.044  0.00  0.00     0.084 A 
BRANCH  13  17
ATOM     17  O   UNL d   1     -51.035  15.087  23.562  0.00  0.00    -0.297 OA
ATOM     18  C   UNL d   1     -50.600  15.781  23.579  0.00  0.00     0.185 C 
ENDBRANCH  13  17
BRANCH  15  19
ATOM     19  O   UNL d   1     -51.010  14.026  20.941  0.00  0.00    -0.312 OA
ATOM     20  C   UNL d   1     -50.968  13.385  20.423  0.00  0.00     0.183 C 
ENDBRANCH  15  19
ENDBRANCH  10  11
ENDBRANCH   7  10
ENDBRANCH   1   7
BRANCH   4  21
ATOM     21  N   UNL d   1     -45.737  12.472  23.465  0.00  0.00    -0.217 NA
BRANCH  21  22
ATOM     22  C   UNL d   1     -45.292  12.013  22.973  0.00  0.00     0.223 C 
ATOM     23  S   UNL d   1     -45.202  12.224  22.170  0.00  0.00    -0.037 SA
BRANCH  22  24
ATOM     24  N   UNL d   1     -44.931  11.343  23.263  0.00  0.00    -0.183 NA
ATOM     25  C   UNL d   1     -44.169  11.144  23.041  0.00  0.00     0.257 C 
ATOM     26  O   UNL d   1     -43.756  11.647  22.502  0.00  0.00    -0.270 OA
BRANCH  25  27
ATOM     27  C   UNL d   1     -43.804  10.465  23.335  0.00  0.00     0.073 C 
ATOM     28  C   UNL d   1     -44.512  10.037  23.226  0.00  0.00     0.009 C 
ATOM     29  C   UNL d   1     -43.098  10.892  23.443  0.00  0.00     0.009 C 
ATOM     30  C   UNL d   1     -43.435   9.781  23.631  0.00  0.00     0.009 C 
ENDBRANCH  25  27
ENDBRANCH  22  24
ENDBRANCH  21  22
ENDBRANCH   4  21
TORSDOF 9
ENDMDL
MODEL 5
REMARK VINA RESULT:      -3.1      1.429      6.593
REMARK  9 active torsions:
REMARK  status: ('A' for Active; 'I' for Inactive)
REMARK    1  A    between atoms: N_2  and  S_1 
REMARK    2  A    between atoms: C_12  and  S_1 
REMARK    3  A    between atoms: C_4  and  N_2 
REMARK    4  A    between atoms: N_6  and  C_8 
REMARK       I    between atoms: C_9  and  N_6 
REMARK    5  A    between atoms: O_22  and  C_7 
REMARK    6  A    between atoms: C_8  and  N_15 
REMARK    7  A    between atoms: C_16  and  C_9 
REMARK    8  A    between atoms: O_23  and  C_10 
REMARK    9  A    between atoms: N_15  and  C_21 
ROOT
ATOM      1  C   UNL d   1     -43.829  12.722  21.777  0.00  0.00     0.105 A 
ATOM      2  C   UNL d   1     -43.984  12.102  22.272  0.00  0.00     0.015 A 
ATOM      3  C   UNL d   1     -44.362  13.344  21.713  0.00  0.00     0.015 A 
ATOM      4  C   UNL d   1     -45.215  12.715  22.654  0.00  0.00     0.084 A 
ATOM      5  C   UNL d   1     -44.663  12.075  22.716  0.00  0.00     0.020 A 
ATOM      6  C   UNL d   1     -45.046  13.335  22.150  0.00  0.00     0.020 A 
ENDROOT
BRANCH   1   7
ATOM      7  S   UNL d   1     -43.128  12.744  21.322  0.00  0.00     0.287 S 
ATOM      8  O   UNL d   1     -43.545  13.159  20.724  0.00  0.00    -0.198 OA
ATOM      9  O   UNL d   1     -42.728  12.337  21.914  0.00  0.00    -0.198 OA
BRANCH   7  10
ATOM     10  N   UNL d   1     -42.442  12.777  20.852  0.00  0.00    -0.139 NA
BRANCH  10  11
ATOM     11  C   UNL d   1     -41.852  13.345  20.983  0.00  0.00     0.182 A 
ATOM     12  N   UNL d   1     -41.269  13.203  21.509  0.00  0.00    -0.185 NA
ATOM     13  C   UNL d   1     -40.675  13.760  21.648  0.00  0.00     0.274 A 
ATOM     14  N   UNL d   1     -40.679  14.457  21.252  0.00  0.00    -0.181 NA
ATOM     15  C   UNL d   1     -41.264  14.630  20.708  0.00  0.00     0.185 A 
ATOM     16  C   UNL d   1     -41.881  14.037  20.571  0.00  0.00     0.084 A 
BRANCH  13  17
ATOM     17  O   UNL d   1     -40.058  13.611  22.203  0.00  0.00    -0.297 OA
ATOM     18  C   UNL d   1     -39.272  13.629  21.973  0.00  0.00     0.185 C 
ENDBRANCH  13  17
BRANCH  15  19
ATOM     19  O   UNL d   1     -41.239  15.357  20.317  0.00  0.00    -0.312 OA
ATOM     20  C   UNL d   1     -40.887  15.414  19.574  0.00  0.00     0.183 C 
ENDBRANCH  15  19
ENDBRANCH  10  11
ENDBRANCH   7  10
ENDBRANCH   1   7
BRANCH   4  21
ATOM     21  N   UNL d   1     -45.919  12.724  23.090  0.00  0.00    -0.217 NA
BRANCH  21  22
ATOM     22  C   UNL d   1     -46.561  13.118  22.803  0.00  0.00     0.223 C 
ATOM     23  S   UNL d   1     -46.609  13.949  22.869  0.00  0.00    -0.037 SA
BRANCH  22  24
ATOM     24  N   UNL d   1     -47.165  12.701  22.448  0.00  0.00    -0.183 NA
ATOM     25  C   UNL d   1     -47.930  12.740  22.734  0.00  0.00     0.257 C 
ATOM     26  O   UNL d   1     -48.091  13.222  23.409  0.00  0.00    -0.270 OA
BRANCH  25  27
ATOM     27  C   UNL d   1     -48.541  12.317  22.374  0.00  0.00     0.073 C 
ATOM     28  C   UNL d   1     -48.607  12.910  21.790  0.00  0.00     0.009 C 
ATOM     29  C   UNL d   1     -48.475  11.726  22.956  0.00  0.00     0.009 C 
ATOM     30  C   UNL d   1     -49.157  11.891  22.012  0.00  0.00     0.009 C 
ENDBRANCH  25  27
ENDBRANCH  22  24
ENDBRANCH  21  22
ENDBRANCH   4  21
TORSDOF 9
ENDMDL
MODEL 6
REMARK VINA RESULT:      -2.9      1.413      2.286
REMARK  9 active torsions:
REMARK  status: ('A' for Active; 'I' for Inactive)
REMARK    1  A    between atoms: N_2  and  S_1 
REMARK    2  A    between atoms: C_12  and  S_1 
REMARK    3  A    between atoms: C_4  and  N_2 
REMARK    4  A    between atoms: N_6  and  C_8 
REMARK       I    between atoms: C_9  and  N_6 
REMARK    5  A    between atoms: O_22  and  C_7 
REMARK    6  A    between atoms: C_8  and  N_15 
REMARK    7  A    between atoms: C_16  and  C_9 
REMARK    8  A    between atoms: O_23  and  C_10 
REMARK    9  A    between atoms: N_15  and  C_21 
ROOT
ATOM      1  C   UNL d   1     -47.918  13.041  23.287  0.00  0.00     0.105 A 
ATOM      2  C   UNL d   1     -47.534  13.699  23.016  0.00  0.00     0.015 A 
ATOM      3  C   UNL d   1     -47.492  12.383  23.530  0.00  0.00     0.015 A 
ATOM      4  C   UNL d   1     -46.279  13.051  23.226  0.00  0.00     0.084 A 
ATOM      5  C   UNL d   1     -46.723  13.728  22.976  0.00  0.00     0.020 A 
ATOM      6  C   UNL d   1     -46.681  12.393  23.498  0.00  0.00     0.020 A 
ENDROOT
BRANCH   1   7
ATOM      7  S   UNL d   1     -48.753  13.018  23.325  0.00  0.00     0.287 S 
ATOM      8  O   UNL d   1     -48.735  12.270  22.946  0.00  0.00    -0.198 OA
ATOM      9  O   UNL d   1     -48.759  13.751  23.695  0.00  0.00    -0.198 OA
BRANCH   7  10
ATOM     10  N   UNL d   1     -49.583  12.973  23.351  0.00  0.00    -0.139 NA
BRANCH  10  11
ATOM     11  C   UNL d   1     -50.061  13.471  22.891  0.00  0.00     0.182 A 
ATOM     12  N   UNL d   1     -50.315  13.231  22.174  0.00  0.00    -0.185 NA
ATOM     13  C   UNL d   1     -50.792  13.717  21.705  0.00  0.00     0.274 A 
ATOM     14  N   UNL d   1     -51.006  14.442  21.970  0.00  0.00    -0.181 NA
ATOM     15  C   UNL d   1     -50.761  14.714  22.701  0.00  0.00     0.185 A 
ATOM     16  C   UNL d   1     -50.261  14.194  23.182  0.00  0.00     0.084 A 
BRANCH  13  17
ATOM     17  O   UNL d   1     -51.060  13.465  20.947  0.00  0.00    -0.297 OA
ATOM     18  C   UNL d   1     -50.801  12.759  20.621  0.00  0.00     0.185 C 
ENDBRANCH  13  17
BRANCH  15  19
ATOM     19  O   UNL d   1     -51.000  15.466  22.945  0.00  0.00    -0.312 OA
ATOM     20  C   UNL d   1     -50.798  15.741  23.696  0.00  0.00     0.183 C 
ENDBRANCH  15  19
ENDBRANCH  10  11
ENDBRANCH   7  10
ENDBRANCH   1   7
BRANCH   4  21
ATOM     21  N   UNL d   1     -45.451  13.042  23.201  0.00  0.00    -0.217 NA
BRANCH  21  22
ATOM     22  C   UNL d   1     -45.073  12.532  22.703  0.00  0.00     0.223 C 
ATOM     23  S   UNL d   1     -45.166  11.708  22.795  0.00  0.00    -0.037 SA
BRANCH  22  24
ATOM     24  N   UNL d   1     -44.598  12.827  22.109  0.00  0.00    -0.183 NA
ATOM     25  C   UNL d   1     -43.878  12.482  21.935  0.00  0.00     0.257 C 
ATOM     26  O   UNL d   1     -43.627  11.809  22.381  0.00  0.00    -0.270 OA
BRANCH  25  27
ATOM     27  C   UNL d   1     -43.397  12.780  21.334  0.00  0.00     0.073 C 
ATOM     28  C   UNL d   1     -44.069  12.883  20.849  0.00  0.00     0.009 C 
ATOM     29  C   UNL d   1     -42.728  12.677  21.817  0.00  0.00     0.009 C 
ATOM     30  C   UNL d   1     -42.913  13.081  20.728  0.00  0.00     0.009 C 
ENDBRANCH  25  27
ENDBRANCH  22  24
ENDBRANCH  21  22
ENDBRANCH   4  21
TORSDOF 9
ENDMDL
MODEL 7
REMARK VINA RESULT:      -2.4      2.372      7.478
REMARK  9 active torsions:
REMARK  status: ('A' for Active; 'I' for Inactive)
REMARK    1  A    between atoms: N_2  and  S_1 
REMARK    2  A    between atoms: C_12  and  S_1 
REMARK    3  A    between atoms: C_4  and  N_2 
REMARK    4  A    between atoms: N_6  and  C_8 
REMARK       I    between atoms: C_9  and  N_6 
REMARK    5  A    between atoms: O_22  and  C_7 
REMARK    6  A    between atoms: C_8  and  N_15 
REMARK    7  A    between atoms: C_16  and  C_9 
REMARK    8  A    between atoms: O_23  and  C_10 
REMARK    9  A    between atoms: N_15  and  C_21 
ROOT
ATOM      1  C   UNL d   1     -41.839  13.868  21.131  0.00  0.00     0.105 A 
ATOM      2  C   UNL d   1     -41.871  13.081  21.314  0.00  0.00     0.015 A 
ATOM      3  C   UNL d   1     -42.530  14.292  21.001  0.00  0.00     0.015 A 
ATOM      4  C   UNL d   1     -43.296  13.124  21.241  0.00  0.00     0.084 A 
ATOM      5  C   UNL d   1     -42.580  12.691  21.375  0.00  0.00     0.020 A 
ATOM      6  C   UNL d   1     -43.248  13.919  21.057  0.00  0.00     0.020 A 
ENDROOT
BRANCH   1   7
ATOM      7  S   UNL d   1     -41.105  14.264  21.070  0.00  0.00     0.287 S 
ATOM      8  O   UNL d   1     -41.517  14.965  20.862  0.00  0.00    -0.198 OA
ATOM      9  O   UNL d   1     -40.711  13.573  21.275  0.00  0.00    -0.198 OA
BRANCH   7  10
ATOM     10  N   UNL d   1     -40.387  14.679  21.004  0.00  0.00    -0.139 NA
BRANCH  10  11
ATOM     11  C   UNL d   1     -39.903  14.608  20.334  0.00  0.00     0.182 A 
ATOM     12  N   UNL d   1     -39.210  14.215  20.380  0.00  0.00    -0.185 NA
ATOM     13  C   UNL d   1     -38.719  14.137  19.720  0.00  0.00     0.274 A 
ATOM     14  N   UNL d   1     -38.937  14.458  19.019  0.00  0.00    -0.181 NA
ATOM     15  C   UNL d   1     -39.642  14.866  18.942  0.00  0.00     0.185 A 
ATOM     16  C   UNL d   1     -40.147  14.941  19.642  0.00  0.00     0.084 A 
BRANCH  13  17
ATOM     17  O   UNL d   1     -37.987  13.723  19.767  0.00  0.00    -0.297 OA
ATOM     18  C   UNL d   1     -37.955  12.911  19.666  0.00  0.00     0.185 C 
ENDBRANCH  13  17
BRANCH  15  19
ATOM     19  O   UNL d   1     -39.837  15.185  18.206  0.00  0.00    -0.312 OA
ATOM     20  C   UNL d   1     -39.534  15.918  17.980  0.00  0.00     0.183 C 
ENDBRANCH  15  19
ENDBRANCH  10  11
ENDBRANCH   7  10
ENDBRANCH   1   7
BRANCH   4  21
ATOM     21  N   UNL d   1     -44.039  12.761  21.293  0.00  0.00    -0.217 NA
BRANCH  21  22
ATOM     22  C   UNL d   1     -44.430  12.754  21.999  0.00  0.00     0.223 C 
ATOM     23  S   UNL d   1     -44.199  12.225  22.602  0.00  0.00    -0.037 SA
BRANCH  22  24
ATOM     24  N   UNL d   1     -45.053  13.265  22.120  0.00  0.00    -0.183 NA
ATOM     25  C   UNL d   1     -45.718  13.029  22.535  0.00  0.00     0.257 C 
ATOM     26  O   UNL d   1     -45.753  12.242  22.840  0.00  0.00    -0.270 OA
BRANCH  25  27
ATOM     27  C   UNL d   1     -46.349  13.547  22.657  0.00  0.00     0.073 C 
ATOM     28  C   UNL d   1     -45.944  13.888  23.303  0.00  0.00     0.009 C 
ATOM     29  C   UNL d   1     -46.752  13.208  22.014  0.00  0.00     0.009 C 
ATOM     30  C   UNL d   1     -46.985  14.069  22.781  0.00  0.00     0.009 C 
ENDBRANCH  25  27
ENDBRANCH  22  24
ENDBRANCH  21  22
ENDBRANCH   4  21
TORSDOF 9
ENDMDL
MODEL 8
REMARK VINA RESULT:      -2.4      3.189      7.816
REMARK  9 active torsions:
REMARK  status: ('A' for Active; 'I' for Inactive)
REMARK    1  A    between atoms: N_2  and  S_1 
REMARK    2  A    between atoms: C_12  and  S_1 
REMARK    3  A    between atoms: C_4  and  N_2 
REMARK    4  A    between atoms: N_6  and  C_8 
REMARK       I    between atoms: C_9  and  N_6 
REMARK    5  A    between atoms: O_22  and  C_7 
REMARK    6  A    between atoms: C_8  and  N_15 
REMARK    7  A    between atoms: C_16  and  C_9 
REMARK    8  A    between atoms: O_23  and  C_10 
REMARK    9  A    between atoms: N_15  and  C_21 
ROOT
ATOM      1  C   UNL d   1     -40.815  14.721  20.416  0.00  0.00     0.105 A 
ATOM      2  C   UNL d   1     -41.476  15.130  20.638  0.00  0.00     0.015 A 
ATOM      3  C   UNL d   1     -40.712  13.941  20.653  0.00  0.00     0.015 A 
ATOM      4  C   UNL d   1     -41.948  13.983  21.345  0.00  0.00     0.084 A 
ATOM      5  C   UNL d   1     -42.051  14.787  21.097  0.00  0.00     0.020 A 
ATOM      6  C   UNL d   1     -41.275  13.582  21.113  0.00  0.00     0.020 A 
ENDROOT
BRANCH   1   7
ATOM      7  S   UNL d   1     -40.228  15.080  19.943  0.00  0.00     0.287 S 
ATOM      8  O   UNL d   1     -40.651  15.803  19.991  0.00  0.00    -0.198 OA
ATOM      9  O   UNL d   1     -39.821  14.367  19.902  0.00  0.00    -0.198 OA
BRANCH   7  10
ATOM     10  N   UNL d   1     -39.655  15.459  19.473  0.00  0.00    -0.139 NA
BRANCH  10  11
ATOM     11  C   UNL d   1     -39.612  15.334  18.654  0.00  0.00     0.182 A 
ATOM     12  N   UNL d   1     -40.145  15.677  18.168  0.00  0.00    -0.185 NA
ATOM     13  C   UNL d   1     -40.113  15.561  17.350  0.00  0.00     0.274 A 
ATOM     14  N   UNL d   1     -39.540  15.099  17.034  0.00  0.00    -0.181 NA
ATOM     15  C   UNL d   1     -38.981  14.736  17.507  0.00  0.00     0.185 A 
ATOM     16  C   UNL d   1     -39.026  14.865  18.363  0.00  0.00     0.084 A 
BRANCH  13  17
ATOM     17  O   UNL d   1     -40.675  15.922  16.837  0.00  0.00    -0.297 OA
ATOM     18  C   UNL d   1     -41.360  15.529  16.619  0.00  0.00     0.185 C 
ENDBRANCH  13  17
BRANCH  15  19
ATOM     19  O   UNL d   1     -38.404  14.265  17.149  0.00  0.00    -0.312 OA
ATOM     20  C   UNL d   1     -38.588  13.498  16.908  0.00  0.00     0.183 C 
ENDBRANCH  15  19
ENDBRANCH  10  11
ENDBRANCH   7  10
ENDBRANCH   1   7
BRANCH   4  21
ATOM     21  N   UNL d   1     -42.512  13.598  21.814  0.00  0.00    -0.217 NA
BRANCH  21  22
ATOM     22  C   UNL d   1     -43.114  13.193  21.463  0.00  0.00     0.223 C 
ATOM     23  S   UNL d   1     -42.950  12.612  20.886  0.00  0.00    -0.037 SA
BRANCH  22  24
ATOM     24  N   UNL d   1     -43.885  13.355  21.673  0.00  0.00    -0.183 NA
ATOM     25  C   UNL d   1     -44.344  12.796  22.056  0.00  0.00     0.257 C 
ATOM     26  O   UNL d   1     -44.007  12.041  22.234  0.00  0.00    -0.270 OA
BRANCH  25  27
ATOM     27  C   UNL d   1     -45.124  12.959  22.269  0.00  0.00     0.073 C 
ATOM     28  C   UNL d   1     -45.179  12.212  22.639  0.00  0.00     0.009 C 
ATOM     29  C   UNL d   1     -45.069  13.703  21.900  0.00  0.00     0.009 C 
ATOM     30  C   UNL d   1     -45.910  13.123  22.484  0.00  0.00     0.009 C 
ENDBRANCH  25  27
ENDBRANCH  22  24
ENDBRANCH  21  22
ENDBRANCH   4  21
TORSDOF 9
ENDMDL
