MODEL 1
REMARK VINA RESULT:      -5.2      0.000      0.000
REMARK  3 active torsions:
REMARK  status: ('A' for Active; 'I' for Inactive)
REMARK    1  A    between atoms: C_6  and  N_1 
REMARK    2  A    between atoms: C_11  and  C_6 
REMARK    3  A    between atoms: C_9  and  C_11 
ROOT
ATOM      1  N   UNL d   1     -41.275-122.374 -52.443  0.00  0.00    -0.240 N 
ATOM      2  C   UNL d   1     -41.193-121.868 -51.802  0.00  0.00     0.267 A 
ATOM      3  C   UNL d   1     -41.324-123.141 -52.149  0.00  0.00     0.267 A 
ATOM      4  C   UNL d   1     -41.190-122.318 -51.115  0.00  0.00     0.061 A 
ATOM      5  C   UNL d   1     -41.272-123.110 -51.331  0.00  0.00     0.061 A 
ATOM      6  O   UNL d   1     -41.123-121.022 -51.869  0.00  0.00    -0.267 OA
ATOM      7  O   UNL d   1     -41.412-123.817 -52.630  0.00  0.00    -0.267 OA
ATOM      8  C   UNL d   1     -41.287-123.676 -50.764  0.00  0.00     0.005 A 
ATOM      9  C   UNL d   1     -41.124-122.104 -50.336  0.00  0.00     0.005 A 
ATOM     10  C   UNL d   1     -41.140-122.696 -49.747  0.00  0.00     0.000 A 
ATOM     11  C   UNL d   1     -41.222-123.488 -49.963  0.00  0.00     0.000 A 
ENDROOT
BRANCH   1  12
ATOM     12  C   UNL d   1     -41.305-122.154 -53.238  0.00  0.00     0.086 C 
BRANCH  12  13
ATOM     13  C   UNL d   1     -42.022-121.922 -53.585  0.00  0.00     0.019 C 
BRANCH  13  14
ATOM     14  C   UNL d   1     -42.094-121.937 -54.406  0.00  0.00     0.002 A 
ATOM     15  C   UNL d   1     -41.438-121.951 -54.877  0.00  0.00     0.000 A 
ATOM     16  C   UNL d   1     -41.513-121.966 -55.711  0.00  0.00     0.000 A 
ATOM     17  C   UNL d   1     -42.269-121.966 -56.058  0.00  0.00     0.000 A 
ATOM     18  C   UNL d   1     -42.921-121.951 -55.582  0.00  0.00     0.000 A 
ATOM     19  C   UNL d   1     -42.851-121.936 -54.750  0.00  0.00     0.000 A 
ENDBRANCH  13  14
ENDBRANCH  12  13
ENDBRANCH   1  12
TORSDOF 3
ENDMDL
MODEL 2
REMARK VINA RESULT:      -5.2      0.399      1.417
REMARK  3 active torsions:
REMARK  status: ('A' for Active; 'I' for Inactive)
REMARK    1  A    between atoms: C_6  and  N_1 
REMARK    2  A    between atoms: C_11  and  C_6 
REMARK    3  A    between atoms: C_9  and  C_11 
ROOT
ATOM      1  N   UNL d   1     -41.233-122.346 -52.145  0.00  0.00    -0.240 N 
ATOM      2  C   UNL d   1     -41.261-123.089 -51.797  0.00  0.00     0.267 A 
ATOM      3  C   UNL d   1     -41.176-121.791 -51.540  0.00  0.00     0.267 A 
ATOM      4  C   UNL d   1     -41.223-122.996 -50.982  0.00  0.00     0.061 A 
ATOM      5  C   UNL d   1     -41.170-122.188 -50.822  0.00  0.00     0.061 A 
ATOM      6  O   UNL d   1     -41.320-123.817 -52.235  0.00  0.00    -0.267 OA
ATOM      7  O   UNL d   1     -41.135-120.968 -51.669  0.00  0.00    -0.267 OA
ATOM      8  C   UNL d   1     -41.125-121.937 -50.062  0.00  0.00     0.005 A 
ATOM      9  C   UNL d   1     -41.229-123.540 -50.381  0.00  0.00     0.005 A 
ATOM     10  C   UNL d   1     -41.182-123.275 -49.590  0.00  0.00     0.000 A 
ATOM     11  C   UNL d   1     -41.130-122.467 -49.430  0.00  0.00     0.000 A 
ENDROOT
BRANCH   1  12
ATOM     12  C   UNL d   1     -41.256-122.184 -52.954  0.00  0.00     0.086 C 
BRANCH  12  13
ATOM     13  C   UNL d   1     -41.957-122.294 -53.385  0.00  0.00     0.019 C 
BRANCH  13  14
ATOM     14  C   UNL d   1     -41.960-122.129 -54.193  0.00  0.00     0.002 A 
ATOM     15  C   UNL d   1     -42.531-121.659 -54.516  0.00  0.00     0.000 A 
ATOM     16  C   UNL d   1     -42.533-121.493 -55.336  0.00  0.00     0.000 A 
ATOM     17  C   UNL d   1     -41.942-121.815 -55.824  0.00  0.00     0.000 A 
ATOM     18  C   UNL d   1     -41.373-122.285 -55.496  0.00  0.00     0.000 A 
ATOM     19  C   UNL d   1     -41.367-122.453 -54.678  0.00  0.00     0.000 A 
ENDBRANCH  13  14
ENDBRANCH  12  13
ENDBRANCH   1  12
TORSDOF 3
ENDMDL
MODEL 3
REMARK VINA RESULT:      -4.9      0.871      4.236
REMARK  3 active torsions:
REMARK  status: ('A' for Active; 'I' for Inactive)
REMARK    1  A    between atoms: C_6  and  N_1 
REMARK    2  A    between atoms: C_11  and  C_6 
REMARK    3  A    between atoms: C_9  and  C_11 
ROOT
ATOM      1  N   UNL d   1     -41.451-122.387 -52.719  0.00  0.00    -0.240 N 
ATOM      2  C   UNL d   1     -41.405-123.027 -53.230  0.00  0.00     0.267 A 
ATOM      3  C   UNL d   1     -41.662-121.728 -53.167  0.00  0.00     0.267 A 
ATOM      4  C   UNL d   1     -41.585-122.769 -53.989  0.00  0.00     0.061 A 
ATOM      5  C   UNL d   1     -41.745-121.961 -53.950  0.00  0.00     0.061 A 
ATOM      6  O   UNL d   1     -41.201-123.817 -52.985  0.00  0.00    -0.267 OA
ATOM      7  O   UNL d   1     -41.765-120.965 -52.847  0.00  0.00    -0.267 OA
ATOM      8  C   UNL d   1     -41.938-121.563 -54.617  0.00  0.00     0.005 A 
ATOM      9  C   UNL d   1     -41.621-123.167 -54.695  0.00  0.00     0.005 A 
ATOM     10  C   UNL d   1     -41.823-122.749 -55.388  0.00  0.00     0.000 A 
ATOM     11  C   UNL d   1     -41.983-121.940 -55.349  0.00  0.00     0.000 A 
ENDROOT
BRANCH   1  12
ATOM     12  C   UNL d   1     -41.313-122.399 -51.906  0.00  0.00     0.086 C 
BRANCH  12  13
ATOM     13  C   UNL d   1     -41.925-122.229 -51.372  0.00  0.00     0.019 C 
BRANCH  13  14
ATOM     14  C   UNL d   1     -41.875-122.516 -50.601  0.00  0.00     0.002 A 
ATOM     15  C   UNL d   1     -41.171-122.773 -50.301  0.00  0.00     0.000 A 
ATOM     16  C   UNL d   1     -41.123-123.064 -49.517  0.00  0.00     0.000 A 
ATOM     17  C   UNL d   1     -41.805-123.089 -49.043  0.00  0.00     0.000 A 
ATOM     18  C   UNL d   1     -42.506-122.831 -49.348  0.00  0.00     0.000 A 
ATOM     19  C   UNL d   1     -42.559-122.540 -50.129  0.00  0.00     0.000 A 
ENDBRANCH  13  14
ENDBRANCH  12  13
ENDBRANCH   1  12
TORSDOF 3
ENDMDL
MODEL 4
REMARK VINA RESULT:      -4.1      1.270      4.473
REMARK  3 active torsions:
REMARK  status: ('A' for Active; 'I' for Inactive)
REMARK    1  A    between atoms: C_6  and  N_1 
REMARK    2  A    between atoms: C_11  and  C_6 
REMARK    3  A    between atoms: C_9  and  C_11 
ROOT
ATOM      1  N   UNL d   1     -41.476-122.428 -51.183  0.00  0.00    -0.240 N 
ATOM      2  C   UNL d   1     -41.625-121.755 -51.628  0.00  0.00     0.267 A 
ATOM      3  C   UNL d   1     -41.306-123.039 -51.707  0.00  0.00     0.267 A 
ATOM      4  C   UNL d   1     -41.548-121.947 -52.423  0.00  0.00     0.061 A 
ATOM      5  C   UNL d   1     -41.349-122.746 -52.472  0.00  0.00     0.061 A 
ATOM      6  O   UNL d   1     -41.824-120.997 -51.294  0.00  0.00    -0.267 OA
ATOM      7  O   UNL d   1     -41.123-123.817 -51.467  0.00  0.00    -0.267 OA
ATOM      8  C   UNL d   1     -41.239-123.084 -53.190  0.00  0.00     0.005 A 
ATOM      9  C   UNL d   1     -41.634-121.498 -53.093  0.00  0.00     0.005 A 
ATOM     10  C   UNL d   1     -41.519-121.853 -53.840  0.00  0.00     0.000 A 
ATOM     11  C   UNL d   1     -41.320-122.652 -53.889  0.00  0.00     0.000 A 
ENDROOT
BRANCH   1  12
ATOM     12  C   UNL d   1     -41.493-122.482 -50.360  0.00  0.00     0.086 C 
BRANCH  12  13
ATOM     13  C   UNL d   1     -42.049-122.969 -49.982  0.00  0.00     0.019 C 
BRANCH  13  14
ATOM     14  C   UNL d   1     -42.041-123.022 -49.159  0.00  0.00     0.002 A 
ATOM     15  C   UNL d   1     -41.352-123.160 -48.761  0.00  0.00     0.000 A 
ATOM     16  C   UNL d   1     -41.346-123.214 -47.925  0.00  0.00     0.000 A 
ATOM     17  C   UNL d   1     -42.055-123.125 -47.500  0.00  0.00     0.000 A 
ATOM     18  C   UNL d   1     -42.741-122.988 -47.904  0.00  0.00     0.000 A 
ATOM     19  C   UNL d   1     -42.752-122.933 -48.737  0.00  0.00     0.000 A 
ENDBRANCH  13  14
ENDBRANCH  12  13
ENDBRANCH   1  12
TORSDOF 3
ENDMDL
MODEL 5
REMARK VINA RESULT:      -3.5      1.658      2.372
REMARK  3 active torsions:
REMARK  status: ('A' for Active; 'I' for Inactive)
REMARK    1  A    between atoms: C_6  and  N_1 
REMARK    2  A    between atoms: C_11  and  C_6 
REMARK    3  A    between atoms: C_9  and  C_11 
ROOT
ATOM      1  N   UNL d   1     -42.184-122.850 -50.586  0.00  0.00    -0.240 N 
ATOM      2  C   UNL d   1     -42.791-122.505 -50.156  0.00  0.00     0.267 A 
ATOM      3  C   UNL d   1     -41.780-123.360 -50.080  0.00  0.00     0.267 A 
ATOM      4  C   UNL d   1     -42.766-122.798 -49.389  0.00  0.00     0.061 A 
ATOM      5  C   UNL d   1     -42.137-123.330 -49.342  0.00  0.00     0.061 A 
ATOM      6  O   UNL d   1     -43.341-121.940 -50.478  0.00  0.00    -0.267 OA
ATOM      7  O   UNL d   1     -41.123-123.817 -50.312  0.00  0.00    -0.267 OA
ATOM      8  C   UNL d   1     -41.983-123.702 -48.649  0.00  0.00     0.005 A 
ATOM      9  C   UNL d   1     -43.231-122.646 -48.742  0.00  0.00     0.005 A 
ATOM     10  C   UNL d   1     -43.068-123.035 -48.022  0.00  0.00     0.000 A 
ATOM     11  C   UNL d   1     -42.439-123.567 -47.975  0.00  0.00     0.000 A 
ENDROOT
BRANCH   1  12
ATOM     12  C   UNL d   1     -42.008-122.713 -51.380  0.00  0.00     0.086 C 
BRANCH  12  13
ATOM     13  C   UNL d   1     -41.475-123.204 -51.785  0.00  0.00     0.019 C 
BRANCH  13  14
ATOM     14  C   UNL d   1     -41.395-123.121 -52.601  0.00  0.00     0.002 A 
ATOM     15  C   UNL d   1     -41.210-122.406 -52.927  0.00  0.00     0.000 A 
ATOM     16  C   UNL d   1     -41.128-122.324 -53.757  0.00  0.00     0.000 A 
ATOM     17  C   UNL d   1     -41.238-122.984 -54.250  0.00  0.00     0.000 A 
ATOM     18  C   UNL d   1     -41.423-123.697 -53.918  0.00  0.00     0.000 A 
ATOM     19  C   UNL d   1     -41.505-123.783 -53.092  0.00  0.00     0.000 A 
ENDBRANCH  13  14
ENDBRANCH  12  13
ENDBRANCH   1  12
TORSDOF 3
ENDMDL
