MODEL 1
REMARK VINA RESULT:      -9.3      0.000      0.000
REMARK  4 active torsions:
REMARK  status: ('A' for Active; 'I' for Inactive)
REMARK    1  A    between atoms: C_6  and  N_1 
REMARK    2  A    between atoms: N_8  and  C_4 
REMARK    3  A    between atoms: N_7  and  C_10 
REMARK    4  A    between atoms: C_16  and  N_8 
ROOT
ATOM      1  N   UNL d   1      52.835  33.891  53.506  0.00  0.00    -0.238 N 
ATOM      2  C   UNL d   1      52.702  34.658  53.174  0.00  0.00     0.269 A 
ATOM      3  C   UNL d   1      52.202  33.412  53.318  0.00  0.00     0.285 A 
ATOM      4  C   UNL d   1      51.654  33.870  52.862  0.00  0.00     0.142 A 
ATOM      5  C   UNL d   1      51.985  34.617  52.793  0.00  0.00     0.085 A 
ATOM      6  O   UNL d   1      53.175  35.322  53.212  0.00  0.00    -0.267 OA
ATOM      7  O   UNL d   1      52.127  32.618  53.543  0.00  0.00    -0.265 OA
ENDROOT
BRANCH   4   8
ATOM      8  N   UNL d   1      50.941  33.630  52.549  0.00  0.00    -0.241 NA
BRANCH   8   9
ATOM      9  C   UNL d   1      50.299  34.137  52.558  0.00  0.00     0.082 A 
ATOM     10  C   UNL d   1      49.944  34.369  51.844  0.00  0.00     0.021 A 
ATOM     11  C   UNL d   1      49.295  34.880  51.833  0.00  0.00     0.019 A 
ATOM     12  C   UNL d   1      48.994  35.166  52.564  0.00  0.00     0.064 A 
ATOM     13  C   UNL d   1      49.341  34.940  53.287  0.00  0.00     0.019 A 
ATOM     14  C   UNL d   1      49.996  34.423  53.275  0.00  0.00     0.021 A 
BRANCH  12  15
ATOM     15  N   UNL d   1      48.349  35.675  52.576  0.00  0.00    -0.300 N 
ATOM     16  C   UNL d   1      47.821  35.668  51.952  0.00  0.00     0.107 A 
ATOM     17  C   UNL d   1      47.175  36.171  51.954  0.00  0.00     0.142 A 
ATOM     18  O   UNL d   1      47.064  36.687  52.594  0.00  0.00    -0.300 OA
ATOM     19  C   UNL d   1      47.598  36.700  53.233  0.00  0.00     0.142 A 
ATOM     20  C   UNL d   1      48.240  36.188  53.213  0.00  0.00     0.107 A 
ENDBRANCH  12  15
ENDBRANCH   8   9
ENDBRANCH   4   8
BRANCH   1  21
ATOM     21  C   UNL d   1      53.481  33.655  53.942  0.00  0.00     0.097 A 
ATOM     22  C   UNL d   1      53.515  33.815  54.743  0.00  0.00     0.156 A 
ATOM     23  F   UNL d   1      52.904  34.215  55.121  0.00  0.00    -0.203 F 
ATOM     24  C   UNL d   1      54.170  33.576  55.187  0.00  0.00     0.031 A 
ATOM     25  C   UNL d   1      54.786  33.176  54.821  0.00  0.00     0.002 A 
ATOM     26  C   UNL d   1      54.747  33.018  54.016  0.00  0.00     0.002 A 
ATOM     27  C   UNL d   1      54.092  33.258  53.577  0.00  0.00     0.020 A 
ENDBRANCH   1  21
TORSDOF 4
ENDMDL
MODEL 2
REMARK VINA RESULT:      -7.9      1.654      5.657
REMARK  4 active torsions:
REMARK  status: ('A' for Active; 'I' for Inactive)
REMARK    1  A    between atoms: C_6  and  N_1 
REMARK    2  A    between atoms: N_8  and  C_4 
REMARK    3  A    between atoms: N_7  and  C_10 
REMARK    4  A    between atoms: C_16  and  N_8 
ROOT
ATOM      1  N   UNL d   1      48.265  35.387  52.464  0.00  0.00    -0.238 N 
ATOM      2  C   UNL d   1      48.800  35.591  53.087  0.00  0.00     0.269 A 
ATOM      3  C   UNL d   1      48.630  34.844  51.975  0.00  0.00     0.285 A 
ATOM      4  C   UNL d   1      49.405  34.695  52.282  0.00  0.00     0.142 A 
ATOM      5  C   UNL d   1      49.477  35.161  52.954  0.00  0.00     0.085 A 
ATOM      6  O   UNL d   1      48.689  36.108  53.708  0.00  0.00    -0.267 OA
ATOM      7  O   UNL d   1      48.284  34.510  51.301  0.00  0.00    -0.265 OA
ENDROOT
BRANCH   4   8
ATOM      8  N   UNL d   1      49.974  34.194  51.982  0.00  0.00    -0.241 NA
BRANCH   8   9
ATOM      9  C   UNL d   1      50.649  34.035  52.416  0.00  0.00     0.082 A 
ATOM     10  C   UNL d   1      51.353  34.442  52.250  0.00  0.00     0.021 A 
ATOM     11  C   UNL d   1      52.045  34.295  52.677  0.00  0.00     0.019 A 
ATOM     12  C   UNL d   1      52.026  33.721  53.291  0.00  0.00     0.064 A 
ATOM     13  C   UNL d   1      51.326  33.307  53.468  0.00  0.00     0.019 A 
ATOM     14  C   UNL d   1      50.638  33.470  53.024  0.00  0.00     0.021 A 
BRANCH  12  15
ATOM     15  N   UNL d   1      52.703  33.560  53.728  0.00  0.00    -0.300 N 
ATOM     16  C   UNL d   1      52.891  34.035  54.366  0.00  0.00     0.107 A 
ATOM     17  C   UNL d   1      53.563  33.883  54.809  0.00  0.00     0.142 A 
ATOM     18  O   UNL d   1      54.049  33.243  54.603  0.00  0.00    -0.300 OA
ATOM     19  C   UNL d   1      53.864  32.755  53.954  0.00  0.00     0.142 A 
ATOM     20  C   UNL d   1      53.186  32.923  53.523  0.00  0.00     0.107 A 
ENDBRANCH  12  15
ENDBRANCH   8   9
ENDBRANCH   4   8
BRANCH   1  21
ATOM     21  C   UNL d   1      47.511  35.674  52.356  0.00  0.00     0.097 A 
ATOM     22  C   UNL d   1      47.387  36.330  51.883  0.00  0.00     0.156 A 
ATOM     23  F   UNL d   1      48.014  36.709  51.512  0.00  0.00    -0.203 F 
ATOM     24  C   UNL d   1      46.621  36.623  51.772  0.00  0.00     0.031 A 
ATOM     25  C   UNL d   1      45.986  36.253  52.138  0.00  0.00     0.002 A 
ATOM     26  C   UNL d   1      46.117  35.595  52.612  0.00  0.00     0.002 A 
ATOM     27  C   UNL d   1      46.882  35.306  52.720  0.00  0.00     0.020 A 
ENDBRANCH   1  21
TORSDOF 4
ENDMDL
MODEL 3
REMARK VINA RESULT:      -7.7      2.394      3.070
REMARK  4 active torsions:
REMARK  status: ('A' for Active; 'I' for Inactive)
REMARK    1  A    between atoms: C_6  and  N_1 
REMARK    2  A    between atoms: N_8  and  C_4 
REMARK    3  A    between atoms: N_7  and  C_10 
REMARK    4  A    between atoms: C_16  and  N_8 
ROOT
ATOM      1  N   UNL d   1      53.085  30.899  53.451  0.00  0.00    -0.238 N 
ATOM      2  C   UNL d   1      52.793  30.975  52.661  0.00  0.00     0.269 A 
ATOM      3  C   UNL d   1      53.119  31.642  53.789  0.00  0.00     0.285 A 
ATOM      4  C   UNL d   1      52.846  32.203  53.215  0.00  0.00     0.142 A 
ATOM      5  C   UNL d   1      52.657  31.768  52.545  0.00  0.00     0.085 A 
ATOM      6  O   UNL d   1      52.662  30.392  52.105  0.00  0.00    -0.267 OA
ATOM      7  O   UNL d   1      53.377  31.799  54.561  0.00  0.00    -0.265 OA
ENDROOT
BRANCH   4   8
ATOM      8  N   UNL d   1      52.780  33.011  53.298  0.00  0.00    -0.241 NA
BRANCH   8   9
ATOM      9  C   UNL d   1      52.079  33.386  53.103  0.00  0.00     0.082 A 
ATOM     10  C   UNL d   1      52.042  33.868  52.428  0.00  0.00     0.021 A 
ATOM     11  C   UNL d   1      51.344  34.255  52.216  0.00  0.00     0.019 A 
ATOM     12  C   UNL d   1      50.663  34.153  52.697  0.00  0.00     0.064 A 
ATOM     13  C   UNL d   1      50.688  33.672  53.377  0.00  0.00     0.019 A 
ATOM     14  C   UNL d   1      51.403  33.290  53.574  0.00  0.00     0.021 A 
BRANCH  12  15
ATOM     15  N   UNL d   1      49.958  34.529  52.504  0.00  0.00    -0.300 N 
ATOM     16  C   UNL d   1      49.606  35.027  53.048  0.00  0.00     0.107 A 
ATOM     17  C   UNL d   1      48.904  35.407  52.865  0.00  0.00     0.142 A 
ATOM     18  O   UNL d   1      48.555  35.280  52.124  0.00  0.00    -0.300 OA
ATOM     19  C   UNL d   1      48.908  34.774  51.564  0.00  0.00     0.142 A 
ATOM     20  C   UNL d   1      49.612  34.403  51.766  0.00  0.00     0.107 A 
ENDBRANCH  12  15
ENDBRANCH   8   9
ENDBRANCH   4   8
BRANCH   1  21
ATOM     21  C   UNL d   1      53.302  30.210  53.827  0.00  0.00     0.097 A 
ATOM     22  C   UNL d   1      54.048  29.897  53.708  0.00  0.00     0.156 A 
ATOM     23  F   UNL d   1      54.589  30.267  53.212  0.00  0.00    -0.203 F 
ATOM     24  C   UNL d   1      54.270  29.197  54.089  0.00  0.00     0.031 A 
ATOM     25  C   UNL d   1      53.738  28.818  54.586  0.00  0.00     0.002 A 
ATOM     26  C   UNL d   1      52.991  29.137  54.701  0.00  0.00     0.002 A 
ATOM     27  C   UNL d   1      52.773  29.835  54.320  0.00  0.00     0.020 A 
ENDBRANCH   1  21
TORSDOF 4
ENDMDL
MODEL 4
REMARK VINA RESULT:      -7.2      1.935      5.747
REMARK  4 active torsions:
REMARK  status: ('A' for Active; 'I' for Inactive)
REMARK    1  A    between atoms: C_6  and  N_1 
REMARK    2  A    between atoms: N_8  and  C_4 
REMARK    3  A    between atoms: N_7  and  C_10 
REMARK    4  A    between atoms: C_16  and  N_8 
ROOT
ATOM      1  N   UNL d   1      48.282  35.270  52.231  0.00  0.00    -0.238 N 
ATOM      2  C   UNL d   1      48.673  34.748  51.692  0.00  0.00     0.269 A 
ATOM      3  C   UNL d   1      48.806  35.473  52.824  0.00  0.00     0.285 A 
ATOM      4  C   UNL d   1      49.541  35.080  52.670  0.00  0.00     0.142 A 
ATOM      5  C   UNL d   1      49.428  34.651  51.979  0.00  0.00     0.085 A 
ATOM      6  O   UNL d   1      48.381  34.398  51.016  0.00  0.00    -0.267 OA
ATOM      7  O   UNL d   1      48.630  35.976  53.459  0.00  0.00    -0.265 OA
ENDROOT
BRANCH   4   8
ATOM      8  N   UNL d   1      50.227  35.113  53.108  0.00  0.00    -0.241 NA
BRANCH   8   9
ATOM      9  C   UNL d   1      50.745  34.479  53.105  0.00  0.00     0.082 A 
ATOM     10  C   UNL d   1      51.437  34.513  52.647  0.00  0.00     0.021 A 
ATOM     11  C   UNL d   1      51.972  33.884  52.631  0.00  0.00     0.019 A 
ATOM     12  C   UNL d   1      51.805  33.199  53.089  0.00  0.00     0.064 A 
ATOM     13  C   UNL d   1      51.114  33.153  53.552  0.00  0.00     0.019 A 
ATOM     14  C   UNL d   1      50.586  33.801  53.554  0.00  0.00     0.021 A 
BRANCH  12  15
ATOM     15  N   UNL d   1      52.324  32.562  53.087  0.00  0.00    -0.300 N 
ATOM     16  C   UNL d   1      53.094  32.672  53.335  0.00  0.00     0.107 A 
ATOM     17  C   UNL d   1      53.620  32.043  53.337  0.00  0.00     0.142 A 
ATOM     18  O   UNL d   1      53.361  31.297  53.085  0.00  0.00    -0.300 OA
ATOM     19  C   UNL d   1      52.576  31.178  52.831  0.00  0.00     0.142 A 
ATOM     20  C   UNL d   1      52.065  31.820  52.836  0.00  0.00     0.107 A 
ENDBRANCH  12  15
ENDBRANCH   8   9
ENDBRANCH   4   8
BRANCH   1  21
ATOM     21  C   UNL d   1      47.514  35.536  52.182  0.00  0.00     0.097 A 
ATOM     22  C   UNL d   1      47.342  36.208  51.749  0.00  0.00     0.156 A 
ATOM     23  F   UNL d   1      47.933  36.625  51.359  0.00  0.00    -0.203 F 
ATOM     24  C   UNL d   1      46.561  36.479  51.698  0.00  0.00     0.031 A 
ATOM     25  C   UNL d   1      45.962  36.072  52.083  0.00  0.00     0.002 A 
ATOM     26  C   UNL d   1      46.142  35.398  52.516  0.00  0.00     0.002 A 
ATOM     27  C   UNL d   1      46.921  35.131  52.565  0.00  0.00     0.020 A 
ENDBRANCH   1  21
TORSDOF 4
ENDMDL
