MODEL 1
REMARK VINA RESULT:      -2.2      0.000      0.000
REMARK  6 active torsions:
REMARK  status: ('A' for Active; 'I' for Inactive)
REMARK    1  A    between atoms: C_7  and  S_1 
REMARK    2  A    between atoms: N_11  and  S_1 
REMARK    3  A    between atoms: C_5  and  C_21 
REMARK    4  A    between atoms: C_22  and  N_11 
REMARK    5  A    between atoms: C_20  and  C_13 
REMARK    6  A    between atoms: C_21  and  C_22 
ROOT
ATOM      1  S   UNL d   1     -41.361-121.549 -51.490  0.00  0.00     0.285 S 
ATOM      2  O   UNL d   1     -41.143-121.384 -50.710  0.00  0.00    -0.198 OA
ATOM      3  O   UNL d   1     -41.124-120.791 -51.714  0.00  0.00    -0.198 OA
ENDROOT
BRANCH   1   4
ATOM      4  C   UNL d   1     -41.576-121.709 -52.265  0.00  0.00     0.105 A 
ATOM      5  C   UNL d   1     -42.164-121.249 -52.627  0.00  0.00     0.013 A 
ATOM      6  C   UNL d   1     -42.379-121.416 -53.413  0.00  0.00     0.001 A 
ATOM      7  C   UNL d   1     -42.017-122.023 -53.823  0.00  0.00     0.000 A 
ATOM      8  C   UNL d   1     -41.431-122.480 -53.458  0.00  0.00     0.001 A 
ATOM      9  C   UNL d   1     -41.210-122.323 -52.678  0.00  0.00     0.013 A 
BRANCH   7  10
ATOM     10  C   UNL d   1     -42.229-122.187 -54.598  0.00  0.00     0.000 A 
ATOM     11  C   UNL d   1     -41.940-121.728 -55.215  0.00  0.00     0.000 A 
ATOM     12  C   UNL d   1     -42.159-121.903 -55.991  0.00  0.00     0.000 A 
ATOM     13  C   UNL d   1     -42.665-122.533 -56.147  0.00  0.00     0.000 A 
ATOM     14  C   UNL d   1     -42.957-122.997 -55.527  0.00  0.00     0.000 A 
ATOM     15  C   UNL d   1     -42.734-122.818 -54.754  0.00  0.00     0.000 A 
ENDBRANCH   7  10
ENDBRANCH   1   4
BRANCH   1  16
ATOM     16  N   UNL d   1     -41.597-122.306 -51.263  0.00  0.00    -0.157 NA
BRANCH  16  17
ATOM     17  C   UNL d   1     -41.563-122.528 -50.481  0.00  0.00     0.114 C 
BRANCH  17  18
ATOM     18  C   UNL d   1     -41.926-123.232 -50.229  0.00  0.00     0.042 C 
BRANCH  18  19
ATOM     19  C   UNL d   1     -42.047-123.360 -49.411  0.00  0.00     0.102 A 
ATOM     20  N   UNL d   1     -42.768-123.503 -49.044  0.00  0.00    -0.227 NA
ATOM     21  C   UNL d   1     -42.642-123.598 -48.235  0.00  0.00     0.148 A 
ATOM     22  C   UNL d   1     -43.147-123.749 -47.608  0.00  0.00     0.037 A 
ATOM     23  N   UNL d   1     -41.829-123.513 -48.092  0.00  0.00    -0.288 N 
ATOM     24  C   UNL d   1     -42.852-123.817 -46.836  0.00  0.00     0.005 A 
ATOM     25  C   UNL d   1     -42.051-123.734 -46.695  0.00  0.00     0.019 A 
ATOM     26  C   UNL d   1     -41.533-123.581 -47.320  0.00  0.00     0.082 A 
ATOM     27  C   UNL d   1     -41.451-123.365 -48.815  0.00  0.00     0.101 A 
ENDBRANCH  18  19
ENDBRANCH  17  18
ENDBRANCH  16  17
ENDBRANCH   1  16
TORSDOF 6
ENDMDL
