MODEL 1
REMARK VINA RESULT:      -6.4      0.000      0.000
REMARK  5 active torsions:
REMARK  status: ('A' for Active; 'I' for Inactive)
REMARK    1  A    between atoms: C_4  and  C_1 
REMARK    2  A    between atoms: C_5  and  C_2 
REMARK    3  A    between atoms: N_6  and  C_4 
REMARK    4  A    between atoms: C_25  and  N_10 
REMARK    5  A    between atoms: C_21  and  C_25 
ROOT
ATOM      1  N   UNL d   1     -43.746   9.728  23.317  0.00  0.00    -0.191 NA
ATOM      2  C   UNL d   1     -44.126  10.461  23.311  0.00  0.00     0.103 C 
ATOM      3  C   UNL d   1     -44.503  11.192  23.306  0.00  0.00     0.097 C 
ENDROOT
BRANCH   3   4
ATOM      4  C   UNL d   1     -45.322  11.230  23.317  0.00  0.00     0.091 C 
BRANCH   4   5
ATOM      5  N   UNL d   1     -45.708  11.945  23.163  0.00  0.00    -0.299 N 
ATOM      6  C   UNL d   1     -45.519  12.371  22.484  0.00  0.00     0.100 A 
ATOM      7  C   UNL d   1     -45.902  13.085  22.327  0.00  0.00     0.100 A 
ATOM      8  N   UNL d   1     -46.472  13.371  22.850  0.00  0.00    -0.291 N 
ATOM      9  C   UNL d   1     -46.664  12.947  23.532  0.00  0.00     0.100 A 
ATOM     10  C   UNL d   1     -46.277  12.231  23.686  0.00  0.00     0.100 A 
BRANCH   8  11
ATOM     11  C   UNL d   1     -46.850  14.080  22.691  0.00  0.00     0.143 C 
ATOM     12  S   UNL d   1     -46.409  14.766  22.575  0.00  0.00    -0.057 SA
BRANCH  11  13
ATOM     13  C   UNL d   1     -47.674  14.111  22.646  0.00  0.00     0.126 A 
ATOM     14  O   UNL d   1     -48.182  13.471  22.548  0.00  0.00    -0.305 OA
ATOM     15  C   UNL d   1     -48.960  13.753  22.533  0.00  0.00     0.101 A 
ATOM     16  C   UNL d   1     -48.927  14.576  22.623  0.00  0.00     0.027 A 
ATOM     17  C   UNL d   1     -48.133  14.794  22.693  0.00  0.00     0.029 A 
BRANCH  15  18
ATOM     18  C   UNL d   1     -49.644  13.302  22.445  0.00  0.00     0.034 A 
ATOM     19  C   UNL d   1     -50.025  13.286  21.716  0.00  0.00     0.060 A 
ATOM     20  C   UNL d   1     -50.711  12.836  21.621  0.00  0.00     0.012 A 
ATOM     21 CL   UNL d   1     -49.723  13.719  21.079  0.00  0.00    -0.082 Cl
ATOM     22  C   UNL d   1     -51.013  12.403  22.262  0.00  0.00     0.012 A 
ATOM     23  C   UNL d   1     -50.619  12.426  22.996  0.00  0.00     0.058 A 
ATOM     24  C   UNL d   1     -49.937  12.877  23.081  0.00  0.00     0.014 A 
ATOM     25 CL   UNL d   1     -50.922  11.993  23.634  0.00  0.00    -0.082 Cl
ENDBRANCH  15  18
ENDBRANCH  11  13
ENDBRANCH   8  11
ENDBRANCH   4   5
ENDBRANCH   3   4
TORSDOF 5
ENDMDL
MODEL 2
REMARK VINA RESULT:      -6.0      7.943      9.869
REMARK  5 active torsions:
REMARK  status: ('A' for Active; 'I' for Inactive)
REMARK    1  A    between atoms: C_4  and  C_1 
REMARK    2  A    between atoms: C_5  and  C_2 
REMARK    3  A    between atoms: N_6  and  C_4 
REMARK    4  A    between atoms: C_25  and  N_10 
REMARK    5  A    between atoms: C_21  and  C_25 
ROOT
ATOM      1  N   UNL d   1     -43.588  12.529  21.691  0.00  0.00    -0.191 NA
ATOM      2  C   UNL d   1     -42.903  12.865  21.376  0.00  0.00     0.103 C 
ATOM      3  C   UNL d   1     -42.219  13.196  21.060  0.00  0.00     0.097 C 
ENDROOT
BRANCH   3   4
ATOM      4  C   UNL d   1     -42.035  13.979  21.219  0.00  0.00     0.091 C 
BRANCH   4   5
ATOM      5  N   UNL d   1     -41.325  14.303  20.944  0.00  0.00    -0.299 N 
ATOM      6  C   UNL d   1     -40.608  13.984  21.194  0.00  0.00     0.100 A 
ATOM      7  C   UNL d   1     -39.898  14.305  20.921  0.00  0.00     0.100 A 
ATOM      8  N   UNL d   1     -39.907  14.944  20.400  0.00  0.00    -0.291 N 
ATOM      9  C   UNL d   1     -40.624  15.267  20.148  0.00  0.00     0.100 A 
ATOM     10  C   UNL d   1     -41.334  14.942  20.423  0.00  0.00     0.100 A 
BRANCH   8  11
ATOM     11  C   UNL d   1     -39.201  15.260  20.132  0.00  0.00     0.143 C 
ATOM     12  S   UNL d   1     -38.873  15.917  20.506  0.00  0.00    -0.057 SA
BRANCH  11  13
ATOM     13  C   UNL d   1     -38.813  14.922  19.487  0.00  0.00     0.126 A 
ATOM     14  O   UNL d   1     -39.018  15.008  18.694  0.00  0.00    -0.305 OA
ATOM     15  C   UNL d   1     -38.481  14.576  18.235  0.00  0.00     0.101 A 
ATOM     16  C   UNL d   1     -37.942  14.221  18.754  0.00  0.00     0.027 A 
ATOM     17  C   UNL d   1     -38.148  14.436  19.524  0.00  0.00     0.029 A 
BRANCH  15  18
ATOM     18  C   UNL d   1     -38.480  14.508  17.414  0.00  0.00     0.034 A 
ATOM     19  C   UNL d   1     -38.749  13.813  17.066  0.00  0.00     0.060 A 
ATOM     20  C   UNL d   1     -38.751  13.739  16.244  0.00  0.00     0.012 A 
ATOM     21 CL   UNL d   1     -39.017  13.189  17.538  0.00  0.00    -0.082 Cl
ATOM     22  C   UNL d   1     -38.481  14.367  15.772  0.00  0.00     0.012 A 
ATOM     23  C   UNL d   1     -38.210  15.066  16.134  0.00  0.00     0.058 A 
ATOM     24  C   UNL d   1     -38.213  15.131  16.954  0.00  0.00     0.014 A 
ATOM     25 CL   UNL d   1     -37.942  15.692  15.661  0.00  0.00    -0.082 Cl
ENDBRANCH  15  18
ENDBRANCH  11  13
ENDBRANCH   8  11
ENDBRANCH   4   5
ENDBRANCH   3   4
TORSDOF 5
ENDMDL
MODEL 3
REMARK VINA RESULT:      -5.5      1.732      2.178
REMARK  5 active torsions:
REMARK  status: ('A' for Active; 'I' for Inactive)
REMARK    1  A    between atoms: C_4  and  C_1 
REMARK    2  A    between atoms: C_5  and  C_2 
REMARK    3  A    between atoms: N_6  and  C_4 
REMARK    4  A    between atoms: C_25  and  N_10 
REMARK    5  A    between atoms: C_21  and  C_25 
ROOT
ATOM      1  N   UNL d   1     -42.449  12.814  20.731  0.00  0.00    -0.191 NA
ATOM      2  C   UNL d   1     -43.067  12.714  21.268  0.00  0.00     0.103 C 
ATOM      3  C   UNL d   1     -43.681  12.611  21.806  0.00  0.00     0.097 C 
ENDROOT
BRANCH   3   4
ATOM      4  C   UNL d   1     -44.289  13.161  21.841  0.00  0.00     0.091 C 
BRANCH   4   5
ATOM      5  N   UNL d   1     -45.030  12.943  22.138  0.00  0.00    -0.299 N 
ATOM      6  C   UNL d   1     -45.519  13.517  22.470  0.00  0.00     0.100 A 
ATOM      7  C   UNL d   1     -46.258  13.304  22.768  0.00  0.00     0.100 A 
ATOM      8  N   UNL d   1     -46.507  12.518  22.732  0.00  0.00    -0.291 N 
ATOM      9  C   UNL d   1     -46.020  11.940  22.399  0.00  0.00     0.100 A 
ATOM     10  C   UNL d   1     -45.278  12.158  22.102  0.00  0.00     0.100 A 
BRANCH   8  11
ATOM     11  C   UNL d   1     -47.241  12.311  23.028  0.00  0.00     0.143 C 
ATOM     12  S   UNL d   1     -47.298  11.828  23.693  0.00  0.00    -0.057 SA
BRANCH  11  13
ATOM     13  C   UNL d   1     -47.930  12.584  22.663  0.00  0.00     0.126 A 
ATOM     14  O   UNL d   1     -48.424  13.182  22.938  0.00  0.00    -0.305 OA
ATOM     15  C   UNL d   1     -49.047  13.276  22.402  0.00  0.00     0.101 A 
ATOM     16  C   UNL d   1     -48.932  12.729  21.791  0.00  0.00     0.027 A 
ATOM     17  C   UNL d   1     -48.243  12.304  21.954  0.00  0.00     0.029 A 
BRANCH  15  18
ATOM     18  C   UNL d   1     -49.669  13.814  22.461  0.00  0.00     0.034 A 
ATOM     19  C   UNL d   1     -50.434  13.566  22.291  0.00  0.00     0.060 A 
ATOM     20  C   UNL d   1     -51.061  14.099  22.348  0.00  0.00     0.012 A 
ATOM     21 CL   UNL d   1     -50.576  12.783  22.064  0.00  0.00    -0.082 Cl
ATOM     22  C   UNL d   1     -50.917  14.884  22.576  0.00  0.00     0.012 A 
ATOM     23  C   UNL d   1     -50.138  15.126  22.746  0.00  0.00     0.058 A 
ATOM     24  C   UNL d   1     -49.520  14.587  22.686  0.00  0.00     0.014 A 
ATOM     25 CL   UNL d   1     -49.996  15.910  22.974  0.00  0.00    -0.082 Cl
ENDBRANCH  15  18
ENDBRANCH  11  13
ENDBRANCH   8  11
ENDBRANCH   4   5
ENDBRANCH   3   4
TORSDOF 5
ENDMDL
MODEL 4
REMARK VINA RESULT:      -4.8      1.736      2.037
REMARK  5 active torsions:
REMARK  status: ('A' for Active; 'I' for Inactive)
REMARK    1  A    between atoms: C_4  and  C_1 
REMARK    2  A    between atoms: C_5  and  C_2 
REMARK    3  A    between atoms: N_6  and  C_4 
REMARK    4  A    between atoms: C_25  and  N_10 
REMARK    5  A    between atoms: C_21  and  C_25 
ROOT
ATOM      1  N   UNL d   1     -41.668  13.584  20.709  0.00  0.00    -0.191 NA
ATOM      2  C   UNL d   1     -42.322  13.308  21.130  0.00  0.00     0.103 C 
ATOM      3  C   UNL d   1     -42.972  13.032  21.553  0.00  0.00     0.097 C 
ENDROOT
BRANCH   3   4
ATOM      4  C   UNL d   1     -43.725  13.103  21.235  0.00  0.00     0.091 C 
BRANCH   4   5
ATOM      5  N   UNL d   1     -44.390  12.950  21.703  0.00  0.00    -0.299 N 
ATOM      6  C   UNL d   1     -44.484  12.206  22.045  0.00  0.00     0.100 A 
ATOM      7  C   UNL d   1     -45.146  12.050  22.512  0.00  0.00     0.100 A 
ATOM      8  N   UNL d   1     -45.712  12.637  22.636  0.00  0.00    -0.291 N 
ATOM      9  C   UNL d   1     -45.620  13.384  22.295  0.00  0.00     0.100 A 
ATOM     10  C   UNL d   1     -44.955  13.537  21.827  0.00  0.00     0.100 A 
BRANCH   8  11
ATOM     11  C   UNL d   1     -46.367  12.478  23.100  0.00  0.00     0.143 C 
ATOM     12  S   UNL d   1     -46.323  11.912  23.697  0.00  0.00    -0.057 SA
BRANCH  11  13
ATOM     13  C   UNL d   1     -47.075  12.884  22.973  0.00  0.00     0.126 A 
ATOM     14  O   UNL d   1     -47.773  12.565  22.675  0.00  0.00    -0.305 OA
ATOM     15  C   UNL d   1     -48.342  13.165  22.640  0.00  0.00     0.101 A 
ATOM     16  C   UNL d   1     -47.987  13.859  22.919  0.00  0.00     0.027 A 
ATOM     17  C   UNL d   1     -47.206  13.683  23.124  0.00  0.00     0.029 A 
BRANCH  15  18
ATOM     18  C   UNL d   1     -49.119  13.091  22.376  0.00  0.00     0.034 A 
ATOM     19  C   UNL d   1     -49.311  13.334  21.614  0.00  0.00     0.060 A 
ATOM     20  C   UNL d   1     -50.087  13.262  21.343  0.00  0.00     0.012 A 
ATOM     21 CL   UNL d   1     -48.728  13.651  21.119  0.00  0.00    -0.082 Cl
ATOM     22  C   UNL d   1     -50.671  12.944  21.842  0.00  0.00     0.012 A 
ATOM     23  C   UNL d   1     -50.466  12.701  22.611  0.00  0.00     0.058 A 
ATOM     24  C   UNL d   1     -49.690  12.776  22.871  0.00  0.00     0.014 A 
ATOM     25 CL   UNL d   1     -51.049  12.383  23.107  0.00  0.00    -0.082 Cl
ENDBRANCH  15  18
ENDBRANCH  11  13
ENDBRANCH   8  11
ENDBRANCH   4   5
ENDBRANCH   3   4
TORSDOF 5
ENDMDL
MODEL 5
REMARK VINA RESULT:      -4.7      7.459      9.281
REMARK  5 active torsions:
REMARK  status: ('A' for Active; 'I' for Inactive)
REMARK    1  A    between atoms: C_4  and  C_1 
REMARK    2  A    between atoms: C_5  and  C_2 
REMARK    3  A    between atoms: N_6  and  C_4 
REMARK    4  A    between atoms: C_25  and  N_10 
REMARK    5  A    between atoms: C_21  and  C_25 
ROOT
ATOM      1  N   UNL d   1     -43.754  12.331  21.437  0.00  0.00    -0.191 NA
ATOM      2  C   UNL d   1     -43.133  12.838  21.243  0.00  0.00     0.103 C 
ATOM      3  C   UNL d   1     -42.515  13.345  21.047  0.00  0.00     0.097 C 
ENDROOT
BRANCH   3   4
ATOM      4  C   UNL d   1     -41.882  13.434  21.562  0.00  0.00     0.091 C 
BRANCH   4   5
ATOM      5  N   UNL d   1     -41.256  13.939  21.367  0.00  0.00    -0.299 N 
ATOM      6  C   UNL d   1     -41.415  14.714  21.138  0.00  0.00     0.100 A 
ATOM      7  C   UNL d   1     -40.792  15.220  20.943  0.00  0.00     0.100 A 
ATOM      8  N   UNL d   1     -40.014  14.949  20.978  0.00  0.00    -0.291 N 
ATOM      9  C   UNL d   1     -39.851  14.173  21.208  0.00  0.00     0.100 A 
ATOM     10  C   UNL d   1     -40.478  13.668  21.402  0.00  0.00     0.100 A 
BRANCH   8  11
ATOM     11  C   UNL d   1     -39.400  15.454  20.784  0.00  0.00     0.143 C 
ATOM     12  S   UNL d   1     -39.042  15.913  21.367  0.00  0.00    -0.057 SA
BRANCH  11  13
ATOM     13  C   UNL d   1     -39.135  15.507  20.004  0.00  0.00     0.126 A 
ATOM     14  O   UNL d   1     -39.488  15.163  19.344  0.00  0.00    -0.305 OA
ATOM     15  C   UNL d   1     -39.041  15.357  18.676  0.00  0.00     0.101 A 
ATOM     16  C   UNL d   1     -38.407  15.826  18.929  0.00  0.00     0.027 A 
ATOM     17  C   UNL d   1     -38.467  15.917  19.748  0.00  0.00     0.029 A 
BRANCH  15  18
ATOM     18  C   UNL d   1     -39.195  15.128  17.899  0.00  0.00     0.034 A 
ATOM     19  C   UNL d   1     -38.746  14.528  17.559  0.00  0.00     0.060 A 
ATOM     20  C   UNL d   1     -38.895  14.295  16.781  0.00  0.00     0.012 A 
ATOM     21 CL   UNL d   1     -38.148  14.160  17.994  0.00  0.00    -0.082 Cl
ATOM     22  C   UNL d   1     -39.497  14.667  16.346  0.00  0.00     0.012 A 
ATOM     23  C   UNL d   1     -39.945  15.273  16.700  0.00  0.00     0.058 A 
ATOM     24  C   UNL d   1     -39.789  15.499  17.475  0.00  0.00     0.014 A 
ATOM     25 CL   UNL d   1     -40.545  15.643  16.263  0.00  0.00    -0.082 Cl
ENDBRANCH  15  18
ENDBRANCH  11  13
ENDBRANCH   8  11
ENDBRANCH   4   5
ENDBRANCH   3   4
TORSDOF 5
ENDMDL
MODEL 6
REMARK VINA RESULT:      -3.9      2.270      4.637
REMARK  5 active torsions:
REMARK  status: ('A' for Active; 'I' for Inactive)
REMARK    1  A    between atoms: C_4  and  C_1 
REMARK    2  A    between atoms: C_5  and  C_2 
REMARK    3  A    between atoms: N_6  and  C_4 
REMARK    4  A    between atoms: C_25  and  N_10 
REMARK    5  A    between atoms: C_21  and  C_25 
ROOT
ATOM      1  N   UNL d   1     -50.634  11.280  23.697  0.00  0.00    -0.191 NA
ATOM      2  C   UNL d   1     -50.778  11.833  23.102  0.00  0.00     0.103 C 
ATOM      3  C   UNL d   1     -50.923  12.382  22.506  0.00  0.00     0.097 C 
ENDROOT
BRANCH   3   4
ATOM      4  C   UNL d   1     -50.872  13.184  22.670  0.00  0.00     0.091 C 
BRANCH   4   5
ATOM      5  N   UNL d   1     -50.159  13.588  22.554  0.00  0.00    -0.299 N 
ATOM      6  C   UNL d   1     -49.760  13.512  21.837  0.00  0.00     0.100 A 
ATOM      7  C   UNL d   1     -49.049  13.913  21.719  0.00  0.00     0.100 A 
ATOM      8  N   UNL d   1     -48.738  14.388  22.318  0.00  0.00    -0.291 N 
ATOM      9  C   UNL d   1     -49.135  14.466  23.037  0.00  0.00     0.100 A 
ATOM     10  C   UNL d   1     -49.849  14.062  23.152  0.00  0.00     0.100 A 
BRANCH   8  11
ATOM     11  C   UNL d   1     -48.032  14.784  22.196  0.00  0.00     0.143 C 
ATOM     12  S   UNL d   1     -48.022  15.491  21.773  0.00  0.00    -0.057 SA
BRANCH  11  13
ATOM     13  C   UNL d   1     -47.327  14.478  22.497  0.00  0.00     0.126 A 
ATOM     14  O   UNL d   1     -46.902  13.842  22.194  0.00  0.00    -0.305 OA
ATOM     15  C   UNL d   1     -46.232  13.724  22.665  0.00  0.00     0.101 A 
ATOM     16  C   UNL d   1     -46.247  14.296  23.263  0.00  0.00     0.027 A 
ATOM     17  C   UNL d   1     -46.923  14.760  23.158  0.00  0.00     0.029 A 
BRANCH  15  18
ATOM     18  C   UNL d   1     -45.654  13.146  22.562  0.00  0.00     0.034 A 
ATOM     19  C   UNL d   1     -45.703  12.445  22.989  0.00  0.00     0.060 A 
ATOM     20  C   UNL d   1     -45.127  11.862  22.890  0.00  0.00     0.012 A 
ATOM     21 CL   UNL d   1     -46.328  12.324  23.518  0.00  0.00    -0.082 Cl
ATOM     22  C   UNL d   1     -44.500  11.986  22.359  0.00  0.00     0.012 A 
ATOM     23  C   UNL d   1     -44.460  12.700  21.931  0.00  0.00     0.058 A 
ATOM     24  C   UNL d   1     -45.038  13.274  22.036  0.00  0.00     0.014 A 
ATOM     25 CL   UNL d   1     -43.834  12.821  21.401  0.00  0.00    -0.082 Cl
ENDBRANCH  15  18
ENDBRANCH  11  13
ENDBRANCH   8  11
ENDBRANCH   4   5
ENDBRANCH   3   4
TORSDOF 5
ENDMDL
