MODEL 1
REMARK VINA RESULT:      54.7      0.000      0.000
REMARK  3 active torsions:
REMARK  status: ('A' for Active; 'I' for Inactive)
REMARK    1  A    between atoms: C_11  and  C_2 
REMARK    2  A    between atoms: C_12  and  C_3 
REMARK    3  A    between atoms: N_7  and  C_6 
ROOT
ATOM      1  C   UNL d   1      13.468  13.103  -3.755  0.00  0.00     0.078 A 
ATOM      2  C   UNL d   1      14.039  13.369  -2.472  0.00  0.00     0.029 A 
ATOM      3  C   UNL d   1      13.940  12.572  -2.268  0.00  0.00     0.102 A 
ATOM      4  C   UNL d   1      13.370  12.306  -3.547  0.00  0.00     0.187 A 
ATOM      5  O   UNL d   1      13.607  12.050  -2.806  0.00  0.00    -0.289 OA
ATOM      6  C   UNL d   1      13.229  13.366  -4.505  0.00  0.00     0.153 A 
ATOM      7  N   UNL d   1      13.036  11.781  -4.088  0.00  0.00    -0.200 NA
ATOM      8  N   UNL d   1      12.896  12.834  -5.036  0.00  0.00    -0.206 NA
ATOM      9  C   UNL d   1      12.797  12.035  -4.832  0.00  0.00     0.202 A 
ENDROOT
BRANCH   2  10
ATOM     10  C   UNL d   1      14.374  13.894  -1.932  0.00  0.00     0.002 A 
ATOM     11  C   UNL d   1      15.178  14.027  -1.937  0.00  0.00     0.000 A 
ATOM     12  C   UNL d   1      15.510  14.554  -1.393  0.00  0.00     0.000 A 
ATOM     13  C   UNL d   1      15.028  14.947  -0.844  0.00  0.00     0.000 A 
ATOM     14  C   UNL d   1      14.214  14.808  -0.843  0.00  0.00     0.000 A 
ATOM     15  C   UNL d   1      13.881  14.281  -1.387  0.00  0.00     0.000 A 
ENDBRANCH   2  10
BRANCH   3  16
ATOM     16  C   UNL d   1      14.176  12.307  -1.526  0.00  0.00     0.023 A 
ATOM     17  C   UNL d   1      14.975  12.237  -1.361  0.00  0.00     0.002 A 
ATOM     18  C   UNL d   1      15.211  11.972  -0.619  0.00  0.00     0.000 A 
ATOM     19  C   UNL d   1      14.643  11.782  -0.052  0.00  0.00     0.000 A 
ATOM     20  C   UNL d   1      13.841  11.857  -0.230  0.00  0.00     0.000 A 
ATOM     21  C   UNL d   1      13.616  12.119  -0.968  0.00  0.00     0.002 A 
ENDBRANCH   3  16
BRANCH   6  22
ATOM     22  N   UNL d   1      13.326  14.159  -4.712  0.00  0.00    -0.285 N 
ATOM     23  C   UNL d   1      12.855  14.739  -4.372  0.00  0.00     0.108 A 
ATOM     24  C   UNL d   1      12.953  15.536  -4.580  0.00  0.00     0.142 A 
ATOM     25  O   UNL d   1      13.523  15.752  -5.128  0.00  0.00    -0.300 OA
ATOM     26  C   UNL d   1      14.003  15.159  -5.474  0.00  0.00     0.142 A 
ATOM     27  C   UNL d   1      13.905  14.371  -5.268  0.00  0.00     0.108 A 
ENDBRANCH   6  22
TORSDOF 3
ENDMDL
