MODEL 1
REMARK VINA RESULT:      34.0      0.000      0.000
REMARK  5 active torsions:
REMARK  status: ('A' for Active; 'I' for Inactive)
REMARK    1  A    between atoms: C_2  and  C_1 
REMARK    2  A    between atoms: N_5  and  C_2 
REMARK    3  A    between atoms: C_12  and  C_4 
REMARK    4  A    between atoms: C_24  and  N_9 
REMARK    5  A    between atoms: C_19  and  C_24 
ROOT
ATOM      1  N   UNL d   1      12.909  14.077  -4.124  0.00  0.00    -0.191 NA
ATOM      2  C   UNL d   1      13.081  13.309  -4.372  0.00  0.00     0.103 C 
ATOM      3  C   UNL d   1      13.252  12.544  -4.623  0.00  0.00     0.097 C 
ENDROOT
BRANCH   3   4
ATOM      4  C   UNL d   1      13.282  11.933  -4.076  0.00  0.00     0.091 C 
BRANCH   4   5
ATOM      5  N   UNL d   1      13.616  12.059  -3.330  0.00  0.00    -0.299 N 
ATOM      6  C   UNL d   1      14.377  11.783  -3.173  0.00  0.00     0.100 A 
ATOM      7  C   UNL d   1      14.713  11.907  -2.430  0.00  0.00     0.100 A 
ATOM      8  N   UNL d   1      14.289  12.307  -1.846  0.00  0.00    -0.291 N 
ATOM      9  C   UNL d   1      13.527  12.585  -2.000  0.00  0.00     0.100 A 
ATOM     10  C   UNL d   1      13.193  12.459  -2.747  0.00  0.00     0.100 A 
BRANCH   8  11
ATOM     11  C   UNL d   1      14.626  12.428  -1.110  0.00  0.00     0.143 C 
ATOM     12  S   UNL d   1      14.829  11.784  -0.637  0.00  0.00    -0.057 SA
BRANCH  11  13
ATOM     13  C   UNL d   1      14.766  13.195  -0.837  0.00  0.00     0.126 A 
ATOM     14  O   UNL d   1      14.832  13.873  -1.300  0.00  0.00    -0.305 OA
ATOM     15  C   UNL d   1      14.971  14.518  -0.801  0.00  0.00     0.100 A 
ATOM     16  C   UNL d   1      14.990  14.231  -0.025  0.00  0.00     0.027 A 
ATOM     17  C   UNL d   1      14.864  13.416  -0.050  0.00  0.00     0.029 A 
BRANCH  15  18
ATOM     18  C   UNL d   1      15.073  15.303  -1.030  0.00  0.00     0.023 A 
ATOM     19  C   UNL d   1      14.868  15.536  -1.789  0.00  0.00     0.003 A 
ATOM     20  C   UNL d   1      14.968  16.318  -2.021  0.00  0.00     0.011 A 
ATOM     21  C   UNL d   1      15.278  16.875  -1.484  0.00  0.00     0.058 A 
ATOM     22  C   UNL d   1      15.483  16.632  -0.716  0.00  0.00     0.011 A 
ATOM     23 CL   UNL d   1      15.380  17.660  -1.710  0.00  0.00    -0.082 Cl
ATOM     24  C   UNL d   1      15.379  15.845  -0.492  0.00  0.00     0.003 A 
ENDBRANCH  15  18
ENDBRANCH  11  13
ENDBRANCH   8  11
ENDBRANCH   4   5
ENDBRANCH   3   4
TORSDOF 5
ENDMDL
