MODEL 1
REMARK VINA RESULT:      18.0      0.000      0.000
REMARK  4 active torsions:
REMARK  status: ('A' for Active; 'I' for Inactive)
REMARK    1  A    between atoms: C_7  and  C_2 
REMARK    2  A    between atoms: C_6  and  C_3 
REMARK    3  A    between atoms: C_11  and  C_6 
REMARK    4  A    between atoms: N_10  and  C_9 
ROOT
ATOM      1  N   UNL d   1      45.844 -14.005  44.190  0.00  0.00    -0.220 NA
ATOM      2  C   UNL d   1      45.245 -13.492  43.931  0.00  0.00     0.161 A 
ATOM      3  C   UNL d   1      45.481 -14.622  44.601  0.00  0.00     0.146 A 
ATOM      4  O   UNL d   1      44.520 -13.800  44.186  0.00  0.00    -0.257 OA
ATOM      5  C   UNL d   1      44.666 -14.496  44.599  0.00  0.00     0.319 A 
ATOM      6  O   UNL d   1      44.101 -14.990  44.953  0.00  0.00    -0.257 OA
ENDROOT
BRANCH   3   7
ATOM      7  C   UNL d   1      45.870 -15.258  44.955  0.00  0.00     0.025 C 
BRANCH   7   8
ATOM      8  C   UNL d   1      45.952 -15.979  44.543  0.00  0.00     0.002 A 
ATOM      9  C   UNL d   1      45.830 -16.686  44.938  0.00  0.00     0.002 A 
ATOM     10  C   UNL d   1      45.908 -17.400  44.544  0.00  0.00     0.018 A 
ATOM     11  C   UNL d   1      46.113 -17.401  43.737  0.00  0.00     0.064 A 
ATOM     12  C   UNL d   1      46.236 -16.686  43.340  0.00  0.00     0.018 A 
ATOM     13  C   UNL d   1      46.156 -15.977  43.743  0.00  0.00     0.002 A 
BRANCH  11  14
ATOM     14  N   UNL d   1      46.193 -18.109  43.334  0.00  0.00    -0.301 N 
ATOM     15  C   UNL d   1      46.397 -18.798  43.735  0.00  0.00     0.100 C 
ATOM     16  C   UNL d   1      46.069 -18.131  42.516  0.00  0.00     0.100 C 
ENDBRANCH  11  14
ENDBRANCH   7   8
ENDBRANCH   3   7
BRANCH   2  17
ATOM     17  C   UNL d   1      45.355 -12.808  43.503  0.00  0.00     0.058 C 
ATOM     18  C   UNL d   1      45.109 -12.763  42.727  0.00  0.00     0.008 C 
ATOM     19  C   UNL d   1      45.429 -12.159  43.008  0.00  0.00     0.008 C 
ATOM     20  C   UNL d   1      45.717 -12.156  43.856  0.00  0.00     0.008 C 
ENDBRANCH   2  17
TORSDOF 4
ENDMDL
MODEL 2
REMARK VINA RESULT:      20.1      1.015      4.167
REMARK  4 active torsions:
REMARK  status: ('A' for Active; 'I' for Inactive)
REMARK    1  A    between atoms: C_7  and  C_2 
REMARK    2  A    between atoms: C_6  and  C_3 
REMARK    3  A    between atoms: C_11  and  C_6 
REMARK    4  A    between atoms: N_10  and  C_9 
ROOT
ATOM      1  N   UNL d   1      46.410 -16.786  44.169  0.00  0.00    -0.220 NA
ATOM      2  C   UNL d   1      45.996 -17.454  43.903  0.00  0.00     0.161 A 
ATOM      3  C   UNL d   1      45.878 -16.317  44.592  0.00  0.00     0.146 A 
ATOM      4  O   UNL d   1      45.214 -17.389  44.166  0.00  0.00    -0.257 OA
ATOM      5  C   UNL d   1      45.142 -16.688  44.590  0.00  0.00     0.319 A 
ATOM      6  O   UNL d   1      44.455 -16.397  44.955  0.00  0.00    -0.257 OA
ENDROOT
BRANCH   3   7
ATOM      7  C   UNL d   1      46.055 -15.597  44.955  0.00  0.00     0.025 C 
BRANCH   7   8
ATOM      8  C   UNL d   1      45.833 -14.880  44.592  0.00  0.00     0.002 A 
ATOM      9  C   UNL d   1      45.132 -14.517  44.810  0.00  0.00     0.002 A 
ATOM     10  C   UNL d   1      44.903 -13.813  44.460  0.00  0.00     0.018 A 
ATOM     11  C   UNL d   1      45.391 -13.468  43.880  0.00  0.00     0.064 A 
ATOM     12  C   UNL d   1      46.099 -13.836  43.661  0.00  0.00     0.018 A 
ATOM     13  C   UNL d   1      46.318 -14.540  44.017  0.00  0.00     0.002 A 
BRANCH  11  14
ATOM     14  N   UNL d   1      45.171 -12.763  43.524  0.00  0.00    -0.301 N 
ATOM     15  C   UNL d   1      45.671 -12.111  43.545  0.00  0.00     0.100 C 
ATOM     16  C   UNL d   1      44.440 -12.708  43.140  0.00  0.00     0.100 C 
ENDBRANCH  11  14
ENDBRANCH   7   8
ENDBRANCH   3   7
BRANCH   2  17
ATOM     17  C   UNL d   1      46.307 -18.064  43.462  0.00  0.00     0.058 C 
ATOM     18  C   UNL d   1      46.442 -17.970  42.664  0.00  0.00     0.008 C 
ATOM     19  C   UNL d   1      46.616 -18.628  42.954  0.00  0.00     0.008 C 
ATOM     20  C   UNL d   1      46.487 -18.783  43.826  0.00  0.00     0.008 C 
ENDBRANCH   2  17
TORSDOF 4
ENDMDL
