MODEL 1
REMARK VINA RESULT:      14.6      0.000      0.000
REMARK  2 active torsions:
REMARK  status: ('A' for Active; 'I' for Inactive)
REMARK    1  A    between atoms: N_4  and  C_2 
REMARK       I    between atoms: C_3  and  N_4 
REMARK    2  A    between atoms: C_5  and  C_3 
ROOT
ATOM      1  C   UNL d   1      46.154 -12.739  44.560  0.00  0.00     0.282 C 
ATOM      2  N   UNL d   1      46.271 -13.456  44.955  0.00  0.00    -0.182 NA
ATOM      3  O   UNL d   1      46.606 -12.080  44.774  0.00  0.00    -0.265 OA
ENDROOT
BRANCH   1   4
ATOM      4  C   UNL d   1      45.587 -12.694  43.958  0.00  0.00     0.069 A 
ATOM      5  C   UNL d   1      45.813 -12.409  43.224  0.00  0.00     0.063 A 
ATOM      6  C   UNL d   1      45.251 -12.362  42.620  0.00  0.00     0.023 A 
ATOM      7 CL   UNL d   1      46.582 -12.170  43.079  0.00  0.00    -0.082 Cl
ATOM      8  C   UNL d   1      44.473 -12.602  42.763  0.00  0.00     0.059 A 
ATOM      9  C   UNL d   1      44.260 -12.885  43.501  0.00  0.00     0.012 A 
ATOM     10 CL   UNL d   1      43.907 -12.552  42.146  0.00  0.00    -0.082 Cl
ATOM     11  C   UNL d   1      44.825 -12.928  44.094  0.00  0.00     0.006 A 
ENDBRANCH   1   4
BRANCH   2  12
ATOM     12  C   UNL d   1      45.826 -14.115  44.747  0.00  0.00     0.204 A 
ATOM     13  N   UNL d   1      46.097 -14.763  44.309  0.00  0.00    -0.203 NA
ATOM     14  C   UNL d   1      45.468 -15.304  44.226  0.00  0.00     0.174 A 
ATOM     15  S   UNL d   1      44.816 -14.974  44.620  0.00  0.00    -0.018 SA
ATOM     16  S   UNL d   1      45.494 -16.026  43.829  0.00  0.00    -0.050 SA
ATOM     17  S   UNL d   1      45.037 -14.217  44.954  0.00  0.00    -0.010 SA
ENDBRANCH   2  12
TORSDOF 2
ENDMDL
