MODEL 1
REMARK VINA RESULT:      -8.0      0.000      0.000
REMARK  3 active torsions:
REMARK  status: ('A' for Active; 'I' for Inactive)
REMARK    1  A    between atoms: S_9  and  C_2 
REMARK    2  A    between atoms: C_8  and  C_3 
REMARK    3  A    between atoms: C_10  and  S_9 
ROOT
ATOM      1  N   UNL d   1      52.863  36.052  54.748  0.00  0.00    -0.195 NA
ATOM      2  C   UNL d   1      53.012  35.317  54.407  0.00  0.00     0.086 C 
ATOM      3  C   UNL d   1      53.159  34.585  54.061  0.00  0.00     0.169 C 
ENDROOT
BRANCH   3   4
ATOM      4  S   UNL d   1      53.520  33.999  54.500  0.00  0.00    -0.072 SA
BRANCH   4   5
ATOM      5  C   UNL d   1      53.723  33.282  54.155  0.00  0.00     0.137 A 
ATOM      6  N   UNL d   1      53.256  32.599  54.119  0.00  0.00    -0.232 NA
ATOM      7  C   UNL d   1      53.679  32.021  53.726  0.00  0.00     0.089 A 
ATOM      8  C   UNL d   1      54.405  32.335  53.516  0.00  0.00     0.057 A 
ATOM      9  S   UNL d   1      54.438  33.111  53.777  0.00  0.00    -0.060 SA
BRANCH   7  10
ATOM     10  C   UNL d   1      53.420  31.254  53.567  0.00  0.00     0.018 A 
ATOM     11  C   UNL d   1      52.926  31.127  52.922  0.00  0.00     0.002 A 
ATOM     12  C   UNL d   1      52.667  30.360  52.763  0.00  0.00     0.000 A 
ATOM     13  C   UNL d   1      52.900  29.729  53.244  0.00  0.00     0.000 A 
ATOM     14  C   UNL d   1      53.399  29.875  53.892  0.00  0.00     0.000 A 
ATOM     15  C   UNL d   1      53.656  30.644  54.047  0.00  0.00     0.002 A 
ENDBRANCH   7  10
ENDBRANCH   4   5
ENDBRANCH   3   4
TORSDOF 3
ENDMDL
MODEL 2
REMARK VINA RESULT:      -7.4      2.071      3.024
REMARK  3 active torsions:
REMARK  status: ('A' for Active; 'I' for Inactive)
REMARK    1  A    between atoms: S_9  and  C_2 
REMARK    2  A    between atoms: C_8  and  C_3 
REMARK    3  A    between atoms: C_10  and  S_9 
ROOT
ATOM      1  N   UNL d   1      49.505  34.726  52.612  0.00  0.00    -0.195 NA
ATOM      2  C   UNL d   1      50.260  34.399  52.650  0.00  0.00     0.086 C 
ATOM      3  C   UNL d   1      51.016  34.076  52.683  0.00  0.00     0.169 C 
ENDROOT
BRANCH   3   4
ATOM      4  S   UNL d   1      51.161  33.444  53.179  0.00  0.00    -0.072 SA
BRANCH   4   5
ATOM      5  C   UNL d   1      51.929  33.192  53.323  0.00  0.00     0.137 A 
ATOM      6  N   UNL d   1      52.470  33.525  53.856  0.00  0.00    -0.232 NA
ATOM      7  C   UNL d   1      53.164  33.097  53.816  0.00  0.00     0.089 A 
ATOM      8  C   UNL d   1      53.065  32.500  53.264  0.00  0.00     0.057 A 
ATOM      9  S   UNL d   1      52.307  32.555  52.958  0.00  0.00    -0.060 SA
BRANCH   7  10
ATOM     10  C   UNL d   1      53.848  33.240  54.255  0.00  0.00     0.018 A 
ATOM     11  C   UNL d   1      54.555  33.369  53.857  0.00  0.00     0.002 A 
ATOM     12  C   UNL d   1      55.240  33.512  54.295  0.00  0.00     0.000 A 
ATOM     13  C   UNL d   1      55.215  33.525  55.122  0.00  0.00     0.000 A 
ATOM     14  C   UNL d   1      54.491  33.393  55.508  0.00  0.00     0.000 A 
ATOM     15  C   UNL d   1      53.809  33.250  55.066  0.00  0.00     0.002 A 
ENDBRANCH   7  10
ENDBRANCH   4   5
ENDBRANCH   3   4
TORSDOF 3
ENDMDL
MODEL 3
REMARK VINA RESULT:      -7.4      2.123      3.082
REMARK  3 active torsions:
REMARK  status: ('A' for Active; 'I' for Inactive)
REMARK    1  A    between atoms: S_9  and  C_2 
REMARK    2  A    between atoms: C_8  and  C_3 
REMARK    3  A    between atoms: C_10  and  S_9 
ROOT
ATOM      1  N   UNL d   1      55.581  34.008  55.470  0.00  0.00    -0.195 NA
ATOM      2  C   UNL d   1      54.933  33.595  55.173  0.00  0.00     0.086 C 
ATOM      3  C   UNL d   1      54.283  33.183  54.882  0.00  0.00     0.169 C 
ENDROOT
BRANCH   3   4
ATOM      4  S   UNL d   1      54.273  32.948  54.101  0.00  0.00    -0.072 SA
BRANCH   4   5
ATOM      5  C   UNL d   1      53.563  32.861  53.698  0.00  0.00     0.137 A 
ATOM      6  N   UNL d   1      52.992  33.448  53.566  0.00  0.00    -0.232 NA
ATOM      7  C   UNL d   1      52.378  33.115  53.143  0.00  0.00     0.089 A 
ATOM      8  C   UNL d   1      52.558  32.328  53.007  0.00  0.00     0.057 A 
ATOM      9  S   UNL d   1      53.286  32.167  53.347  0.00  0.00    -0.060 SA
BRANCH   7  10
ATOM     10  C   UNL d   1      51.695  33.504  52.893  0.00  0.00     0.018 A 
ATOM     11  C   UNL d   1      51.722  33.952  52.204  0.00  0.00     0.002 A 
ATOM     12  C   UNL d   1      51.039  34.341  51.954  0.00  0.00     0.000 A 
ATOM     13  C   UNL d   1      50.338  34.282  52.389  0.00  0.00     0.000 A 
ATOM     14  C   UNL d   1      50.328  33.826  53.083  0.00  0.00     0.000 A 
ATOM     15  C   UNL d   1      51.014  33.438  53.329  0.00  0.00     0.002 A 
ENDBRANCH   7  10
ENDBRANCH   4   5
ENDBRANCH   3   4
TORSDOF 3
ENDMDL
MODEL 4
REMARK VINA RESULT:      -7.4      1.579      3.947
REMARK  3 active torsions:
REMARK  status: ('A' for Active; 'I' for Inactive)
REMARK    1  A    between atoms: S_9  and  C_2 
REMARK    2  A    between atoms: C_8  and  C_3 
REMARK    3  A    between atoms: C_10  and  S_9 
ROOT
ATOM      1  N   UNL d   1      53.361  28.728  54.645  0.00  0.00    -0.195 NA
ATOM      2  C   UNL d   1      53.252  29.378  54.151  0.00  0.00     0.086 C 
ATOM      3  C   UNL d   1      53.137  30.024  53.654  0.00  0.00     0.169 C 
ENDROOT
BRANCH   3   4
ATOM      4  S   UNL d   1      53.598  30.691  53.751  0.00  0.00    -0.072 SA
BRANCH   4   5
ATOM      5  C   UNL d   1      53.311  31.431  53.544  0.00  0.00     0.137 A 
ATOM      6  N   UNL d   1      53.437  32.144  53.949  0.00  0.00    -0.232 NA
ATOM      7  C   UNL d   1      53.049  32.738  53.545  0.00  0.00     0.089 A 
ATOM      8  C   UNL d   1      52.682  32.407  52.893  0.00  0.00     0.057 A 
ATOM      9  S   UNL d   1      52.840  31.603  52.888  0.00  0.00    -0.060 SA
BRANCH   7  10
ATOM     10  C   UNL d   1      53.030  33.536  53.757  0.00  0.00     0.018 A 
ATOM     11  C   UNL d   1      52.672  34.073  53.248  0.00  0.00     0.002 A 
ATOM     12  C   UNL d   1      52.653  34.870  53.459  0.00  0.00     0.000 A 
ATOM     13  C   UNL d   1      52.988  35.125  54.171  0.00  0.00     0.000 A 
ATOM     14  C   UNL d   1      53.345  34.569  54.674  0.00  0.00     0.000 A 
ATOM     15  C   UNL d   1      53.362  33.772  54.459  0.00  0.00     0.002 A 
ENDBRANCH   7  10
ENDBRANCH   4   5
ENDBRANCH   3   4
TORSDOF 3
ENDMDL
MODEL 5
REMARK VINA RESULT:      -6.9      2.059      2.205
REMARK  3 active torsions:
REMARK  status: ('A' for Active; 'I' for Inactive)
REMARK    1  A    between atoms: S_9  and  C_2 
REMARK    2  A    between atoms: C_8  and  C_3 
REMARK    3  A    between atoms: C_10  and  S_9 
ROOT
ATOM      1  N   UNL d   1      49.339  34.842  52.090  0.00  0.00    -0.195 NA
ATOM      2  C   UNL d   1      49.962  34.500  52.507  0.00  0.00     0.086 C 
ATOM      3  C   UNL d   1      50.580  34.156  52.929  0.00  0.00     0.169 C 
ENDROOT
BRANCH   3   4
ATOM      4  S   UNL d   1      51.322  34.119  52.592  0.00  0.00    -0.072 SA
BRANCH   4   5
ATOM      5  C   UNL d   1      51.910  33.652  52.925  0.00  0.00     0.137 A 
ATOM      6  N   UNL d   1      52.023  32.839  52.809  0.00  0.00    -0.232 NA
ATOM      7  C   UNL d   1      52.672  32.607  53.248  0.00  0.00     0.089 A 
ATOM      8  C   UNL d   1      52.966  33.265  53.637  0.00  0.00     0.057 A 
ATOM      9  S   UNL d   1      52.500  33.910  53.442  0.00  0.00    -0.060 SA
BRANCH   7  10
ATOM     10  C   UNL d   1      52.979  31.842  53.292  0.00  0.00     0.018 A 
ATOM     11  C   UNL d   1      52.552  31.224  52.958  0.00  0.00     0.002 A 
ATOM     12  C   UNL d   1      52.858  30.459  53.001  0.00  0.00     0.000 A 
ATOM     13  C   UNL d   1      53.583  30.316  53.374  0.00  0.00     0.000 A 
ATOM     14  C   UNL d   1      54.001  30.953  53.706  0.00  0.00     0.000 A 
ATOM     15  C   UNL d   1      53.690  31.716  53.660  0.00  0.00     0.002 A 
ENDBRANCH   7  10
ENDBRANCH   4   5
ENDBRANCH   3   4
TORSDOF 3
ENDMDL
