MODEL 1
REMARK VINA RESULT:       8.5      0.000      0.000
REMARK  2 active torsions:
REMARK  status: ('A' for Active; 'I' for Inactive)
REMARK    1  A    between atoms: C_6  and  C_4 
REMARK    2  A    between atoms: C_7  and  C_6 
ROOT
ATOM      1  N   UNL d   1     -52.302  24.524  33.306  0.00  0.00    -0.163 NA
ATOM      2  C   UNL d   1     -52.224  25.342  33.319  0.00  0.00     0.288 A 
ATOM      3  C   UNL d   1     -51.544  24.197  33.318  0.00  0.00     0.313 A 
ATOM      4  C   UNL d   1     -51.419  25.524  33.339  0.00  0.00     0.098 A 
ATOM      5  S   UNL d   1     -50.998  24.813  33.338  0.00  0.00    -0.020 SA
ATOM      6  O   UNL d   1     -52.835  25.889  33.314  0.00  0.00    -0.265 OA
ATOM      7  O   UNL d   1     -51.366  23.392  33.310  0.00  0.00    -0.258 OA
ENDROOT
BRANCH   4   8
ATOM      8  C   UNL d   1     -50.781  26.052  33.359  0.00  0.00     0.075 C 
ATOM      9  C   UNL d   1     -50.009  25.773  33.412  0.00  0.00     0.007 C 
BRANCH   8  10
ATOM     10  C   UNL d   1     -50.917  26.866  33.327  0.00  0.00     0.211 C 
ATOM     11  O   UNL d   1     -50.278  27.387  33.311  0.00  0.00    -0.644 OA
ATOM     12  O   UNL d   1     -51.684  27.161  33.312  0.00  0.00    -0.644 OA
ENDBRANCH   8  10
ENDBRANCH   4   8
TORSDOF 2
ENDMDL
