MODEL 1
REMARK VINA RESULT:      -9.2      0.000      0.000
REMARK  1 active torsions:
REMARK  status: ('A' for Active; 'I' for Inactive)
REMARK    1  A    between atoms: C_7  and  C_6 
ROOT
ATOM      1  C   UNL d   1     -47.559  12.668  22.813  0.00  0.00     0.045 A 
ATOM      2  C   UNL d   1     -47.789  13.303  22.339  0.00  0.00     0.196 A 
ATOM      3  C   UNL d   1     -48.180  12.127  22.862  0.00  0.00     0.003 A 
ATOM      4  C   UNL d   1     -48.564  13.152  22.092  0.00  0.00     0.039 A 
ATOM      5  C   UNL d   1     -48.803  12.433  22.412  0.00  0.00     0.003 A 
ATOM      6  C   UNL d   1     -46.845  12.510  23.215  0.00  0.00     0.068 A 
ATOM      7  O   UNL d   1     -47.337  13.960  22.148  0.00  0.00    -0.287 OA
ATOM      8  C   UNL d   1     -48.097  11.441  23.303  0.00  0.00     0.000 A 
ATOM      9  C   UNL d   1     -49.084  13.581  21.613  0.00  0.00     0.003 A 
ATOM     10  C   UNL d   1     -49.562  12.144  22.252  0.00  0.00     0.000 A 
ATOM     11  C   UNL d   1     -46.763  11.820  23.658  0.00  0.00     0.006 A 
ATOM     12  C   UNL d   1     -47.399  11.284  23.698  0.00  0.00     0.000 A 
ATOM     13  C   UNL d   1     -49.836  13.292  21.457  0.00  0.00     0.000 A 
ATOM     14  C   UNL d   1     -50.075  12.573  21.777  0.00  0.00     0.000 A 
ENDROOT
BRANCH   6  15
ATOM     15  C   UNL d   1     -46.224  13.051  23.166  0.00  0.00     0.211 C 
ATOM     16  O   UNL d   1     -45.652  12.959  22.577  0.00  0.00    -0.644 OA
ATOM     17  O   UNL d   1     -46.174  13.674  23.698  0.00  0.00    -0.644 OA
ENDBRANCH   6  15
TORSDOF 1
ENDMDL
MODEL 2
REMARK VINA RESULT:      -8.7      1.652      2.979
REMARK  1 active torsions:
REMARK  status: ('A' for Active; 'I' for Inactive)
REMARK    1  A    between atoms: C_7  and  C_6 
ROOT
ATOM      1  C   UNL d   1     -47.999  13.644  22.940  0.00  0.00     0.045 A 
ATOM      2  C   UNL d   1     -48.430  12.972  23.150  0.00  0.00     0.196 A 
ATOM      3  C   UNL d   1     -47.193  13.474  22.981  0.00  0.00     0.003 A 
ATOM      4  C   UNL d   1     -47.881  12.378  23.323  0.00  0.00     0.039 A 
ATOM      5  C   UNL d   1     -47.125  12.685  23.220  0.00  0.00     0.003 A 
ATOM      6  C   UNL d   1     -48.246  14.408  22.711  0.00  0.00     0.068 A 
ATOM      7  O   UNL d   1     -49.247  12.904  23.181  0.00  0.00    -0.287 OA
ATOM      8  C   UNL d   1     -46.639  14.049  22.799  0.00  0.00     0.000 A 
ATOM      9  C   UNL d   1     -47.976  11.592  23.563  0.00  0.00     0.003 A 
ATOM     10  C   UNL d   1     -46.465  12.205  23.357  0.00  0.00     0.000 A 
ATOM     11  C   UNL d   1     -47.687  14.985  22.528  0.00  0.00     0.006 A 
ATOM     12  C   UNL d   1     -46.877  14.799  22.574  0.00  0.00     0.000 A 
ATOM     13  C   UNL d   1     -47.319  11.120  23.698  0.00  0.00     0.000 A 
ATOM     14  C   UNL d   1     -46.563  11.426  23.595  0.00  0.00     0.000 A 
ENDROOT
BRANCH   6  15
ATOM     15  C   UNL d   1     -49.052  14.579  22.670  0.00  0.00     0.211 C 
ATOM     16  O   UNL d   1     -49.458  14.447  21.962  0.00  0.00    -0.644 OA
ATOM     17  O   UNL d   1     -49.446  14.876  23.325  0.00  0.00    -0.644 OA
ENDBRANCH   6  15
TORSDOF 1
ENDMDL
MODEL 3
REMARK VINA RESULT:      -8.6      1.347      2.839
REMARK  1 active torsions:
REMARK  status: ('A' for Active; 'I' for Inactive)
REMARK    1  A    between atoms: C_7  and  C_6 
ROOT
ATOM      1  C   UNL d   1     -48.877  12.709  22.750  0.00  0.00     0.045 A 
ATOM      2  C   UNL d   1     -48.494  13.328  22.361  0.00  0.00     0.196 A 
ATOM      3  C   UNL d   1     -48.340  12.324  23.244  0.00  0.00     0.003 A 
ATOM      4  C   UNL d   1     -47.707  13.324  22.618  0.00  0.00     0.039 A 
ATOM      5  C   UNL d   1     -47.613  12.711  23.158  0.00  0.00     0.003 A 
ATOM      6  C   UNL d   1     -49.667  12.442  22.717  0.00  0.00     0.068 A 
ATOM      7  O   UNL d   1     -48.827  13.848  21.821  0.00  0.00    -0.287 OA
ATOM      8  C   UNL d   1     -48.579  11.685  23.698  0.00  0.00     0.000 A 
ATOM      9  C   UNL d   1     -47.062  13.805  22.427  0.00  0.00     0.003 A 
ATOM     10  C   UNL d   1     -46.874  12.580  23.506  0.00  0.00     0.000 A 
ATOM     11  C   UNL d   1     -49.906  11.799  23.174  0.00  0.00     0.006 A 
ATOM     12  C   UNL d   1     -49.352  11.421  23.667  0.00  0.00     0.000 A 
ATOM     13  C   UNL d   1     -46.331  13.672  22.774  0.00  0.00     0.000 A 
ATOM     14  C   UNL d   1     -46.237  13.059  23.314  0.00  0.00     0.000 A 
ENDROOT
BRANCH   6  15
ATOM     15  C   UNL d   1     -50.205  12.827  22.224  0.00  0.00     0.211 C 
ATOM     16  O   UNL d   1     -50.305  12.560  21.448  0.00  0.00    -0.644 OA
ATOM     17  O   UNL d   1     -50.636  13.468  22.500  0.00  0.00    -0.644 OA
ENDBRANCH   6  15
TORSDOF 1
ENDMDL
MODEL 4
REMARK VINA RESULT:      -8.0      1.675      2.236
REMARK  1 active torsions:
REMARK  status: ('A' for Active; 'I' for Inactive)
REMARK    1  A    between atoms: C_7  and  C_6 
ROOT
ATOM      1  C   UNL d   1     -48.233  12.849  22.910  0.00  0.00     0.045 A 
ATOM      2  C   UNL d   1     -49.018  13.035  22.735  0.00  0.00     0.196 A 
ATOM      3  C   UNL d   1     -47.790  13.545  22.942  0.00  0.00     0.003 A 
ATOM      4  C   UNL d   1     -49.060  13.858  22.658  0.00  0.00     0.039 A 
ATOM      5  C   UNL d   1     -48.310  14.169  22.785  0.00  0.00     0.003 A 
ATOM      6  C   UNL d   1     -47.857  12.117  23.046  0.00  0.00     0.068 A 
ATOM      7  O   UNL d   1     -49.640  12.507  22.653  0.00  0.00    -0.287 OA
ATOM      8  C   UNL d   1     -46.988  13.517  23.107  0.00  0.00     0.000 A 
ATOM      9  C   UNL d   1     -49.692  14.365  22.488  0.00  0.00     0.003 A 
ATOM     10  C   UNL d   1     -48.191  14.987  22.741  0.00  0.00     0.000 A 
ATOM     11  C   UNL d   1     -47.050  12.091  23.212  0.00  0.00     0.006 A 
ATOM     12  C   UNL d   1     -46.617  12.801  23.241  0.00  0.00     0.000 A 
ATOM     13  C   UNL d   1     -49.570  15.175  22.446  0.00  0.00     0.000 A 
ATOM     14  C   UNL d   1     -48.820  15.486  22.572  0.00  0.00     0.000 A 
ENDROOT
BRANCH   6  15
ATOM     15  C   UNL d   1     -48.300  11.422  23.014  0.00  0.00     0.211 C 
ATOM     16  O   UNL d   1     -48.413  11.046  22.287  0.00  0.00    -0.644 OA
ATOM     17  O   UNL d   1     -48.625  11.106  23.698  0.00  0.00    -0.644 OA
ENDBRANCH   6  15
TORSDOF 1
ENDMDL
