MODEL 1
REMARK VINA RESULT:       2.2      0.000      0.000
REMARK  4 active torsions:
REMARK  status: ('A' for Active; 'I' for Inactive)
REMARK    1  A    between atoms: N_9  and  C_3 
REMARK    2  A    between atoms: C_11  and  C_4 
REMARK    3  A    between atoms: C_15  and  C_10 
REMARK    4  A    between atoms: C_20  and  C_15 
ROOT
ATOM      1  N   UNL d   1      58.726  -0.294  30.496  0.00  0.00    -0.196 N 
ATOM      2  C   UNL d   1      58.038  -0.606  30.859  0.00  0.00     0.167 A 
ATOM      3  C   UNL d   1      58.995  -0.642  29.820  0.00  0.00     0.153 A 
ATOM      4  C   UNL d   1      57.751  -0.273  31.537  0.00  0.00     0.057 A 
ATOM      5  N   UNL d   1      58.808   0.678  31.516  0.00  0.00    -0.161 NA
ATOM      6  N   UNL d   1      57.658  -1.248  30.525  0.00  0.00    -0.227 NA
ATOM      7  C   UNL d   1      58.622  -1.286  29.476  0.00  0.00     0.057 A 
ATOM      8  C   UNL d   1      58.131   0.371  31.873  0.00  0.00     0.124 A 
ATOM      9  C   UNL d   1      57.945  -1.593  29.834  0.00  0.00     0.086 A 
ENDROOT
BRANCH   3  10
ATOM     10  N   UNL d   1      59.695  -0.325  29.451  0.00  0.00    -0.285 N 
ATOM     11  C   UNL d   1      59.644   0.370  28.957  0.00  0.00     0.108 A 
ATOM     12  C   UNL d   1      60.340   0.678  28.595  0.00  0.00     0.142 A 
ATOM     13  O   UNL d   1      61.096   0.301  28.717  0.00  0.00    -0.300 OA
ATOM     14  C   UNL d   1      61.133  -0.390  29.210  0.00  0.00     0.142 A 
ATOM     15  C   UNL d   1      60.441  -0.703  29.575  0.00  0.00     0.108 A 
ENDBRANCH   3  10
BRANCH   9  16
ATOM     16  C   UNL d   1      57.545  -2.263  29.489  0.00  0.00     0.019 C 
BRANCH  16  17
ATOM     17  C   UNL d   1      57.987  -2.917  29.180  0.00  0.00     0.002 C 
ATOM     18  C   UNL d   1      57.737  -3.324  28.478  0.00  0.00     0.000 C 
ENDBRANCH  16  17
ENDBRANCH   9  16
BRANCH   4  19
ATOM     19  C   UNL d   1      57.069  -0.590  31.887  0.00  0.00     0.004 A 
ATOM     20  C   UNL d   1      56.431  -0.095  32.018  0.00  0.00     0.000 A 
ATOM     21  C   UNL d   1      55.747  -0.399  32.366  0.00  0.00     0.000 A 
ATOM     22  C   UNL d   1      55.716  -1.192  32.574  0.00  0.00     0.000 A 
ATOM     23  C   UNL d   1      56.350  -1.670  32.440  0.00  0.00     0.000 A 
ATOM     24  C   UNL d   1      57.034  -1.366  32.092  0.00  0.00     0.000 A 
ENDBRANCH   4  19
TORSDOF 4
ENDMDL
MODEL 2
REMARK VINA RESULT:       2.4      1.879      4.368
REMARK  4 active torsions:
REMARK  status: ('A' for Active; 'I' for Inactive)
REMARK    1  A    between atoms: N_9  and  C_3 
REMARK    2  A    between atoms: C_11  and  C_4 
REMARK    3  A    between atoms: C_15  and  C_10 
REMARK    4  A    between atoms: C_20  and  C_15 
ROOT
ATOM      1  N   UNL d   1      57.557  -0.663  31.129  0.00  0.00    -0.196 N 
ATOM      2  C   UNL d   1      58.202  -0.765  30.605  0.00  0.00     0.167 A 
ATOM      3  C   UNL d   1      57.630  -0.129  31.728  0.00  0.00     0.153 A 
ATOM      4  C   UNL d   1      58.151  -1.296  29.997  0.00  0.00     0.057 A 
ATOM      5  N   UNL d   1      56.832  -1.636  30.406  0.00  0.00    -0.161 NA
ATOM      6  N   UNL d   1      58.884  -0.327  30.710  0.00  0.00    -0.227 NA
ATOM      7  C   UNL d   1      58.309   0.316  31.843  0.00  0.00     0.057 A 
ATOM      8  C   UNL d   1      57.468  -1.737  29.890  0.00  0.00     0.124 A 
ATOM      9  C   UNL d   1      58.944   0.215  31.327  0.00  0.00     0.086 A 
ENDROOT
BRANCH   3  10
ATOM     10  N   UNL d   1      56.973  -0.025  32.261  0.00  0.00    -0.285 N 
ATOM     11  C   UNL d   1      56.896  -0.522  32.952  0.00  0.00     0.108 A 
ATOM     12  C   UNL d   1      56.243  -0.414  33.475  0.00  0.00     0.142 A 
ATOM     13  O   UNL d   1      55.660   0.190  33.321  0.00  0.00    -0.300 OA
ATOM     14  C   UNL d   1      55.748   0.678  32.632  0.00  0.00     0.142 A 
ATOM     15  C   UNL d   1      56.397   0.575  32.105  0.00  0.00     0.108 A 
ENDBRANCH   3  10
BRANCH   9  16
ATOM     16  C   UNL d   1      59.658   0.671  31.433  0.00  0.00     0.019 C 
BRANCH  16  17
ATOM     17  C   UNL d   1      60.385   0.289  31.642  0.00  0.00     0.002 C 
ATOM     18  C   UNL d   1      61.133   0.675  31.524  0.00  0.00     0.000 C 
ENDBRANCH  16  17
ENDBRANCH   9  16
BRANCH   4  19
ATOM     19  C   UNL d   1      58.797  -1.388  29.485  0.00  0.00     0.004 A 
ATOM     20  C   UNL d   1      59.173  -2.114  29.457  0.00  0.00     0.000 A 
ATOM     21  C   UNL d   1      59.817  -2.218  28.951  0.00  0.00     0.000 A 
ATOM     22  C   UNL d   1      60.071  -1.594  28.484  0.00  0.00     0.000 A 
ATOM     23  C   UNL d   1      59.693  -0.884  28.519  0.00  0.00     0.000 A 
ATOM     24  C   UNL d   1      59.049  -0.780  29.025  0.00  0.00     0.000 A 
ENDBRANCH   4  19
TORSDOF 4
ENDMDL
MODEL 3
REMARK VINA RESULT:       3.9      1.485      2.698
REMARK  4 active torsions:
REMARK  status: ('A' for Active; 'I' for Inactive)
REMARK    1  A    between atoms: N_9  and  C_3 
REMARK    2  A    between atoms: C_11  and  C_4 
REMARK    3  A    between atoms: C_15  and  C_10 
REMARK    4  A    between atoms: C_20  and  C_15 
ROOT
ATOM      1  N   UNL d   1      57.475  -1.310  30.974  0.00  0.00    -0.196 N 
ATOM      2  C   UNL d   1      57.293  -0.784  31.600  0.00  0.00     0.167 A 
ATOM      3  C   UNL d   1      58.127  -1.160  30.523  0.00  0.00     0.153 A 
ATOM      4  C   UNL d   1      56.645  -0.915  32.065  0.00  0.00     0.057 A 
ATOM      5  N   UNL d   1      56.342  -2.083  31.311  0.00  0.00    -0.161 NA
ATOM      6  N   UNL d   1      57.772  -0.137  31.739  0.00  0.00    -0.227 NA
ATOM      7  C   UNL d   1      58.614  -0.514  30.653  0.00  0.00     0.057 A 
ATOM      8  C   UNL d   1      56.163  -1.564  31.927  0.00  0.00     0.124 A 
ATOM      9  C   UNL d   1      58.435   0.004  31.269  0.00  0.00     0.086 A 
ENDROOT
BRANCH   3  10
ATOM     10  N   UNL d   1      58.312  -1.695  29.886  0.00  0.00    -0.285 N 
ATOM     11  C   UNL d   1      58.007  -1.552  29.101  0.00  0.00     0.108 A 
ATOM     12  C   UNL d   1      58.195  -2.086  28.476  0.00  0.00     0.142 A 
ATOM     13  O   UNL d   1      58.687  -2.769  28.621  0.00  0.00    -0.300 OA
ATOM     14  C   UNL d   1      58.983  -2.899  29.406  0.00  0.00     0.142 A 
ATOM     15  C   UNL d   1      58.800  -2.370  30.035  0.00  0.00     0.108 A 
ENDBRANCH   3  10
BRANCH   9  16
ATOM     16  C   UNL d   1      58.932   0.681  31.418  0.00  0.00     0.019 C 
BRANCH  16  17
ATOM     17  C   UNL d   1      59.746   0.579  31.631  0.00  0.00     0.002 C 
ATOM     18  C   UNL d   1      60.362   0.625  31.048  0.00  0.00     0.000 C 
ENDBRANCH  16  17
ENDBRANCH   9  16
BRANCH   4  19
ATOM     19  C   UNL d   1      56.475  -0.387  32.682  0.00  0.00     0.004 A 
ATOM     20  C   UNL d   1      55.862   0.146  32.582  0.00  0.00     0.000 A 
ATOM     21  C   UNL d   1      55.684   0.676  33.188  0.00  0.00     0.000 A 
ATOM     22  C   UNL d   1      56.122   0.663  33.881  0.00  0.00     0.000 A 
ATOM     23  C   UNL d   1      56.723   0.134  33.968  0.00  0.00     0.000 A 
ATOM     24  C   UNL d   1      56.901  -0.396  33.362  0.00  0.00     0.000 A 
ENDBRANCH   4  19
TORSDOF 4
ENDMDL
MODEL 4
REMARK VINA RESULT:       4.3      1.667      2.954
REMARK  4 active torsions:
REMARK  status: ('A' for Active; 'I' for Inactive)
REMARK    1  A    between atoms: N_9  and  C_3 
REMARK    2  A    between atoms: C_11  and  C_4 
REMARK    3  A    between atoms: C_15  and  C_10 
REMARK    4  A    between atoms: C_20  and  C_15 
ROOT
ATOM      1  N   UNL d   1      57.604  -0.310  31.327  0.00  0.00    -0.196 N 
ATOM      2  C   UNL d   1      57.538  -0.045  32.120  0.00  0.00     0.167 A 
ATOM      3  C   UNL d   1      58.316  -0.238  30.956  0.00  0.00     0.153 A 
ATOM      4  C   UNL d   1      56.834  -0.108  32.511  0.00  0.00     0.057 A 
ATOM      5  N   UNL d   1      56.245  -0.692  31.356  0.00  0.00    -0.161 NA
ATOM      6  N   UNL d   1      58.188   0.277  32.495  0.00  0.00    -0.227 NA
ATOM      7  C   UNL d   1      58.975   0.084  31.323  0.00  0.00     0.057 A 
ATOM      8  C   UNL d   1      56.180  -0.431  32.136  0.00  0.00     0.124 A 
ATOM      9  C   UNL d   1      58.910   0.345  32.103  0.00  0.00     0.086 A 
ENDROOT
BRANCH   3  10
ATOM     10  N   UNL d   1      58.383  -0.508  30.151  0.00  0.00    -0.285 N 
ATOM     11  C   UNL d   1      58.556  -1.328  29.984  0.00  0.00     0.108 A 
ATOM     12  C   UNL d   1      58.620  -1.588  29.184  0.00  0.00     0.142 A 
ATOM     13  O   UNL d   1      58.515  -1.038  28.540  0.00  0.00    -0.300 OA
ATOM     14  C   UNL d   1      58.345  -0.226  28.719  0.00  0.00     0.142 A 
ATOM     15  C   UNL d   1      58.278   0.041  29.515  0.00  0.00     0.108 A 
ENDBRANCH   3  10
BRANCH   9  16
ATOM     16  C   UNL d   1      59.586   0.682  32.499  0.00  0.00     0.019 C 
BRANCH  16  17
ATOM     17  C   UNL d   1      60.373   0.477  32.259  0.00  0.00     0.002 C 
ATOM     18  C   UNL d   1      61.033   0.582  32.783  0.00  0.00     0.000 C 
ENDBRANCH  16  17
ENDBRANCH   9  16
BRANCH   4  19
ATOM     19  C   UNL d   1      56.781   0.158  33.295  0.00  0.00     0.004 A 
ATOM     20  C   UNL d   1      56.039   0.270  33.621  0.00  0.00     0.000 A 
ATOM     21  C   UNL d   1      55.974   0.534  34.400  0.00  0.00     0.000 A 
ATOM     22  C   UNL d   1      56.652   0.682  34.836  0.00  0.00     0.000 A 
ATOM     23  C   UNL d   1      57.377   0.569  34.505  0.00  0.00     0.000 A 
ATOM     24  C   UNL d   1      57.442   0.304  33.727  0.00  0.00     0.000 A 
ENDBRANCH   4  19
TORSDOF 4
ENDMDL
