MODEL 1
REMARK VINA RESULT:      11.0      0.000      0.000
REMARK  4 active torsions:
REMARK  status: ('A' for Active; 'I' for Inactive)
REMARK    1  A    between atoms: C_6  and  N_1 
REMARK    2  A    between atoms: C_7  and  C_6 
REMARK    3  A    between atoms: C_14  and  C_7 
REMARK    4  A    between atoms: N_10  and  C_14 
ROOT
ATOM      1  N   UNL d   1      46.621 -18.220  43.236  0.00  0.00    -0.303 N 
ATOM      2  C   UNL d   1      46.628 -18.518  42.465  0.00  0.00     0.064 A 
ATOM      3  C   UNL d   1      46.637 -19.348  42.508  0.00  0.00     0.018 A 
ATOM      4  C   UNL d   1      46.626 -18.862  43.757  0.00  0.00     0.064 A 
ATOM      5  C   UNL d   1      46.636 -19.557  43.309  0.00  0.00     0.018 A 
ATOM      6  C   UNL d   1      46.627 -18.146  41.726  0.00  0.00     0.018 A 
ATOM      7  C   UNL d   1      46.645 -19.797  41.818  0.00  0.00     0.002 A 
ATOM      8  C   UNL d   1      46.623 -18.903  44.581  0.00  0.00     0.018 A 
ATOM      9  C   UNL d   1      46.642 -20.291  43.686  0.00  0.00     0.002 A 
ATOM     10  C   UNL d   1      46.645 -19.428  41.082  0.00  0.00     0.000 A 
ATOM     11  C   UNL d   1      46.635 -18.603  41.030  0.00  0.00     0.002 A 
ATOM     12  C   UNL d   1      46.629 -19.634  44.954  0.00  0.00     0.002 A 
ATOM     13  C   UNL d   1      46.639 -20.329  44.506  0.00  0.00     0.000 A 
ENDROOT
BRANCH   1  14
ATOM     14  C   UNL d   1      46.611 -17.427  43.440  0.00  0.00     0.124 C 
BRANCH  14  15
ATOM     15  C   UNL d   1      45.909 -17.057  43.651  0.00  0.00     0.232 C 
ATOM     16  O   UNL d   1      45.196 -17.289  43.313  0.00  0.00    -0.283 OA
BRANCH  15  17
ATOM     17  C   UNL d   1      45.923 -16.449  44.209  0.00  0.00     0.142 C 
BRANCH  17  18
ATOM     18  N   UNL d   1      45.598 -15.711  44.024  0.00  0.00    -0.237 NA
ATOM     19  C   UNL d   1      45.706 -15.082  44.545  0.00  0.00     0.120 C 
ENDBRANCH  17  18
ENDBRANCH  15  17
ENDBRANCH  14  15
ENDBRANCH   1  14
TORSDOF 4
ENDMDL
