MODEL 1
REMARK VINA RESULT:      83.7      0.000      0.000
REMARK  2 active torsions:
REMARK  status: ('A' for Active; 'I' for Inactive)
REMARK    1  A    between atoms: C_8  and  C_1 
REMARK    2  A    between atoms: C_7  and  C_2 
ROOT
ATOM      1  C   UNL d   1      60.931  47.956  50.906  0.00  0.00     0.066 A 
ATOM      2  C   UNL d   1      61.230  48.142  50.161  0.00  0.00     0.174 A 
ATOM      3  C   UNL d   1      60.873  47.167  51.158  0.00  0.00     0.199 A 
ATOM      4  O   UNL d   1      61.477  47.532  49.653  0.00  0.00    -0.303 OA
ATOM      5  C   UNL d   1      61.125  46.570  50.636  0.00  0.00     0.062 A 
ATOM      6  C   UNL d   1      61.419  46.751  49.902  0.00  0.00     0.106 A 
ATOM      7  C   UNL d   1      61.670  46.152  49.383  0.00  0.00     0.067 A 
ATOM      8  C   UNL d   1      61.071  45.770  50.878  0.00  0.00     0.009 A 
ATOM      9  O   UNL d   1      60.568  46.993  51.916  0.00  0.00    -0.286 OA
ATOM     10  C   UNL d   1      61.614  45.363  49.630  0.00  0.00     0.198 A 
ATOM     11  C   UNL d   1      61.312  45.175  50.382  0.00  0.00     0.042 A 
ATOM     12  O   UNL d   1      61.858  44.781  49.125  0.00  0.00    -0.286 OA
ENDROOT
BRANCH   1  13
ATOM     13  C   UNL d   1      60.686  48.533  51.416  0.00  0.00     0.005 A 
ATOM     14  C   UNL d   1      59.935  48.840  51.390  0.00  0.00     0.000 A 
ATOM     15  C   UNL d   1      59.372  48.590  50.850  0.00  0.00     0.000 C 
ATOM     16  C   UNL d   1      59.690  49.433  51.918  0.00  0.00     0.000 A 
ATOM     17  C   UNL d   1      60.228  49.708  52.474  0.00  0.00     0.000 A 
ATOM     18  C   UNL d   1      60.994  49.406  52.513  0.00  0.00     0.000 A 
ATOM     19  C   UNL d   1      61.221  48.824  51.989  0.00  0.00     0.000 A 
ENDBRANCH   1  13
BRANCH   2  20
ATOM     20  C   UNL d   1      61.284  48.931  49.920  0.00  0.00     0.440 C 
ATOM     21  F   UNL d   1      60.777  49.164  49.386  0.00  0.00    -0.164 F 
ATOM     22  F   UNL d   1      61.292  49.706  49.644  0.00  0.00    -0.164 F 
ATOM     23  F   UNL d   1      61.899  49.468  50.270  0.00  0.00    -0.164 F 
ENDBRANCH   2  20
TORSDOF 2
ENDMDL
