MODEL 1
REMARK VINA RESULT:      -9.0      0.000      0.000
REMARK  2 active torsions:
REMARK  status: ('A' for Active; 'I' for Inactive)
REMARK    1  A    between atoms: C_7  and  C_1 
REMARK    2  A    between atoms: S_13  and  C_5 
ROOT
ATOM      1  C   UNL d   1     -48.373  13.094  22.945  0.00  0.00     0.025 A 
ATOM      2  C   UNL d   1     -47.861  13.733  22.854  0.00  0.00     0.106 A 
ATOM      3  C   UNL d   1     -48.082  12.373  23.227  0.00  0.00     0.092 A 
ATOM      4  N   UNL d   1     -46.774  12.937  23.323  0.00  0.00    -0.218 NA
ATOM      5  C   UNL d   1     -47.283  12.295  23.416  0.00  0.00     0.118 A 
ATOM      6  C   UNL d   1     -47.061  13.655  23.043  0.00  0.00     0.194 A 
ATOM      7  C   UNL d   1     -48.152  14.454  22.572  0.00  0.00     0.104 C 
ATOM      8  C   UNL d   1     -48.594  11.738  23.316  0.00  0.00     0.103 C 
ATOM      9  N   UNL d   1     -48.437  15.164  22.295  0.00  0.00    -0.191 NA
ATOM     10  N   UNL d   1     -49.097  11.105  23.407  0.00  0.00    -0.191 NA
ATOM     11  N   UNL d   1     -46.552  14.298  22.951  0.00  0.00    -0.126 N 
ENDROOT
BRANCH   1  12
ATOM     12  C   UNL d   1     -49.165  13.172  22.757  0.00  0.00     0.012 A 
ATOM     13  C   UNL d   1     -49.426  13.014  21.989  0.00  0.00     0.058 A 
ATOM     14 CL   UNL d   1     -48.887  12.780  21.418  0.00  0.00    -0.082 Cl
ATOM     15  C   UNL d   1     -50.237  13.093  21.797  0.00  0.00     0.011 A 
ATOM     16  C   UNL d   1     -50.772  13.329  22.377  0.00  0.00     0.001 A 
ATOM     17  C   UNL d   1     -50.517  13.486  23.140  0.00  0.00     0.000 A 
ATOM     18  C   UNL d   1     -49.706  13.407  23.332  0.00  0.00     0.001 A 
ENDBRANCH   1  12
BRANCH   5  19
ATOM     19  S   UNL d   1     -46.996  11.571  23.698  0.00  0.00    -0.093 SA
ATOM     20  C   UNL d   1     -46.186  11.414  23.697  0.00  0.00     0.076 C 
ENDBRANCH   5  19
TORSDOF 2
ENDMDL
MODEL 2
REMARK VINA RESULT:      -8.8      0.828      2.067
REMARK  2 active torsions:
REMARK  status: ('A' for Active; 'I' for Inactive)
REMARK    1  A    between atoms: C_7  and  C_1 
REMARK    2  A    between atoms: S_13  and  C_5 
ROOT
ATOM      1  C   UNL d   1     -48.530  12.914  23.017  0.00  0.00     0.025 A 
ATOM      2  C   UNL d   1     -48.283  12.183  23.308  0.00  0.00     0.106 A 
ATOM      3  C   UNL d   1     -47.967  13.487  22.823  0.00  0.00     0.092 A 
ATOM      4  N   UNL d   1     -46.921  12.597  23.213  0.00  0.00    -0.218 NA
ATOM      5  C   UNL d   1     -47.163  13.329  22.921  0.00  0.00     0.118 A 
ATOM      6  C   UNL d   1     -47.479  12.025  23.406  0.00  0.00     0.194 A 
ATOM      7  C   UNL d   1     -48.846  11.608  23.502  0.00  0.00     0.104 C 
ATOM      8  C   UNL d   1     -48.214  14.214  22.533  0.00  0.00     0.103 C 
ATOM      9  N   UNL d   1     -49.398  11.043  23.693  0.00  0.00    -0.191 NA
ATOM     10  N   UNL d   1     -48.455  14.937  22.246  0.00  0.00    -0.191 NA
ATOM     11  N   UNL d   1     -47.238  11.291  23.698  0.00  0.00    -0.126 N 
ENDROOT
BRANCH   1  12
ATOM     12  C   UNL d   1     -49.326  13.071  22.920  0.00  0.00     0.012 A 
ATOM     13  C   UNL d   1     -49.701  12.885  22.207  0.00  0.00     0.058 A 
ATOM     14 CL   UNL d   1     -49.270  12.543  21.600  0.00  0.00    -0.082 Cl
ATOM     15  C   UNL d   1     -50.517  13.046  22.108  0.00  0.00     0.011 A 
ATOM     16  C   UNL d   1     -50.942  13.389  22.723  0.00  0.00     0.001 A 
ATOM     17  C   UNL d   1     -50.573  13.575  23.432  0.00  0.00     0.000 A 
ATOM     18  C   UNL d   1     -49.758  13.414  23.531  0.00  0.00     0.001 A 
ENDBRANCH   1  12
BRANCH   5  19
ATOM     19  S   UNL d   1     -46.603  13.907  22.726  0.00  0.00    -0.093 SA
ATOM     20  C   UNL d   1     -45.819  13.697  22.580  0.00  0.00     0.076 C 
ENDBRANCH   5  19
TORSDOF 2
ENDMDL
MODEL 3
REMARK VINA RESULT:      -8.5      1.340      2.653
REMARK  2 active torsions:
REMARK  status: ('A' for Active; 'I' for Inactive)
REMARK    1  A    between atoms: C_7  and  C_1 
REMARK    2  A    between atoms: S_13  and  C_5 
ROOT
ATOM      1  C   UNL d   1     -48.617  13.300  22.962  0.00  0.00     0.025 A 
ATOM      2  C   UNL d   1     -49.033  14.007  22.878  0.00  0.00     0.106 A 
ATOM      3  C   UNL d   1     -49.016  12.617  23.199  0.00  0.00     0.092 A 
ATOM      4  N   UNL d   1     -50.239  13.350  23.266  0.00  0.00    -0.218 NA
ATOM      5  C   UNL d   1     -49.826  12.641  23.351  0.00  0.00     0.118 A 
ATOM      6  C   UNL d   1     -49.844  14.032  23.029  0.00  0.00     0.194 A 
ATOM      7  C   UNL d   1     -48.634  14.692  22.640  0.00  0.00     0.104 C 
ATOM      8  C   UNL d   1     -48.599  11.914  23.283  0.00  0.00     0.103 C 
ATOM      9  N   UNL d   1     -48.243  15.365  22.406  0.00  0.00    -0.191 NA
ATOM     10  N   UNL d   1     -48.191  11.215  23.367  0.00  0.00    -0.191 NA
ATOM     11  N   UNL d   1     -50.256  14.742  22.943  0.00  0.00    -0.126 N 
ENDROOT
BRANCH   1  12
ATOM     12  C   UNL d   1     -47.813  13.276  22.811  0.00  0.00     0.012 A 
ATOM     13  C   UNL d   1     -47.539  13.101  22.052  0.00  0.00     0.058 A 
ATOM     14 CL   UNL d   1     -48.078  12.953  21.451  0.00  0.00    -0.082 Cl
ATOM     15  C   UNL d   1     -46.717  13.076  21.898  0.00  0.00     0.011 A 
ATOM     16  C   UNL d   1     -46.184  13.226  22.506  0.00  0.00     0.001 A 
ATOM     17  C   UNL d   1     -46.452  13.399  23.262  0.00  0.00     0.000 A 
ATOM     18  C   UNL d   1     -47.274  13.425  23.416  0.00  0.00     0.001 A 
ENDBRANCH   1  12
BRANCH   5  19
ATOM     19  S   UNL d   1     -50.221  11.953  23.589  0.00  0.00    -0.093 SA
ATOM     20  C   UNL d   1     -51.040  11.958  23.696  0.00  0.00     0.076 C 
ENDBRANCH   5  19
TORSDOF 2
ENDMDL
MODEL 4
REMARK VINA RESULT:      -8.5      1.507      3.364
REMARK  2 active torsions:
REMARK  status: ('A' for Active; 'I' for Inactive)
REMARK    1  A    between atoms: C_7  and  C_1 
REMARK    2  A    between atoms: S_13  and  C_5 
ROOT
ATOM      1  C   UNL d   1     -48.602  13.216  22.981  0.00  0.00     0.025 A 
ATOM      2  C   UNL d   1     -48.990  12.517  23.180  0.00  0.00     0.106 A 
ATOM      3  C   UNL d   1     -49.027  13.924  22.945  0.00  0.00     0.092 A 
ATOM      4  N   UNL d   1     -50.221  13.227  23.305  0.00  0.00    -0.218 NA
ATOM      5  C   UNL d   1     -49.836  13.930  23.107  0.00  0.00     0.118 A 
ATOM      6  C   UNL d   1     -49.799  12.523  23.341  0.00  0.00     0.194 A 
ATOM      7  C   UNL d   1     -48.564  11.808  23.216  0.00  0.00     0.104 C 
ATOM      8  C   UNL d   1     -48.639  14.620  22.747  0.00  0.00     0.103 C 
ATOM      9  N   UNL d   1     -48.147  11.112  23.252  0.00  0.00    -0.191 NA
ATOM     10  N   UNL d   1     -48.258  15.312  22.551  0.00  0.00    -0.191 NA
ATOM     11  N   UNL d   1     -50.183  11.819  23.540  0.00  0.00    -0.126 N 
ENDROOT
BRANCH   1  12
ATOM     12  C   UNL d   1     -47.800  13.211  22.821  0.00  0.00     0.012 A 
ATOM     13  C   UNL d   1     -47.533  13.086  22.049  0.00  0.00     0.058 A 
ATOM     14 CL   UNL d   1     -48.076  12.968  21.446  0.00  0.00    -0.082 Cl
ATOM     15  C   UNL d   1     -46.712  13.081  21.885  0.00  0.00     0.011 A 
ATOM     16  C   UNL d   1     -46.174  13.200  22.495  0.00  0.00     0.001 A 
ATOM     17  C   UNL d   1     -46.435  13.324  23.263  0.00  0.00     0.000 A 
ATOM     18  C   UNL d   1     -47.255  13.330  23.427  0.00  0.00     0.001 A 
ENDBRANCH   1  12
BRANCH   5  19
ATOM     19  S   UNL d   1     -50.258  14.641  23.069  0.00  0.00    -0.093 SA
ATOM     20  C   UNL d   1     -51.063  14.660  23.252  0.00  0.00     0.076 C 
ENDBRANCH   5  19
TORSDOF 2
ENDMDL
MODEL 5
REMARK VINA RESULT:      -8.3      0.937      2.100
REMARK  2 active torsions:
REMARK  status: ('A' for Active; 'I' for Inactive)
REMARK    1  A    between atoms: C_7  and  C_1 
REMARK    2  A    between atoms: S_13  and  C_5 
ROOT
ATOM      1  C   UNL d   1     -48.498  12.994  23.067  0.00  0.00     0.025 A 
ATOM      2  C   UNL d   1     -49.021  12.381  23.239  0.00  0.00     0.106 A 
ATOM      3  C   UNL d   1     -47.687  12.884  23.184  0.00  0.00     0.092 A 
ATOM      4  N   UNL d   1     -47.931  11.554  23.642  0.00  0.00    -0.218 NA
ATOM      5  C   UNL d   1     -47.404  12.165  23.471  0.00  0.00     0.118 A 
ATOM      6  C   UNL d   1     -48.738  11.662  23.527  0.00  0.00     0.194 A 
ATOM      7  C   UNL d   1     -49.833  12.491  23.122  0.00  0.00     0.104 C 
ATOM      8  C   UNL d   1     -47.167  13.496  23.011  0.00  0.00     0.103 C 
ATOM      9  N   UNL d   1     -50.631  12.598  23.008  0.00  0.00    -0.191 NA
ATOM     10  N   UNL d   1     -46.648  14.099  22.842  0.00  0.00    -0.191 NA
ATOM     11  N   UNL d   1     -49.267  11.051  23.698  0.00  0.00    -0.126 N 
ENDROOT
BRANCH   1  12
ATOM     12  C   UNL d   1     -48.779  13.707  22.781  0.00  0.00     0.012 A 
ATOM     13  C   UNL d   1     -48.878  13.818  21.969  0.00  0.00     0.058 A 
ATOM     14 CL   UNL d   1     -48.693  13.209  21.451  0.00  0.00    -0.082 Cl
ATOM     15  C   UNL d   1     -49.165  14.548  21.677  0.00  0.00     0.011 A 
ATOM     16  C   UNL d   1     -49.348  15.153  22.203  0.00  0.00     0.001 A 
ATOM     17  C   UNL d   1     -49.251  15.048  23.010  0.00  0.00     0.000 A 
ATOM     18  C   UNL d   1     -48.964  14.318  23.302  0.00  0.00     0.001 A 
ENDBRANCH   1  12
BRANCH   5  19
ATOM     19  S   UNL d   1     -46.590  12.060  23.587  0.00  0.00    -0.093 SA
ATOM     20  C   UNL d   1     -46.279  11.303  23.698  0.00  0.00     0.076 C 
ENDBRANCH   5  19
TORSDOF 2
ENDMDL
MODEL 6
REMARK VINA RESULT:      -8.0      1.465      2.603
REMARK  2 active torsions:
REMARK  status: ('A' for Active; 'I' for Inactive)
REMARK    1  A    between atoms: C_7  and  C_1 
REMARK    2  A    between atoms: S_13  and  C_5 
ROOT
ATOM      1  C   UNL d   1     -48.461  13.540  22.943  0.00  0.00     0.025 A 
ATOM      2  C   UNL d   1     -47.821  14.002  22.708  0.00  0.00     0.106 A 
ATOM      3  C   UNL d   1     -49.175  13.904  23.146  0.00  0.00     0.092 A 
ATOM      4  N   UNL d   1     -48.602  15.184  22.878  0.00  0.00    -0.218 NA
ATOM      5  C   UNL d   1     -49.245  14.725  23.113  0.00  0.00     0.118 A 
ATOM      6  C   UNL d   1     -47.891  14.823  22.675  0.00  0.00     0.194 A 
ATOM      7  C   UNL d   1     -47.106  13.638  22.504  0.00  0.00     0.104 C 
ATOM      8  C   UNL d   1     -49.812  13.442  23.379  0.00  0.00     0.103 C 
ATOM      9  N   UNL d   1     -46.403  13.281  22.304  0.00  0.00    -0.191 NA
ATOM     10  N   UNL d   1     -50.447  12.988  23.612  0.00  0.00    -0.191 NA
ATOM     11  N   UNL d   1     -47.246  15.282  22.439  0.00  0.00    -0.126 N 
ENDROOT
BRANCH   1  12
ATOM     12  C   UNL d   1     -48.392  12.725  22.975  0.00  0.00     0.012 A 
ATOM     13  C   UNL d   1     -48.588  12.267  22.316  0.00  0.00     0.058 A 
ATOM     14 CL   UNL d   1     -48.852  12.633  21.631  0.00  0.00    -0.082 Cl
ATOM     15  C   UNL d   1     -48.517  11.434  22.349  0.00  0.00     0.011 A 
ATOM     16  C   UNL d   1     -48.251  11.075  23.040  0.00  0.00     0.001 A 
ATOM     17  C   UNL d   1     -48.056  11.526  23.696  0.00  0.00     0.000 A 
ATOM     18  C   UNL d   1     -48.127  12.359  23.663  0.00  0.00     0.001 A 
ENDBRANCH   1  12
BRANCH   5  19
ATOM     19  S   UNL d   1     -49.963  15.085  23.318  0.00  0.00    -0.093 SA
ATOM     20  C   UNL d   1     -50.002  15.901  23.438  0.00  0.00     0.076 C 
ENDBRANCH   5  19
TORSDOF 2
ENDMDL
MODEL 7
REMARK VINA RESULT:      -7.2      1.268      2.019
REMARK  2 active torsions:
REMARK  status: ('A' for Active; 'I' for Inactive)
REMARK    1  A    between atoms: C_7  and  C_1 
REMARK    2  A    between atoms: S_13  and  C_5 
ROOT
ATOM      1  C   UNL d   1     -48.805  13.562  22.839  0.00  0.00     0.025 A 
ATOM      2  C   UNL d   1     -49.216  14.276  22.826  0.00  0.00     0.106 A 
ATOM      3  C   UNL d   1     -47.979  13.565  22.800  0.00  0.00     0.092 A 
ATOM      4  N   UNL d   1     -47.985  14.991  22.737  0.00  0.00    -0.218 NA
ATOM      5  C   UNL d   1     -47.570  14.279  22.749  0.00  0.00     0.118 A 
ATOM      6  C   UNL d   1     -48.806  14.991  22.775  0.00  0.00     0.194 A 
ATOM      7  C   UNL d   1     -50.043  14.274  22.865  0.00  0.00     0.104 C 
ATOM      8  C   UNL d   1     -47.572  12.852  22.812  0.00  0.00     0.103 C 
ATOM      9  N   UNL d   1     -50.855  14.273  22.904  0.00  0.00    -0.191 NA
ATOM     10  N   UNL d   1     -47.163  12.149  22.825  0.00  0.00    -0.191 NA
ATOM     11  N   UNL d   1     -49.223  15.703  22.763  0.00  0.00    -0.126 N 
ENDROOT
BRANCH   1  12
ATOM     12  C   UNL d   1     -49.212  12.854  22.890  0.00  0.00     0.012 A 
ATOM     13  C   UNL d   1     -49.459  12.468  22.202  0.00  0.00     0.058 A 
ATOM     14 CL   UNL d   1     -49.294  12.800  21.470  0.00  0.00    -0.082 Cl
ATOM     15  C   UNL d   1     -49.875  11.744  22.254  0.00  0.00     0.011 A 
ATOM     16  C   UNL d   1     -50.035  11.419  22.992  0.00  0.00     0.001 A 
ATOM     17  C   UNL d   1     -49.792  11.798  23.677  0.00  0.00     0.000 A 
ATOM     18  C   UNL d   1     -49.376  12.523  23.625  0.00  0.00     0.001 A 
ENDBRANCH   1  12
BRANCH   5  19
ATOM     19  S   UNL d   1     -46.742  14.276  22.710  0.00  0.00    -0.093 SA
ATOM     20  C   UNL d   1     -46.332  14.958  22.488  0.00  0.00     0.076 C 
ENDBRANCH   5  19
TORSDOF 2
ENDMDL
