MODEL 1
REMARK VINA RESULT:     143.3      0.000      0.000
REMARK  5 active torsions:
REMARK  status: ('A' for Active; 'I' for Inactive)
REMARK       I    between atoms: C_2  and  N_6 
REMARK    1  A    between atoms: C_7  and  C_2 
REMARK    2  A    between atoms: N_3  and  C_4 
REMARK    3  A    between atoms: C_12  and  N_5 
REMARK    4  A    between atoms: N_6  and  C_18 
REMARK    5  A    between atoms: O_33  and  C_30 
ROOT
ATOM      1  C   UNL d   1     -55.086-101.161 -42.013  0.00  0.00     0.086 A 
ATOM      2  C   UNL d   1     -54.914-100.655 -41.389  0.00  0.00     0.074 A 
ATOM      3  C   UNL d   1     -55.270-101.948 -41.871  0.00  0.00     0.102 C 
ATOM      4  N   UNL d   1     -55.454-102.736 -41.725  0.00  0.00    -0.191 NA
ATOM      5  C   UNL d   1     -54.729 -99.867 -41.531  0.00  0.00     0.020 A 
ATOM      6  C   UNL d   1     -55.074-100.876 -42.794  0.00  0.00     0.031 A 
ATOM      7  C   UNL d   1     -54.890-100.089 -42.944  0.00  0.00     0.085 A 
ATOM      8  C   UNL d   1     -54.715 -99.574 -42.308  0.00  0.00     0.021 A 
ENDROOT
BRANCH   2   9
ATOM      9  N   UNL d   1     -54.923-100.932 -40.610  0.00  0.00    -0.301 N 
ATOM     10  C   UNL d   1     -54.741-101.720 -40.463  0.00  0.00     0.100 A 
ATOM     11  C   UNL d   1     -54.749-102.003 -39.683  0.00  0.00     0.100 A 
ATOM     12  N   UNL d   1     -54.940-101.491 -39.063  0.00  0.00    -0.301 N 
ATOM     13  C   UNL d   1     -55.122-100.700 -39.219  0.00  0.00     0.100 A 
ATOM     14  C   UNL d   1     -55.114-100.419 -39.991  0.00  0.00     0.100 A 
BRANCH  12  15
ATOM     15  C   UNL d   1     -54.948-101.776 -38.283  0.00  0.00     0.064 A 
ATOM     16  C   UNL d   1     -55.063-101.255 -37.657  0.00  0.00     0.020 A 
ATOM     17  C   UNL d   1     -55.071-101.537 -36.880  0.00  0.00     0.026 A 
ATOM     18  C   UNL d   1     -54.963-102.349 -36.726  0.00  0.00     0.094 A 
ATOM     19  C   UNL d   1     -54.846-102.879 -37.357  0.00  0.00     0.026 A 
ATOM     20  C   UNL d   1     -54.839-102.592 -38.135  0.00  0.00     0.020 A 
BRANCH  18  21
ATOM     21  O   UNL d   1     -54.970-102.639 -35.952  0.00  0.00    -0.328 OA
ATOM     22  C   UNL d   1     -55.682-102.671 -35.542  0.00  0.00     0.181 C 
ENDBRANCH  18  21
ENDBRANCH  12  15
ENDBRANCH   2   9
BRANCH   7  23
ATOM     23  N   UNL d   1     -54.877 -99.802 -43.716  0.00  0.00    -0.208 NA
ATOM     24  C   UNL d   1     -54.815-100.326 -44.346  0.00  0.00     0.279 C 
ATOM     25  O   UNL d   1     -54.765-101.134 -44.210  0.00  0.00    -0.265 OA
BRANCH  24  26
ATOM     26  C   UNL d   1     -54.802-100.036 -45.121  0.00  0.00     0.060 A 
ATOM     27  C   UNL d   1     -54.820-100.553 -45.749  0.00  0.00     0.031 A 
ATOM     28  C   UNL d   1     -54.807-100.261 -46.521  0.00  0.00     0.119 A 
ATOM     29  O   UNL d   1     -54.820-100.633 -47.247  0.00  0.00    -0.300 OA
ATOM     30  C   UNL d   1     -54.777 -99.455 -46.647  0.00  0.00     0.119 A 
ATOM     31  C   UNL d   1     -54.797-100.055 -47.831  0.00  0.00     0.304 A 
ATOM     32  O   UNL d   1     -54.770 -99.326 -47.460  0.00  0.00    -0.300 OA
ATOM     33  C   UNL d   1     -54.759 -98.930 -46.014  0.00  0.00     0.026 A 
ATOM     34  C   UNL d   1     -54.772 -99.221 -45.249  0.00  0.00     0.007 A 
ENDBRANCH  24  26
ENDBRANCH   7  23
TORSDOF 5
ENDMDL
