MODEL 1
REMARK VINA RESULT:      63.4      0.000      0.000
REMARK  4 active torsions:
REMARK  status: ('A' for Active; 'I' for Inactive)
REMARK    1  A    between atoms: C_9  and  C_3 
REMARK    2  A    between atoms: C_11  and  C_7 
REMARK    3  A    between atoms: O_22  and  C_16 
REMARK    4  A    between atoms: O_23  and  C_17 
ROOT
ATOM      1  N   UNL d   1      60.304  49.641  51.527  0.00  0.00    -0.186 N 
ATOM      2  N   UNL d   1      59.837  49.643  52.217  0.00  0.00    -0.162 NA
ATOM      3  C   UNL d   1      60.114  49.649  50.738  0.00  0.00     0.187 A 
ATOM      4  C   UNL d   1      61.124  49.629  51.591  0.00  0.00     0.217 A 
ATOM      5  N   UNL d   1      60.802  49.642  50.302  0.00  0.00    -0.127 NA
ATOM      6  N   UNL d   1      61.425  49.630  50.821  0.00  0.00    -0.120 NA
ATOM      7  C   UNL d   1      60.196  49.633  52.956  0.00  0.00     0.108 A 
ATOM      8  S   UNL d   1      61.469  49.619  52.337  0.00  0.00    -0.045 SA
ATOM      9  C   UNL d   1      61.019  49.620  53.026  0.00  0.00     0.059 A 
ENDROOT
BRANCH   3  10
ATOM     10  C   UNL d   1      59.338  49.662  50.451  0.00  0.00     0.038 A 
ATOM     11  C   UNL d   1      58.715  49.662  50.975  0.00  0.00     0.005 A 
ATOM     12  C   UNL d   1      57.938  49.675  50.688  0.00  0.00     0.024 A 
ATOM     13  C   UNL d   1      57.809  49.687  49.873  0.00  0.00     0.094 A 
ATOM     14  C   UNL d   1      58.436  49.687  49.347  0.00  0.00     0.024 A 
ATOM     15  C   UNL d   1      59.205  49.674  49.638  0.00  0.00     0.005 A 
BRANCH  13  16
ATOM     16  O   UNL d   1      57.035  49.700  49.562  0.00  0.00    -0.328 OA
ATOM     17  C   UNL d   1      56.426  49.250  49.926  0.00  0.00     0.181 C 
ENDBRANCH  13  16
ENDBRANCH   3  10
BRANCH   7  18
ATOM     18  C   UNL d   1      59.732  49.634  53.635  0.00  0.00     0.020 A 
ATOM     19  C   UNL d   1      60.083  49.697  54.380  0.00  0.00     0.004 A 
ATOM     20  C   UNL d   1      59.628  49.700  55.068  0.00  0.00     0.024 A 
ATOM     21  C   UNL d   1      58.797  49.639  55.008  0.00  0.00     0.094 A 
ATOM     22  C   UNL d   1      58.444  49.577  54.281  0.00  0.00     0.024 A 
ATOM     23  C   UNL d   1      58.909  49.574  53.585  0.00  0.00     0.004 A 
BRANCH  21  24
ATOM     24  O   UNL d   1      58.338  49.641  55.698  0.00  0.00    -0.328 OA
ATOM     25  C   UNL d   1      57.544  49.399  55.668  0.00  0.00     0.181 C 
ENDBRANCH  21  24
ENDBRANCH   7  18
TORSDOF 4
ENDMDL
