MODEL 1
REMARK VINA RESULT:      -2.0      0.000      0.000
REMARK  4 active torsions:
REMARK  status: ('A' for Active; 'I' for Inactive)
REMARK    1  A    between atoms: C_9  and  C_3 
REMARK    2  A    between atoms: C_11  and  C_7 
REMARK    3  A    between atoms: O_22  and  C_16 
REMARK    4  A    between atoms: O_23  and  C_17 
ROOT
ATOM      1  N   UNL d   1      32.985  22.031 -23.038  0.00  0.00    -0.186 N 
ATOM      2  N   UNL d   1      32.998  21.209 -22.897  0.00  0.00    -0.162 NA
ATOM      3  C   UNL d   1      32.875  22.669 -22.548  0.00  0.00     0.187 A 
ATOM      4  C   UNL d   1      33.100  22.315 -23.802  0.00  0.00     0.217 A 
ATOM      5  N   UNL d   1      32.919  23.351 -22.990  0.00  0.00    -0.127 NA
ATOM      6  N   UNL d   1      33.057  23.139 -23.760  0.00  0.00    -0.120 NA
ATOM      7  C   UNL d   1      33.125  20.688 -23.520  0.00  0.00     0.108 A 
ATOM      8  S   UNL d   1      33.226  21.781 -24.414  0.00  0.00    -0.045 SA
ATOM      9  C   UNL d   1      33.241  20.968 -24.289  0.00  0.00     0.059 A 
ENDROOT
BRANCH   3  10
ATOM     10  C   UNL d   1      32.742  22.606 -21.733  0.00  0.00     0.038 A 
ATOM     11  C   UNL d   1      32.124  22.152 -21.461  0.00  0.00     0.005 A 
ATOM     12  C   UNL d   1      31.990  22.089 -20.646  0.00  0.00     0.024 A 
ATOM     13  C   UNL d   1      32.488  22.489 -20.123  0.00  0.00     0.094 A 
ATOM     14  C   UNL d   1      33.110  22.944 -20.398  0.00  0.00     0.024 A 
ATOM     15  C   UNL d   1      33.237  23.003 -21.208  0.00  0.00     0.005 A 
BRANCH  13  16
ATOM     16  O   UNL d   1      32.372  22.439 -19.299  0.00  0.00    -0.328 OA
ATOM     17  C   UNL d   1      32.871  22.867 -18.775  0.00  0.00     0.181 C 
ENDBRANCH  13  16
ENDBRANCH   3  10
BRANCH   7  18
ATOM     18  C   UNL d   1      33.136  19.879 -23.377  0.00  0.00     0.020 A 
ATOM     19  C   UNL d   1      33.070  19.344 -24.003  0.00  0.00     0.004 A 
ATOM     20  C   UNL d   1      33.081  18.530 -23.873  0.00  0.00     0.024 A 
ATOM     21  C   UNL d   1      33.160  18.242 -23.092  0.00  0.00     0.094 A 
ATOM     22  C   UNL d   1      33.225  18.759 -22.472  0.00  0.00     0.024 A 
ATOM     23  C   UNL d   1      33.214  19.586 -22.609  0.00  0.00     0.004 A 
BRANCH  21  24
ATOM     24  O   UNL d   1      33.170  17.424 -22.959  0.00  0.00    -0.328 OA
ATOM     25  C   UNL d   1      32.560  16.948 -23.263  0.00  0.00     0.181 C 
ENDBRANCH  21  24
ENDBRANCH   7  18
TORSDOF 4
ENDMDL
MODEL 2
REMARK VINA RESULT:      -1.0      0.763      4.213
REMARK  4 active torsions:
REMARK  status: ('A' for Active; 'I' for Inactive)
REMARK    1  A    between atoms: C_9  and  C_3 
REMARK    2  A    between atoms: C_11  and  C_7 
REMARK    3  A    between atoms: O_22  and  C_16 
REMARK    4  A    between atoms: O_23  and  C_17 
ROOT
ATOM      1  N   UNL d   1      33.052  21.934 -23.593  0.00  0.00    -0.186 N 
ATOM      2  N   UNL d   1      32.940  22.042 -22.774  0.00  0.00    -0.162 NA
ATOM      3  C   UNL d   1      33.138  21.269 -24.051  0.00  0.00     0.187 A 
ATOM      4  C   UNL d   1      33.091  22.590 -24.089  0.00  0.00     0.217 A 
ATOM      5  N   UNL d   1      33.232  21.495 -24.828  0.00  0.00    -0.127 NA
ATOM      6  N   UNL d   1      33.203  22.304 -24.856  0.00  0.00    -0.120 NA
ATOM      7  C   UNL d   1      32.869  22.801 -22.466  0.00  0.00     0.108 A 
ATOM      8  S   UNL d   1      33.019  23.342 -23.766  0.00  0.00    -0.045 SA
ATOM      9  C   UNL d   1      32.908  23.463 -22.959  0.00  0.00     0.059 A 
ENDROOT
BRANCH   3  10
ATOM     10  C   UNL d   1      33.129  20.498 -23.749  0.00  0.00     0.038 A 
ATOM     11  C   UNL d   1      33.010  19.870 -24.253  0.00  0.00     0.005 A 
ATOM     12  C   UNL d   1      33.001  19.099 -23.952  0.00  0.00     0.024 A 
ATOM     13  C   UNL d   1      33.113  18.980 -23.143  0.00  0.00     0.094 A 
ATOM     14  C   UNL d   1      33.233  19.612 -22.637  0.00  0.00     0.024 A 
ATOM     15  C   UNL d   1      33.241  20.376 -22.943  0.00  0.00     0.005 A 
BRANCH  13  16
ATOM     16  O   UNL d   1      33.107  18.212 -22.818  0.00  0.00    -0.328 OA
ATOM     17  C   UNL d   1      32.678  17.596 -23.196  0.00  0.00     0.181 C 
ENDBRANCH  13  16
ENDBRANCH   3  10
BRANCH   7  18
ATOM     18  C   UNL d   1      32.759  22.903 -21.658  0.00  0.00     0.020 A 
ATOM     19  C   UNL d   1      32.167  22.485 -21.262  0.00  0.00     0.004 A 
ATOM     20  C   UNL d   1      32.046  22.579 -20.451  0.00  0.00     0.024 A 
ATOM     21  C   UNL d   1      32.533  23.108 -20.025  0.00  0.00     0.094 A 
ATOM     22  C   UNL d   1      33.116  23.522 -20.406  0.00  0.00     0.024 A 
ATOM     23  C   UNL d   1      33.235  23.424 -21.229  0.00  0.00     0.004 A 
BRANCH  21  24
ATOM     24  O   UNL d   1      32.413  23.204 -19.211  0.00  0.00    -0.328 OA
ATOM     25  C   UNL d   1      33.042  23.076 -18.682  0.00  0.00     0.181 C 
ENDBRANCH  21  24
ENDBRANCH   7  18
TORSDOF 4
ENDMDL
MODEL 3
REMARK VINA RESULT:      -0.4      4.536      5.936
REMARK  4 active torsions:
REMARK  status: ('A' for Active; 'I' for Inactive)
REMARK    1  A    between atoms: C_9  and  C_3 
REMARK    2  A    between atoms: C_11  and  C_7 
REMARK    3  A    between atoms: O_22  and  C_16 
REMARK    4  A    between atoms: O_23  and  C_17 
ROOT
ATOM      1  N   UNL d   1      30.749  17.826 -24.440  0.00  0.00    -0.186 N 
ATOM      2  N   UNL d   1      30.157  17.317 -24.148  0.00  0.00    -0.162 NA
ATOM      3  C   UNL d   1      31.558  17.819 -24.374  0.00  0.00     0.187 A 
ATOM      4  C   UNL d   1      30.537  18.481 -24.891  0.00  0.00     0.217 A 
ATOM      5  N   UNL d   1      31.861  18.459 -24.775  0.00  0.00    -0.127 NA
ATOM      6  N   UNL d   1      31.238  18.869 -25.094  0.00  0.00    -0.120 NA
ATOM      7  C   UNL d   1      29.366  17.472 -24.311  0.00  0.00     0.108 A 
ATOM      8  S   UNL d   1      29.743  18.623 -25.045  0.00  0.00    -0.045 SA
ATOM      9  C   UNL d   1      29.148  18.129 -24.763  0.00  0.00     0.059 A 
ENDROOT
BRANCH   3  10
ATOM     10  C   UNL d   1      31.981  17.241 -23.958  0.00  0.00     0.038 A 
ATOM     11  C   UNL d   1      32.211  16.559 -24.338  0.00  0.00     0.005 A 
ATOM     12  C   UNL d   1      32.634  15.981 -23.922  0.00  0.00     0.024 A 
ATOM     13  C   UNL d   1      32.815  16.107 -23.128  0.00  0.00     0.094 A 
ATOM     14  C   UNL d   1      32.584  16.793 -22.746  0.00  0.00     0.024 A 
ATOM     15  C   UNL d   1      32.164  17.363 -23.164  0.00  0.00     0.005 A 
BRANCH  13  16
ATOM     16  O   UNL d   1      33.240  15.538 -22.690  0.00  0.00    -0.328 OA
ATOM     17  C   UNL d   1      33.235  15.560 -21.850  0.00  0.00     0.181 C 
ENDBRANCH  13  16
ENDBRANCH   3  10
BRANCH   7  18
ATOM     18  C   UNL d   1      28.785  16.968 -24.021  0.00  0.00     0.020 A 
ATOM     19  C   UNL d   1      28.290  17.213 -23.407  0.00  0.00     0.004 A 
ATOM     20  C   UNL d   1      27.703  16.716 -23.107  0.00  0.00     0.024 A 
ATOM     21  C   UNL d   1      27.609  15.952 -23.433  0.00  0.00     0.094 A 
ATOM     22  C   UNL d   1      28.090  15.705 -24.036  0.00  0.00     0.024 A 
ATOM     23  C   UNL d   1      28.685  16.212 -24.338  0.00  0.00     0.004 A 
BRANCH  21  24
ATOM     24  O   UNL d   1      27.020  15.453 -23.134  0.00  0.00    -0.328 OA
ATOM     25  C   UNL d   1      26.242  15.734 -23.051  0.00  0.00     0.181 C 
ENDBRANCH  21  24
ENDBRANCH   7  18
TORSDOF 4
ENDMDL
