MODEL 1
REMARK VINA RESULT:      79.2      0.000      0.000
REMARK  6 active torsions:
REMARK  status: ('A' for Active; 'I' for Inactive)
REMARK    1  A    between atoms: C_7  and  C_1 
REMARK       I    between atoms: C_2  and  N_4 
REMARK    2  A    between atoms: C_10  and  C_2 
REMARK    3  A    between atoms: N_4  and  C_3 
REMARK    4  A    between atoms: O_20  and  C_5 
REMARK    5  A    between atoms: O_21  and  C_7 
REMARK    6  A    between atoms: C_11  and  C_12 
ROOT
ATOM      1  C   UNL d   1     -56.032-100.268 -43.691  0.00  0.00     0.086 A 
ATOM      2  C   UNL d   1     -57.471 -99.672 -44.262  0.00  0.00     0.148 A 
ATOM      3  C   UNL d   1     -56.072 -99.841 -44.405  0.00  0.00     0.102 A 
ATOM      4  C   UNL d   1     -56.735-100.396 -43.258  0.00  0.00     0.021 A 
ATOM      5  C   UNL d   1     -56.784 -99.547 -44.686  0.00  0.00     0.057 A 
ATOM      6  C   UNL d   1     -57.460-100.096 -43.544  0.00  0.00     0.088 A 
ATOM      7 CL   UNL d   1     -58.146-100.226 -43.114  0.00  0.00    -0.080 Cl
ENDROOT
BRANCH   2   8
ATOM      8  N   UNL d   1     -58.203 -99.382 -44.530  0.00  0.00    -0.364 NA
ATOM      9  C   UNL d   1     -58.925 -99.103 -44.829  0.00  0.00     0.328 C 
ATOM     10  O   UNL d   1     -59.450 -98.756 -44.309  0.00  0.00    -0.251 OA
BRANCH   9  11
ATOM     11  C   UNL d   1     -59.092 -99.178 -45.613  0.00  0.00     0.070 A 
ATOM     12  C   UNL d   1     -58.587 -98.838 -46.170  0.00  0.00     0.006 A 
ATOM     13  C   UNL d   1     -58.744 -98.905 -46.978  0.00  0.00    -0.004 A 
ATOM     14  C   UNL d   1     -59.419 -99.320 -47.236  0.00  0.00    -0.023 A 
ATOM     15  C   UNL d   1     -59.924 -99.661 -46.686  0.00  0.00    -0.004 A 
ATOM     16  C   UNL d   1     -59.754 -99.585 -45.875  0.00  0.00     0.006 A 
BRANCH  14  17
ATOM     17  C   UNL d   1     -59.566 -99.382 -48.053  0.00  0.00     0.019 C 
ATOM     18  C   UNL d   1     -59.957-100.030 -48.355  0.00  0.00     0.004 C 
ATOM     19  C   UNL d   1     -59.306 -98.767 -48.546  0.00  0.00     0.004 C 
ATOM     20  C   UNL d   1     -59.891-100.069 -47.734  0.00  0.00     0.004 C 
ENDBRANCH  14  17
ENDBRANCH   9  11
ENDBRANCH   2   8
BRANCH   3  21
ATOM     21  O   UNL d   1     -55.390 -99.711 -44.835  0.00  0.00    -0.328 OA
ATOM     22  C   UNL d   1     -55.099 -98.927 -44.926  0.00  0.00     0.181 C 
ENDBRANCH   3  21
BRANCH   1  23
ATOM     23  C   UNL d   1     -55.320-100.556 -43.420  0.00  0.00     0.298 C 
ATOM     24  O   UNL d   1     -54.966-100.220 -42.746  0.00  0.00    -0.259 OA
BRANCH  23  25
ATOM     25  O   UNL d   1     -54.952-101.176 -43.811  0.00  0.00    -0.296 OA
ATOM     26  C   UNL d   1     -54.716-101.859 -43.403  0.00  0.00     0.185 C 
ENDBRANCH  23  25
ENDBRANCH   1  23
TORSDOF 6
ENDMDL
MODEL 2
REMARK VINA RESULT:      80.7      2.378      5.961
REMARK  6 active torsions:
REMARK  status: ('A' for Active; 'I' for Inactive)
REMARK    1  A    between atoms: C_7  and  C_1 
REMARK       I    between atoms: C_2  and  N_4 
REMARK    2  A    between atoms: C_10  and  C_2 
REMARK    3  A    between atoms: N_4  and  C_3 
REMARK    4  A    between atoms: O_20  and  C_5 
REMARK    5  A    between atoms: O_21  and  C_7 
REMARK    6  A    between atoms: C_11  and  C_12 
ROOT
ATOM      1  C   UNL d   1     -56.790 -99.953 -44.617  0.00  0.00     0.086 A 
ATOM      2  C   UNL d   1     -56.002-101.151 -43.784  0.00  0.00     0.148 A 
ATOM      3  C   UNL d   1     -57.103-100.270 -43.914  0.00  0.00     0.102 A 
ATOM      4  C   UNL d   1     -56.063-100.248 -44.904  0.00  0.00     0.021 A 
ATOM      5  C   UNL d   1     -56.713-100.862 -43.503  0.00  0.00     0.057 A 
ATOM      6  C   UNL d   1     -55.665-100.852 -44.486  0.00  0.00     0.088 A 
ATOM      7 CL   UNL d   1     -54.953-101.137 -44.773  0.00  0.00    -0.080 Cl
ENDROOT
BRANCH   2   8
ATOM      8  N   UNL d   1     -55.590-101.752 -43.382  0.00  0.00    -0.364 NA
ATOM      9  C   UNL d   1     -55.194-102.340 -42.952  0.00  0.00     0.328 C 
ATOM     10  O   UNL d   1     -54.712-102.858 -43.359  0.00  0.00    -0.251 OA
BRANCH   9  11
ATOM     11  C   UNL d   1     -55.289-102.388 -42.154  0.00  0.00     0.070 A 
ATOM     12  C   UNL d   1     -54.713-102.070 -41.656  0.00  0.00     0.006 A 
ATOM     13  C   UNL d   1     -54.795-102.111 -40.836  0.00  0.00    -0.004 A 
ATOM     14  C   UNL d   1     -55.467-102.478 -40.504  0.00  0.00    -0.023 A 
ATOM     15  C   UNL d   1     -56.042-102.797 -40.995  0.00  0.00    -0.004 A 
ATOM     16  C   UNL d   1     -55.946-102.748 -41.821  0.00  0.00     0.006 A 
BRANCH  14  17
ATOM     17  C   UNL d   1     -55.539-102.514 -39.675  0.00  0.00     0.019 C 
ATOM     18  C   UNL d   1     -54.876-102.574 -39.206  0.00  0.00     0.004 C 
ATOM     19  C   UNL d   1     -56.299-102.488 -39.346  0.00  0.00     0.004 C 
ATOM     20  C   UNL d   1     -54.726-102.553 -39.812  0.00  0.00     0.004 C 
ENDBRANCH  14  17
ENDBRANCH   9  11
ENDBRANCH   2   8
BRANCH   3  21
ATOM     21  O   UNL d   1     -57.813 -99.987 -43.625  0.00  0.00    -0.328 OA
ATOM     22  C   UNL d   1     -57.998 -99.170 -43.703  0.00  0.00     0.181 C 
ENDBRANCH   3  21
BRANCH   1  23
ATOM     23  C   UNL d   1     -57.185 -99.364 -45.018  0.00  0.00     0.298 C 
ATOM     24  O   UNL d   1     -56.764 -98.841 -45.509  0.00  0.00    -0.259 OA
BRANCH  23  25
ATOM     25  O   UNL d   1     -57.998 -99.287 -44.937  0.00  0.00    -0.296 OA
ATOM     26  C   UNL d   1     -58.427 -98.758 -45.410  0.00  0.00     0.185 C 
ENDBRANCH  23  25
ENDBRANCH   1  23
TORSDOF 6
ENDMDL
