MODEL 1
REMARK VINA RESULT:      -4.0      0.000      0.000
REMARK  4 active torsions:
REMARK  status: ('A' for Active; 'I' for Inactive)
REMARK    1  A    between atoms: C_7  and  N_1 
REMARK    2  A    between atoms: C_6  and  C_2 
REMARK    3  A    between atoms: C_17  and  C_6 
REMARK    4  A    between atoms: C_8  and  C_7 
ROOT
ATOM      1  N   UNL d   1      56.452  -0.516  33.064  0.00  0.00    -0.303 N 
ATOM      2  C   UNL d   1      57.002  -0.302  31.853  0.00  0.00     0.057 A 
ATOM      3  C   UNL d   1      56.948  -0.007  32.614  0.00  0.00     0.067 A 
ATOM      4  C   UNL d   1      56.546  -0.990  31.818  0.00  0.00     0.022 A 
ATOM      5  C   UNL d   1      56.211  -1.106  32.583  0.00  0.00     0.064 A 
ATOM      6  C   UNL d   1      57.326   0.682  32.887  0.00  0.00     0.019 C 
ATOM      7  C   UNL d   1      55.712  -1.738  32.789  0.00  0.00     0.019 C 
ENDROOT
BRANCH   1   8
ATOM      8  C   UNL d   1      56.251  -0.423  33.853  0.00  0.00     0.105 C 
BRANCH   8   9
ATOM      9  C   UNL d   1      55.565   0.013  34.070  0.00  0.00     0.118 A 
ATOM     10  O   UNL d   1      54.907   0.254  33.656  0.00  0.00    -0.304 OA
ATOM     11  C   UNL d   1      54.441   0.662  34.193  0.00  0.00     0.123 A 
ATOM     12  C   UNL d   1      54.777   0.682  34.905  0.00  0.00     0.029 A 
ATOM     13  C   UNL d   1      55.497   0.272  34.845  0.00  0.00     0.028 A 
ENDBRANCH   8   9
ENDBRANCH   1   8
BRANCH   2  14
ATOM     14  C   UNL d   1      57.420   0.018  31.254  0.00  0.00     0.208 C 
ATOM     15  O   UNL d   1      57.101   0.624  30.811  0.00  0.00    -0.286 OA
BRANCH  14  16
ATOM     16  C   UNL d   1      58.175  -0.256  31.073  0.00  0.00     0.110 C 
ATOM     17 CL   UNL d   1      58.528  -0.086  30.326  0.00  0.00    -0.078 Cl
ENDBRANCH  14  16
ENDBRANCH   2  14
TORSDOF 4
ENDMDL
MODEL 2
REMARK VINA RESULT:      -3.0      1.626      3.766
REMARK  4 active torsions:
REMARK  status: ('A' for Active; 'I' for Inactive)
REMARK    1  A    between atoms: C_7  and  N_1 
REMARK    2  A    between atoms: C_6  and  C_2 
REMARK    3  A    between atoms: C_17  and  C_6 
REMARK    4  A    between atoms: C_8  and  C_7 
ROOT
ATOM      1  N   UNL d   1      57.433  -0.242  32.023  0.00  0.00    -0.303 N 
ATOM      2  C   UNL d   1      56.468  -0.071  32.949  0.00  0.00     0.057 A 
ATOM      3  C   UNL d   1      56.662  -0.477  32.267  0.00  0.00     0.067 A 
ATOM      4  C   UNL d   1      57.107   0.417  33.140  0.00  0.00     0.022 A 
ATOM      5  C   UNL d   1      57.697   0.296  32.551  0.00  0.00     0.064 A 
ATOM      6  C   UNL d   1      56.171  -1.030  31.884  0.00  0.00     0.019 C 
ATOM      7  C   UNL d   1      58.433   0.682  32.533  0.00  0.00     0.019 C 
ENDROOT
BRANCH   1   8
ATOM      8  C   UNL d   1      57.837  -0.515  31.366  0.00  0.00     0.105 C 
BRANCH   8   9
ATOM      9  C   UNL d   1      57.801  -0.094  30.638  0.00  0.00     0.118 A 
ATOM     10  O   UNL d   1      57.359   0.541  30.386  0.00  0.00    -0.304 OA
ATOM     11  C   UNL d   1      57.590   0.682  29.612  0.00  0.00     0.123 A 
ATOM     12  C   UNL d   1      58.144   0.172  29.382  0.00  0.00     0.029 A 
ATOM     13  C   UNL d   1      58.292  -0.332  30.026  0.00  0.00     0.028 A 
ENDBRANCH   8   9
ENDBRANCH   1   8
BRANCH   2  14
ATOM     14  C   UNL d   1      55.786  -0.136  33.357  0.00  0.00     0.208 C 
ATOM     15  O   UNL d   1      55.484  -0.872  33.535  0.00  0.00    -0.286 OA
BRANCH  14  16
ATOM     16  C   UNL d   1      55.377   0.534  33.604  0.00  0.00     0.110 C 
ATOM     17 CL   UNL d   1      54.695   0.468  34.096  0.00  0.00    -0.078 Cl
ENDBRANCH  14  16
ENDBRANCH   2  14
TORSDOF 4
ENDMDL
MODEL 3
REMARK VINA RESULT:      -2.4      2.349      4.625
REMARK  4 active torsions:
REMARK  status: ('A' for Active; 'I' for Inactive)
REMARK    1  A    between atoms: C_7  and  N_1 
REMARK    2  A    between atoms: C_6  and  C_2 
REMARK    3  A    between atoms: C_17  and  C_6 
REMARK    4  A    between atoms: C_8  and  C_7 
ROOT
ATOM      1  N   UNL d   1      58.183  -0.489  29.897  0.00  0.00    -0.303 N 
ATOM      2  C   UNL d   1      57.493  -0.725  31.030  0.00  0.00     0.057 A 
ATOM      3  C   UNL d   1      57.765  -0.134  30.535  0.00  0.00     0.067 A 
ATOM      4  C   UNL d   1      57.733  -1.449  30.712  0.00  0.00     0.022 A 
ATOM      5  C   UNL d   1      58.162  -1.280  30.006  0.00  0.00     0.064 A 
ATOM      6  C   UNL d   1      57.644   0.681  30.653  0.00  0.00     0.019 C 
ATOM      7  C   UNL d   1      58.503  -1.854  29.512  0.00  0.00     0.019 C 
ENDROOT
BRANCH   1   8
ATOM      8  C   UNL d   1      58.545  -0.096  29.276  0.00  0.00     0.105 C 
BRANCH   8   9
ATOM      9  C   UNL d   1      59.360   0.110  29.321  0.00  0.00     0.118 A 
ATOM     10  O   UNL d   1      59.888   0.158  29.938  0.00  0.00    -0.304 OA
ATOM     11  C   UNL d   1      60.601   0.392  29.607  0.00  0.00     0.123 A 
ATOM     12  C   UNL d   1      60.535   0.489  28.828  0.00  0.00     0.029 A 
ATOM     13  C   UNL d   1      59.749   0.313  28.627  0.00  0.00     0.028 A 
ENDBRANCH   8   9
ENDBRANCH   1   8
BRANCH   2  14
ATOM     14  C   UNL d   1      57.071  -0.621  31.699  0.00  0.00     0.208 C 
ATOM     15  O   UNL d   1      57.227   0.014  32.186  0.00  0.00    -0.286 OA
BRANCH  14  16
ATOM     16  C   UNL d   1      56.475  -1.148  31.908  0.00  0.00     0.110 C 
ATOM     17 CL   UNL d   1      56.097  -1.097  32.660  0.00  0.00    -0.078 Cl
ENDBRANCH  14  16
ENDBRANCH   2  14
TORSDOF 4
ENDMDL
MODEL 4
REMARK VINA RESULT:      -2.3      2.227      3.629
REMARK  4 active torsions:
REMARK  status: ('A' for Active; 'I' for Inactive)
REMARK    1  A    between atoms: C_7  and  N_1 
REMARK    2  A    between atoms: C_6  and  C_2 
REMARK    3  A    between atoms: C_17  and  C_6 
REMARK    4  A    between atoms: C_8  and  C_7 
ROOT
ATOM      1  N   UNL d   1      58.415   0.474  30.179  0.00  0.00    -0.303 N 
ATOM      2  C   UNL d   1      59.456   0.070  29.425  0.00  0.00     0.057 A 
ATOM      3  C   UNL d   1      59.219   0.222  30.192  0.00  0.00     0.067 A 
ATOM      4  C   UNL d   1      58.814   0.222  28.928  0.00  0.00     0.022 A 
ATOM      5  C   UNL d   1      58.175   0.473  29.418  0.00  0.00     0.064 A 
ATOM      6  C   UNL d   1      59.699   0.140  30.867  0.00  0.00     0.019 C 
ATOM      7  C   UNL d   1      57.421   0.682  29.139  0.00  0.00     0.019 C 
ENDROOT
BRANCH   1   8
ATOM      8  C   UNL d   1      57.962   0.682  30.829  0.00  0.00     0.105 C 
BRANCH   8   9
ATOM      9  C   UNL d   1      57.482   0.108  31.215  0.00  0.00     0.118 A 
ATOM     10  O   UNL d   1      57.306  -0.668  31.050  0.00  0.00    -0.304 OA
ATOM     11  C   UNL d   1      56.801  -0.915  31.648  0.00  0.00     0.123 A 
ATOM     12  C   UNL d   1      56.663  -0.336  32.162  0.00  0.00     0.029 A 
ATOM     13  C   UNL d   1      57.090   0.327  31.902  0.00  0.00     0.028 A 
ENDBRANCH   8   9
ENDBRANCH   1   8
BRANCH   2  14
ATOM     14  C   UNL d   1      60.179  -0.180  29.198  0.00  0.00     0.208 C 
ATOM     15  O   UNL d   1      60.770   0.361  29.046  0.00  0.00    -0.286 OA
BRANCH  14  16
ATOM     16  C   UNL d   1      60.340  -0.982  29.114  0.00  0.00     0.110 C 
ATOM     17 CL   UNL d   1      60.958  -1.248  28.605  0.00  0.00    -0.078 Cl
ENDBRANCH  14  16
ENDBRANCH   2  14
TORSDOF 4
ENDMDL
MODEL 5
REMARK VINA RESULT:      -2.2      4.088      5.535
REMARK  4 active torsions:
REMARK  status: ('A' for Active; 'I' for Inactive)
REMARK    1  A    between atoms: C_7  and  N_1 
REMARK    2  A    between atoms: C_6  and  C_2 
REMARK    3  A    between atoms: C_17  and  C_6 
REMARK    4  A    between atoms: C_8  and  C_7 
ROOT
ATOM      1  N   UNL d   1      59.632  -1.246  28.737  0.00  0.00    -0.303 N 
ATOM      2  C   UNL d   1      60.301  -2.399  28.935  0.00  0.00     0.057 A 
ATOM      3  C   UNL d   1      59.554  -2.071  28.885  0.00  0.00     0.067 A 
ATOM      4  C   UNL d   1      60.849  -1.792  28.820  0.00  0.00     0.022 A 
ATOM      5  C   UNL d   1      60.413  -1.082  28.698  0.00  0.00     0.064 A 
ATOM      6  C   UNL d   1      58.840  -2.491  28.968  0.00  0.00     0.019 C 
ATOM      7  C   UNL d   1      60.753  -0.336  28.561  0.00  0.00     0.019 C 
ENDROOT
BRANCH   1   8
ATOM      8  C   UNL d   1      59.020  -0.709  28.648  0.00  0.00     0.105 C 
BRANCH   8   9
ATOM      9  C   UNL d   1      58.760  -0.247  29.303  0.00  0.00     0.118 A 
ATOM     10  O   UNL d   1      58.974  -0.228  30.087  0.00  0.00    -0.304 OA
ATOM     11  C   UNL d   1      58.507   0.351  30.433  0.00  0.00     0.123 A 
ATOM     12  C   UNL d   1      58.025   0.681  29.905  0.00  0.00     0.029 A 
ATOM     13  C   UNL d   1      58.173   0.311  29.176  0.00  0.00     0.028 A 
ENDBRANCH   8   9
ENDBRANCH   1   8
BRANCH   2  14
ATOM     14  C   UNL d   1      60.468  -3.167  29.070  0.00  0.00     0.208 C 
ATOM     15  O   UNL d   1      60.404  -3.473  29.823  0.00  0.00    -0.286 OA
BRANCH  14  16
ATOM     16  C   UNL d   1      60.706  -3.661  28.456  0.00  0.00     0.110 C 
ATOM     17 CL   UNL d   1      61.131  -4.372  28.614  0.00  0.00    -0.078 Cl
ENDBRANCH  14  16
ENDBRANCH   2  14
TORSDOF 4
ENDMDL
MODEL 6
REMARK VINA RESULT:      -2.2      3.010      5.232
REMARK  4 active torsions:
REMARK  status: ('A' for Active; 'I' for Inactive)
REMARK    1  A    between atoms: C_7  and  N_1 
REMARK    2  A    between atoms: C_6  and  C_2 
REMARK    3  A    between atoms: C_17  and  C_6 
REMARK    4  A    between atoms: C_8  and  C_7 
ROOT
ATOM      1  N   UNL d   1      58.700  -0.557  29.219  0.00  0.00    -0.303 N 
ATOM      2  C   UNL d   1      58.194   0.173  30.233  0.00  0.00     0.057 A 
ATOM      3  C   UNL d   1      58.228  -0.580  29.917  0.00  0.00     0.067 A 
ATOM      4  C   UNL d   1      58.637   0.670  29.745  0.00  0.00     0.022 A 
ATOM      5  C   UNL d   1      58.944   0.196  29.119  0.00  0.00     0.064 A 
ATOM      6  C   UNL d   1      57.856  -1.251  30.238  0.00  0.00     0.019 C 
ATOM      7  C   UNL d   1      59.423   0.481  28.502  0.00  0.00     0.019 C 
ENDROOT
BRANCH   1   8
ATOM      8  C   UNL d   1      58.875  -1.192  28.732  0.00  0.00     0.105 C 
BRANCH   8   9
ATOM      9  C   UNL d   1      59.560  -1.661  28.874  0.00  0.00     0.118 A 
ATOM     10  O   UNL d   1      60.287  -1.496  29.199  0.00  0.00    -0.304 OA
ATOM     11  C   UNL d   1      60.708  -2.200  29.176  0.00  0.00     0.123 A 
ATOM     12  C   UNL d   1      60.279  -2.778  28.859  0.00  0.00     0.029 A 
ATOM     13  C   UNL d   1      59.541  -2.452  28.659  0.00  0.00     0.028 A 
ENDBRANCH   8   9
ENDBRANCH   1   8
BRANCH   2  14
ATOM     14  C   UNL d   1      57.803   0.387  30.894  0.00  0.00     0.208 C 
ATOM     15  O   UNL d   1      56.988   0.430  30.891  0.00  0.00    -0.286 OA
BRANCH  14  16
ATOM     16  C   UNL d   1      58.210   0.567  31.586  0.00  0.00     0.110 C 
ATOM     17 CL   UNL d   1      57.799   0.681  32.313  0.00  0.00    -0.078 Cl
ENDBRANCH  14  16
ENDBRANCH   2  14
TORSDOF 4
ENDMDL
MODEL 7
REMARK VINA RESULT:      -1.8      8.884      9.960
REMARK  4 active torsions:
REMARK  status: ('A' for Active; 'I' for Inactive)
REMARK    1  A    between atoms: C_7  and  N_1 
REMARK    2  A    between atoms: C_6  and  C_2 
REMARK    3  A    between atoms: C_17  and  C_6 
REMARK    4  A    between atoms: C_8  and  C_7 
ROOT
ATOM      1  N   UNL d   1      59.893  -9.299  34.469  0.00  0.00    -0.303 N 
ATOM      2  C   UNL d   1      59.935  -8.291  35.363  0.00  0.00     0.057 A 
ATOM      3  C   UNL d   1      60.361  -8.671  34.778  0.00  0.00     0.067 A 
ATOM      4  C   UNL d   1      59.204  -8.671  35.427  0.00  0.00     0.022 A 
ATOM      5  C   UNL d   1      59.198  -9.295  34.861  0.00  0.00     0.064 A 
ATOM      6  C   UNL d   1      61.130  -8.464  34.536  0.00  0.00     0.019 C 
ATOM      7  C   UNL d   1      58.562  -9.818  34.742  0.00  0.00     0.019 C 
ENDROOT
BRANCH   1   8
ATOM      8  C   UNL d   1      60.111  -9.818  33.874  0.00  0.00     0.105 C 
BRANCH   8   9
ATOM      9  C   UNL d   1      60.008  -9.607  33.066  0.00  0.00     0.118 A 
ATOM     10  O   UNL d   1      59.413  -9.226  32.663  0.00  0.00    -0.304 OA
ATOM     11  C   UNL d   1      59.655  -9.195  31.880  0.00  0.00     0.123 A 
ATOM     12  C   UNL d   1      60.360  -9.533  31.786  0.00  0.00     0.029 A 
ATOM     13  C   UNL d   1      60.601  -9.803  32.534  0.00  0.00     0.028 A 
ENDBRANCH   8   9
ENDBRANCH   1   8
BRANCH   2  14
ATOM     14  C   UNL d   1      60.181  -7.666  35.793  0.00  0.00     0.208 C 
ATOM     15  O   UNL d   1      60.811  -7.746  36.306  0.00  0.00    -0.286 OA
BRANCH  14  16
ATOM     16  C   UNL d   1      59.809  -6.936  35.728  0.00  0.00     0.110 C 
ATOM     17 CL   UNL d   1      60.049  -6.284  36.207  0.00  0.00    -0.078 Cl
ENDBRANCH  14  16
ENDBRANCH   2  14
TORSDOF 4
ENDMDL
MODEL 8
REMARK VINA RESULT:      -1.4      1.399      1.914
REMARK  4 active torsions:
REMARK  status: ('A' for Active; 'I' for Inactive)
REMARK    1  A    between atoms: C_7  and  N_1 
REMARK    2  A    between atoms: C_6  and  C_2 
REMARK    3  A    between atoms: C_17  and  C_6 
REMARK    4  A    between atoms: C_8  and  C_7 
ROOT
ATOM      1  N   UNL d   1      57.008  -0.171  31.558  0.00  0.00    -0.303 N 
ATOM      2  C   UNL d   1      57.814  -0.812  30.689  0.00  0.00     0.057 A 
ATOM      3  C   UNL d   1      57.577  -0.073  30.946  0.00  0.00     0.067 A 
ATOM      4  C   UNL d   1      57.401  -1.375  31.131  0.00  0.00     0.022 A 
ATOM      5  C   UNL d   1      56.905  -0.955  31.667  0.00  0.00     0.064 A 
ATOM      6  C   UNL d   1      57.858   0.650  30.645  0.00  0.00     0.019 C 
ATOM      7  C   UNL d   1      56.394  -1.313  32.216  0.00  0.00     0.019 C 
ENDROOT
BRANCH   1   8
ATOM      8  C   UNL d   1      56.629   0.429  31.968  0.00  0.00     0.105 C 
BRANCH   8   9
ATOM      9  C   UNL d   1      56.760   0.529  32.794  0.00  0.00     0.118 A 
ATOM     10  O   UNL d   1      57.434   0.586  33.245  0.00  0.00    -0.304 OA
ATOM     11  C   UNL d   1      57.178   0.679  34.019  0.00  0.00     0.123 A 
ATOM     12  C   UNL d   1      56.392   0.681  34.062  0.00  0.00     0.029 A 
ATOM     13  C   UNL d   1      56.107   0.586  33.287  0.00  0.00     0.028 A 
ENDBRANCH   8   9
ENDBRANCH   1   8
BRANCH   2  14
ATOM     14  C   UNL d   1      58.347  -0.961  30.114  0.00  0.00     0.208 C 
ATOM     15  O   UNL d   1      58.957  -0.438  29.978  0.00  0.00    -0.286 OA
BRANCH  14  16
ATOM     16  C   UNL d   1      58.291  -1.640  29.653  0.00  0.00     0.110 C 
ATOM     17 CL   UNL d   1      58.846  -1.790  29.036  0.00  0.00    -0.078 Cl
ENDBRANCH  14  16
ENDBRANCH   2  14
TORSDOF 4
ENDMDL
