MODEL 1
REMARK VINA RESULT:      18.9      0.000      0.000
REMARK  4 active torsions:
REMARK  status: ('A' for Active; 'I' for Inactive)
REMARK    1  A    between atoms: C_7  and  C_4 
REMARK    2  A    between atoms: C_8  and  C_5 
REMARK    3  A    between atoms: S_9  and  C_6 
REMARK    4  A    between atoms: C_14  and  S_9 
ROOT
ATOM      1  N   UNL d   1      13.280  13.144  -4.030  0.00  0.00    -0.200 NA
ATOM      2  N   UNL d   1      13.554  12.060  -3.166  0.00  0.00    -0.202 NA
ATOM      3  N   UNL d   1      13.729  13.404  -2.707  0.00  0.00    -0.206 NA
ATOM      4  C   UNL d   1      13.480  13.676  -3.459  0.00  0.00     0.187 A 
ATOM      5  C   UNL d   1      13.761  12.597  -2.575  0.00  0.00     0.166 A 
ATOM      6  C   UNL d   1      13.317  12.339  -3.884  0.00  0.00     0.197 A 
ENDROOT
BRANCH   5   7
ATOM      7  C   UNL d   1      14.006  12.322  -1.837  0.00  0.00     0.036 A 
ATOM      8  C   UNL d   1      13.452  12.057  -1.314  0.00  0.00     0.003 A 
ATOM      9  C   UNL d   1      13.696  11.782  -0.576  0.00  0.00     0.000 A 
ATOM     10  C   UNL d   1      14.499  11.780  -0.380  0.00  0.00     0.000 A 
ATOM     11  C   UNL d   1      15.057  12.052  -0.923  0.00  0.00     0.000 A 
ATOM     12  C   UNL d   1      14.808  12.319  -1.641  0.00  0.00     0.003 A 
ENDBRANCH   5   7
BRANCH   6  13
ATOM     13  S   UNL d   1      13.105  11.781  -4.490  0.00  0.00    -0.048 SA
BRANCH  13  14
ATOM     14  C   UNL d   1      13.436  11.836  -5.248  0.00  0.00     0.038 C 
ATOM     15  C   UNL d   1      12.948  11.879  -5.916  0.00  0.00     0.008 C 
ENDBRANCH  13  14
ENDBRANCH   6  13
BRANCH   4  16
ATOM     16  C   UNL d   1      13.435  14.480  -3.627  0.00  0.00     0.151 C 
ATOM     17 CL   UNL d   1      12.826  14.753  -4.084  0.00  0.00    -0.067 Cl
ATOM     18 CL   UNL d   1      13.988  14.990  -3.341  0.00  0.00    -0.067 Cl
ENDBRANCH   4  16
TORSDOF 4
ENDMDL
