MODEL 1
REMARK VINA RESULT:      -8.1      0.000      0.000
REMARK  6 active torsions:
REMARK  status: ('A' for Active; 'I' for Inactive)
REMARK       I    between atoms: C_2  and  N_1 
REMARK    1  A    between atoms: C_3  and  C_2 
REMARK    2  A    between atoms: C_12  and  C_4 
REMARK       I    between atoms: C_5  and  N_8 
REMARK    3  A    between atoms: C_6  and  C_5 
REMARK       I    between atoms: N_9  and  C_6 
REMARK    4  A    between atoms: N_8  and  C_12 
REMARK    5  A    between atoms: C_19  and  N_9 
REMARK    6  A    between atoms: C_21  and  C_19 
ROOT
ATOM      1  C   UNL d   1      52.009  34.701  53.338  0.00  0.00     0.337 C 
ATOM      2  N   UNL d   1      52.551  34.154  53.619  0.00  0.00    -0.199 NA
ATOM      3  O   UNL d   1      51.941  35.435  53.703  0.00  0.00    -0.260 OA
ENDROOT
BRANCH   2   4
ATOM      4  C   UNL d   1      52.619  33.420  53.254  0.00  0.00     0.146 C 
BRANCH   4   5
ATOM      5  C   UNL d   1      53.307  32.967  53.367  0.00  0.00     0.190 A 
ATOM      6  N   UNL d   1      53.328  32.146  53.408  0.00  0.00    -0.250 N 
ATOM      7  C   UNL d   1      52.734  31.570  53.354  0.00  0.00     0.272 C 
ATOM      8  C   UNL d   1      54.119  31.932  53.523  0.00  0.00     0.112 A 
ATOM      9  O   UNL d   1      51.948  31.800  53.238  0.00  0.00    -0.266 OA
ATOM     10  C   UNL d   1      54.572  32.615  53.553  0.00  0.00     0.144 A 
ATOM     11  O   UNL d   1      54.057  33.258  53.454  0.00  0.00    -0.285 OA
BRANCH   7  12
ATOM     12  C   UNL d   1      52.921  30.772  53.416  0.00  0.00     0.086 A 
ATOM     13  S   UNL d   1      53.176  30.317  54.062  0.00  0.00    -0.082 SA
ATOM     14  C   UNL d   1      53.279  29.532  53.791  0.00  0.00     0.036 A 
ATOM     15  C   UNL d   1      53.087  29.518  52.988  0.00  0.00     0.008 A 
ATOM     16  C   UNL d   1      52.867  30.275  52.754  0.00  0.00     0.012 A 
ENDBRANCH   7  12
ENDBRANCH   4   5
ENDBRANCH   2   4
BRANCH   1  17
ATOM     17  C   UNL d   1      51.529  34.522  52.689  0.00  0.00     0.337 C 
ATOM     18  N   UNL d   1      50.721  34.538  52.761  0.00  0.00    -0.202 NA
ATOM     19  O   UNL d   1      51.877  34.328  51.968  0.00  0.00    -0.260 OA
BRANCH  18  20
ATOM     20  C   UNL d   1      50.240  34.358  52.111  0.00  0.00     0.102 C 
BRANCH  20  21
ATOM     21  C   UNL d   1      49.489  34.678  52.048  0.00  0.00     0.019 A 
ATOM     22  C   UNL d   1      49.131  35.046  52.684  0.00  0.00     0.002 A 
ATOM     23  C   UNL d   1      48.385  35.367  52.632  0.00  0.00     0.011 A 
ATOM     24  C   UNL d   1      47.972  35.319  51.909  0.00  0.00     0.058 A 
ATOM     25  C   UNL d   1      48.318  34.951  51.260  0.00  0.00     0.011 A 
ATOM     26 CL   UNL d   1      47.208  35.644  51.848  0.00  0.00    -0.082 Cl
ATOM     27  C   UNL d   1      49.075  34.629  51.324  0.00  0.00     0.002 A 
ENDBRANCH  20  21
ENDBRANCH  18  20
ENDBRANCH   1  17
TORSDOF 6
ENDMDL
MODEL 2
REMARK VINA RESULT:      -7.6      2.244      4.970
REMARK  6 active torsions:
REMARK  status: ('A' for Active; 'I' for Inactive)
REMARK       I    between atoms: C_2  and  N_1 
REMARK    1  A    between atoms: C_3  and  C_2 
REMARK    2  A    between atoms: C_12  and  C_4 
REMARK       I    between atoms: C_5  and  N_8 
REMARK    3  A    between atoms: C_6  and  C_5 
REMARK       I    between atoms: N_9  and  C_6 
REMARK    4  A    between atoms: N_8  and  C_12 
REMARK    5  A    between atoms: C_19  and  N_9 
REMARK    6  A    between atoms: C_21  and  C_19 
ROOT
ATOM      1  C   UNL d   1      54.326  33.126  54.957  0.00  0.00     0.337 C 
ATOM      2  N   UNL d   1      53.757  33.715  54.933  0.00  0.00    -0.199 NA
ATOM      3  O   UNL d   1      54.798  33.039  55.625  0.00  0.00    -0.260 OA
ENDROOT
BRANCH   2   4
ATOM      4  C   UNL d   1      53.284  33.801  54.264  0.00  0.00     0.146 C 
BRANCH   4   5
ATOM      5  C   UNL d   1      52.887  34.520  54.132  0.00  0.00     0.190 A 
ATOM      6  N   UNL d   1      52.169  34.594  53.737  0.00  0.00    -0.250 N 
ATOM      7  C   UNL d   1      51.668  34.036  53.383  0.00  0.00     0.272 C 
ATOM      8  C   UNL d   1      51.980  35.400  53.733  0.00  0.00     0.112 A 
ATOM      9  O   UNL d   1      51.871  33.235  53.395  0.00  0.00    -0.266 OA
ATOM     10  C   UNL d   1      52.576  35.809  54.121  0.00  0.00     0.144 A 
ATOM     11  O   UNL d   1      53.139  35.251  54.368  0.00  0.00    -0.285 OA
BRANCH   7  12
ATOM     12  C   UNL d   1      50.970  34.275  53.020  0.00  0.00     0.086 A 
ATOM     13  S   UNL d   1      50.262  34.573  53.336  0.00  0.00    -0.082 SA
ATOM     14  C   UNL d   1      49.745  34.720  52.694  0.00  0.00     0.036 A 
ATOM     15  C   UNL d   1      50.141  34.512  52.001  0.00  0.00     0.008 A 
ATOM     16  C   UNL d   1      50.892  34.239  52.195  0.00  0.00     0.012 A 
ENDBRANCH   7  12
ENDBRANCH   4   5
ENDBRANCH   2   4
BRANCH   1  17
ATOM     17  C   UNL d   1      54.430  32.615  54.315  0.00  0.00     0.337 C 
ATOM     18  N   UNL d   1      54.068  31.889  54.306  0.00  0.00    -0.202 NA
ATOM     19  O   UNL d   1      54.905  32.849  53.684  0.00  0.00    -0.260 OA
BRANCH  18  20
ATOM     20  C   UNL d   1      54.172  31.378  53.663  0.00  0.00     0.102 C 
BRANCH  20  21
ATOM     21  C   UNL d   1      53.701  30.714  53.579  0.00  0.00     0.019 A 
ATOM     22  C   UNL d   1      53.710  30.115  54.134  0.00  0.00     0.002 A 
ATOM     23  C   UNL d   1      53.246  29.451  54.060  0.00  0.00     0.011 A 
ATOM     24  C   UNL d   1      52.745  29.378  53.396  0.00  0.00     0.058 A 
ATOM     25  C   UNL d   1      52.724  29.972  52.828  0.00  0.00     0.011 A 
ATOM     26 CL   UNL d   1      52.267  28.701  53.312  0.00  0.00    -0.082 Cl
ATOM     27  C   UNL d   1      53.199  30.641  52.915  0.00  0.00     0.002 A 
ENDBRANCH  20  21
ENDBRANCH  18  20
ENDBRANCH   1  17
TORSDOF 6
ENDMDL
MODEL 3
REMARK VINA RESULT:      -7.5      2.920      5.858
REMARK  6 active torsions:
REMARK  status: ('A' for Active; 'I' for Inactive)
REMARK       I    between atoms: C_2  and  N_1 
REMARK    1  A    between atoms: C_3  and  C_2 
REMARK    2  A    between atoms: C_12  and  C_4 
REMARK       I    between atoms: C_5  and  N_8 
REMARK    3  A    between atoms: C_6  and  C_5 
REMARK       I    between atoms: N_9  and  C_6 
REMARK    4  A    between atoms: N_8  and  C_12 
REMARK    5  A    between atoms: C_19  and  N_9 
REMARK    6  A    between atoms: C_21  and  C_19 
ROOT
ATOM      1  C   UNL d   1      51.338  34.111  51.936  0.00  0.00     0.337 C 
ATOM      2  N   UNL d   1      50.644  34.480  51.704  0.00  0.00    -0.199 NA
ATOM      3  O   UNL d   1      51.966  34.048  51.408  0.00  0.00    -0.260 OA
ENDROOT
BRANCH   2   4
ATOM      4  C   UNL d   1      50.017  34.543  52.233  0.00  0.00     0.146 C 
BRANCH   4   5
ATOM      5  C   UNL d   1      49.256  34.721  51.949  0.00  0.00     0.190 A 
ATOM      6  N   UNL d   1      48.697  35.170  52.352  0.00  0.00    -0.250 N 
ATOM      7  C   UNL d   1      48.712  35.547  53.091  0.00  0.00     0.272 C 
ATOM      8  C   UNL d   1      48.026  35.207  51.869  0.00  0.00     0.112 A 
ATOM      9  O   UNL d   1      49.390  35.500  53.561  0.00  0.00    -0.266 OA
ATOM     10  C   UNL d   1      48.177  34.786  51.181  0.00  0.00     0.144 A 
ATOM     11  O   UNL d   1      48.948  34.485  51.239  0.00  0.00    -0.285 OA
BRANCH   7  12
ATOM     12  C   UNL d   1      48.057  35.966  53.358  0.00  0.00     0.086 A 
ATOM     13  S   UNL d   1      47.485  36.407  52.949  0.00  0.00    -0.082 SA
ATOM     14  C   UNL d   1      46.950  36.709  53.516  0.00  0.00     0.036 A 
ATOM     15  C   UNL d   1      47.200  36.450  54.259  0.00  0.00     0.008 A 
ATOM     16  C   UNL d   1      47.879  35.994  54.167  0.00  0.00     0.012 A 
ENDBRANCH   7  12
ENDBRANCH   4   5
ENDBRANCH   2   4
BRANCH   1  17
ATOM     17  C   UNL d   1      51.414  33.799  52.698  0.00  0.00     0.337 C 
ATOM     18  N   UNL d   1      52.076  33.957  53.141  0.00  0.00    -0.202 NA
ATOM     19  O   UNL d   1      50.814  33.327  53.006  0.00  0.00    -0.260 OA
BRANCH  18  20
ATOM     20  C   UNL d   1      52.153  33.645  53.904  0.00  0.00     0.102 C 
BRANCH  20  21
ATOM     21  C   UNL d   1      52.880  33.637  54.279  0.00  0.00     0.019 A 
ATOM     22  C   UNL d   1      53.285  32.938  54.402  0.00  0.00     0.002 A 
ATOM     23  C   UNL d   1      54.008  32.919  54.774  0.00  0.00     0.011 A 
ATOM     24  C   UNL d   1      54.348  33.634  55.039  0.00  0.00     0.058 A 
ATOM     25  C   UNL d   1      53.953  34.345  54.923  0.00  0.00     0.011 A 
ATOM     26 CL   UNL d   1      55.088  33.622  55.421  0.00  0.00    -0.082 Cl
ATOM     27  C   UNL d   1      53.220  34.353  54.544  0.00  0.00     0.002 A 
ENDBRANCH  20  21
ENDBRANCH  18  20
ENDBRANCH   1  17
TORSDOF 6
ENDMDL
MODEL 4
REMARK VINA RESULT:      -7.5      1.320      2.367
REMARK  6 active torsions:
REMARK  status: ('A' for Active; 'I' for Inactive)
REMARK       I    between atoms: C_2  and  N_1 
REMARK    1  A    between atoms: C_3  and  C_2 
REMARK    2  A    between atoms: C_12  and  C_4 
REMARK       I    between atoms: C_5  and  N_8 
REMARK    3  A    between atoms: C_6  and  C_5 
REMARK       I    between atoms: N_9  and  C_6 
REMARK    4  A    between atoms: N_8  and  C_12 
REMARK    5  A    between atoms: C_19  and  N_9 
REMARK    6  A    between atoms: C_21  and  C_19 
ROOT
ATOM      1  C   UNL d   1      51.106  34.144  51.916  0.00  0.00     0.337 C 
ATOM      2  N   UNL d   1      51.826  33.835  52.157  0.00  0.00    -0.199 NA
ATOM      3  O   UNL d   1      51.025  34.451  51.157  0.00  0.00    -0.260 OA
ENDROOT
BRANCH   2   4
ATOM      4  C   UNL d   1      51.907  33.528  52.916  0.00  0.00     0.146 C 
BRANCH   4   5
ATOM      5  C   UNL d   1      52.491  32.956  53.068  0.00  0.00     0.190 A 
ATOM      6  N   UNL d   1      53.096  33.036  53.620  0.00  0.00    -0.250 N 
ATOM      7  C   UNL d   1      53.294  33.647  54.145  0.00  0.00     0.272 C 
ATOM      8  C   UNL d   1      53.544  32.341  53.587  0.00  0.00     0.112 A 
ATOM      9  O   UNL d   1      52.835  34.335  54.165  0.00  0.00    -0.266 OA
ATOM     10  C   UNL d   1      53.215  31.846  53.021  0.00  0.00     0.144 A 
ATOM     11  O   UNL d   1      52.557  32.237  52.702  0.00  0.00    -0.285 OA
BRANCH   7  12
ATOM     12  C   UNL d   1      53.943  33.574  54.644  0.00  0.00     0.086 A 
ATOM     13  S   UNL d   1      54.068  33.099  55.313  0.00  0.00    -0.082 SA
ATOM     14  C   UNL d   1      54.840  33.262  55.594  0.00  0.00     0.036 A 
ATOM     15  C   UNL d   1      55.173  33.829  55.096  0.00  0.00     0.008 A 
ATOM     16  C   UNL d   1      54.627  34.024  54.511  0.00  0.00     0.012 A 
ENDBRANCH   7  12
ENDBRANCH   4   5
ENDBRANCH   2   4
BRANCH   1  17
ATOM     17  C   UNL d   1      50.458  34.149  52.430  0.00  0.00     0.337 C 
ATOM     18  N   UNL d   1      49.905  34.742  52.383  0.00  0.00    -0.202 NA
ATOM     19  O   UNL d   1      50.378  33.551  52.989  0.00  0.00    -0.260 OA
BRANCH  18  20
ATOM     20  C   UNL d   1      49.256  34.748  52.897  0.00  0.00     0.102 C 
BRANCH  20  21
ATOM     21  C   UNL d   1      48.610  35.229  52.747  0.00  0.00     0.019 A 
ATOM     22  C   UNL d   1      48.156  35.130  52.076  0.00  0.00     0.002 A 
ATOM     23  C   UNL d   1      47.512  35.601  51.917  0.00  0.00     0.011 A 
ATOM     24  C   UNL d   1      47.310  36.206  52.456  0.00  0.00     0.058 A 
ATOM     25  C   UNL d   1      47.758  36.319  53.136  0.00  0.00     0.011 A 
ATOM     26 CL   UNL d   1      46.653  36.694  52.301  0.00  0.00    -0.082 Cl
ATOM     27  C   UNL d   1      48.408  35.834  53.287  0.00  0.00     0.002 A 
ENDBRANCH  20  21
ENDBRANCH  18  20
ENDBRANCH   1  17
TORSDOF 6
ENDMDL
MODEL 5
REMARK VINA RESULT:      -6.7      2.634      5.782
REMARK  6 active torsions:
REMARK  status: ('A' for Active; 'I' for Inactive)
REMARK       I    between atoms: C_2  and  N_1 
REMARK    1  A    between atoms: C_3  and  C_2 
REMARK    2  A    between atoms: C_12  and  C_4 
REMARK       I    between atoms: C_5  and  N_8 
REMARK    3  A    between atoms: C_6  and  C_5 
REMARK       I    between atoms: N_9  and  C_6 
REMARK    4  A    between atoms: N_8  and  C_12 
REMARK    5  A    between atoms: C_19  and  N_9 
REMARK    6  A    between atoms: C_21  and  C_19 
ROOT
ATOM      1  C   UNL d   1      51.720  34.413  52.424  0.00  0.00     0.337 C 
ATOM      2  N   UNL d   1      51.019  34.741  52.153  0.00  0.00    -0.199 NA
ATOM      3  O   UNL d   1      52.437  34.650  52.096  0.00  0.00    -0.260 OA
ENDROOT
BRANCH   2   4
ATOM      4  C   UNL d   1      50.303  34.504  52.481  0.00  0.00     0.146 C 
BRANCH   4   5
ATOM      5  C   UNL d   1      49.601  34.594  52.045  0.00  0.00     0.190 A 
ATOM      6  N   UNL d   1      48.953  35.042  52.283  0.00  0.00    -0.250 N 
ATOM      7  C   UNL d   1      48.809  35.497  52.961  0.00  0.00     0.272 C 
ATOM      8  C   UNL d   1      48.384  34.976  51.685  0.00  0.00     0.112 A 
ATOM      9  O   UNL d   1      49.388  35.552  53.549  0.00  0.00    -0.266 OA
ATOM     10  C   UNL d   1      48.684  34.495  51.092  0.00  0.00     0.144 A 
ATOM     11  O   UNL d   1      49.445  34.260  51.324  0.00  0.00    -0.285 OA
BRANCH   7  12
ATOM     12  C   UNL d   1      48.095  35.893  53.052  0.00  0.00     0.086 A 
ATOM     13  S   UNL d   1      47.685  36.408  52.546  0.00  0.00    -0.082 SA
ATOM     14  C   UNL d   1      46.984  36.640  52.939  0.00  0.00     0.036 A 
ATOM     15  C   UNL d   1      46.975  36.267  53.676  0.00  0.00     0.008 A 
ATOM     16  C   UNL d   1      47.654  35.808  53.750  0.00  0.00     0.012 A 
ENDBRANCH   7  12
ENDBRANCH   4   5
ENDBRANCH   2   4
BRANCH   1  17
ATOM     17  C   UNL d   1      51.715  33.845  53.024  0.00  0.00     0.337 C 
ATOM     18  N   UNL d   1      52.038  33.111  52.896  0.00  0.00    -0.202 NA
ATOM     19  O   UNL d   1      51.379  34.027  53.753  0.00  0.00    -0.260 OA
BRANCH  18  20
ATOM     20  C   UNL d   1      52.032  32.542  53.497  0.00  0.00     0.102 C 
BRANCH  20  21
ATOM     21  C   UNL d   1      52.502  31.873  53.441  0.00  0.00     0.019 A 
ATOM     22  C   UNL d   1      52.257  31.218  53.019  0.00  0.00     0.002 A 
ATOM     23  C   UNL d   1      52.715  30.549  52.957  0.00  0.00     0.011 A 
ATOM     24  C   UNL d   1      53.459  30.530  53.337  0.00  0.00     0.058 A 
ATOM     25  C   UNL d   1      53.719  31.181  53.765  0.00  0.00     0.011 A 
ATOM     26 CL   UNL d   1      53.934  29.848  53.278  0.00  0.00    -0.082 Cl
ATOM     27  C   UNL d   1      53.245  31.854  53.821  0.00  0.00     0.002 A 
ENDBRANCH  20  21
ENDBRANCH  18  20
ENDBRANCH   1  17
TORSDOF 6
ENDMDL
