MODEL 1
REMARK VINA RESULT:      56.1      0.000      0.000
REMARK  5 active torsions:
REMARK  status: ('A' for Active; 'I' for Inactive)
REMARK    1  A    between atoms: N_2  and  S_1 
REMARK    2  A    between atoms: C_5  and  S_1 
REMARK    3  A    between atoms: S_6  and  C_3 
REMARK    4  A    between atoms: C_15  and  S_6 
REMARK    5  A    between atoms: C_14  and  C_15 
ROOT
ATOM      1  N   UNL d   1      60.146  48.581  50.637  0.00  0.00    -0.208 N 
ATOM      2  C   UNL d   1      59.325  48.633  50.523  0.00  0.00     0.189 A 
ATOM      3  N   UNL d   1      58.984  47.923  50.771  0.00  0.00    -0.219 NA
ATOM      4  C   UNL d   1      60.311  47.833  50.958  0.00  0.00     0.114 A 
ATOM      5  C   UNL d   1      59.595  47.432  51.038  0.00  0.00     0.121 A 
ENDROOT
BRANCH   1   6
ATOM      6  S   UNL d   1      60.699  49.173  50.461  0.00  0.00     0.273 S 
ATOM      7  O   UNL d   1      61.177  49.708  50.050  0.00  0.00    -0.200 OA
ATOM      8  O   UNL d   1      60.520  49.055  49.672  0.00  0.00    -0.200 OA
BRANCH   6   9
ATOM      9  C   UNL d   1      60.892  49.307  51.253  0.00  0.00     0.104 A 
ATOM     10  C   UNL d   1      61.669  49.210  51.497  0.00  0.00     0.013 A 
ATOM     11  C   UNL d   1      61.858  49.345  52.291  0.00  0.00     0.001 A 
ATOM     12  C   UNL d   1      61.273  49.573  52.828  0.00  0.00     0.000 A 
ATOM     13  C   UNL d   1      60.493  49.667  52.571  0.00  0.00     0.001 A 
ATOM     14  C   UNL d   1      61.466  49.706  53.620  0.00  0.00     0.000 C 
ATOM     15  C   UNL d   1      60.303  49.533  51.778  0.00  0.00     0.013 A 
ENDBRANCH   6   9
ENDBRANCH   1   6
BRANCH   2  16
ATOM     16  S   UNL d   1      58.917  49.289  50.212  0.00  0.00    -0.049 SA
BRANCH  16  17
ATOM     17  C   UNL d   1      58.233  49.557  50.582  0.00  0.00     0.040 C 
BRANCH  17  18
ATOM     18  C   UNL d   1      57.520  49.559  50.171  0.00  0.00     0.026 A 
ATOM     19  C   UNL d   1      56.801  49.414  50.579  0.00  0.00     0.099 A 
ATOM     20  N   UNL d   1      56.082  49.413  50.183  0.00  0.00    -0.242 NA
ATOM     21  C   UNL d   1      56.078  49.558  49.372  0.00  0.00     0.099 A 
ATOM     22  C   UNL d   1      56.780  49.701  48.967  0.00  0.00     0.021 A 
ATOM     23  C   UNL d   1      57.500  49.701  49.368  0.00  0.00     0.004 A 
ENDBRANCH  17  18
ENDBRANCH  16  17
ENDBRANCH   2  16
TORSDOF 5
ENDMDL
MODEL 2
REMARK VINA RESULT:      58.9      1.488      2.392
REMARK  5 active torsions:
REMARK  status: ('A' for Active; 'I' for Inactive)
REMARK    1  A    between atoms: N_2  and  S_1 
REMARK    2  A    between atoms: C_5  and  S_1 
REMARK    3  A    between atoms: S_6  and  C_3 
REMARK    4  A    between atoms: C_15  and  S_6 
REMARK    5  A    between atoms: C_14  and  C_15 
ROOT
ATOM      1  N   UNL d   1      60.517  48.833  50.869  0.00  0.00    -0.208 N 
ATOM      2  C   UNL d   1      59.971  49.327  50.484  0.00  0.00     0.189 A 
ATOM      3  N   UNL d   1      60.360  49.706  49.862  0.00  0.00    -0.219 NA
ATOM      4  C   UNL d   1      61.247  48.909  50.479  0.00  0.00     0.114 A 
ATOM      5  C   UNL d   1      61.146  49.446  49.862  0.00  0.00     0.121 A 
ENDROOT
BRANCH   1   6
ATOM      6  S   UNL d   1      60.358  48.352  51.524  0.00  0.00     0.273 S 
ATOM      7  O   UNL d   1      60.117  48.092  52.272  0.00  0.00    -0.200 OA
ATOM      8  O   UNL d   1      60.073  49.020  51.900  0.00  0.00    -0.200 OA
BRANCH   6   9
ATOM      9  C   UNL d   1      60.641  47.666  51.161  0.00  0.00     0.104 A 
ATOM     10  C   UNL d   1      60.298  46.944  51.346  0.00  0.00     0.013 A 
ATOM     11  C   UNL d   1      60.584  46.261  50.980  0.00  0.00     0.001 A 
ATOM     12  C   UNL d   1      61.205  46.305  50.436  0.00  0.00     0.000 A 
ATOM     13  C   UNL d   1      61.543  47.038  50.257  0.00  0.00     0.001 A 
ATOM     14  C   UNL d   1      61.488  45.620  50.072  0.00  0.00     0.000 C 
ATOM     15  C   UNL d   1      61.257  47.722  50.623  0.00  0.00     0.013 A 
ENDBRANCH   6   9
ENDBRANCH   1   6
BRANCH   2  16
ATOM     16  S   UNL d   1      59.171  49.423  50.692  0.00  0.00    -0.049 SA
BRANCH  16  17
ATOM     17  C   UNL d   1      58.607  49.540  50.103  0.00  0.00     0.040 C 
BRANCH  17  18
ATOM     18  C   UNL d   1      57.807  49.497  50.289  0.00  0.00     0.026 A 
ATOM     19  C   UNL d   1      57.255  49.246  49.709  0.00  0.00     0.099 A 
ATOM     20  N   UNL d   1      56.454  49.198  49.879  0.00  0.00    -0.242 NA
ATOM     21  C   UNL d   1      56.199  49.402  50.635  0.00  0.00     0.099 A 
ATOM     22  C   UNL d   1      56.735  49.648  51.208  0.00  0.00     0.021 A 
ATOM     23  C   UNL d   1      57.539  49.695  51.033  0.00  0.00     0.004 A 
ENDBRANCH  17  18
ENDBRANCH  16  17
ENDBRANCH   2  16
TORSDOF 5
ENDMDL
