MODEL 1
REMARK VINA RESULT:      15.9      0.000      0.000
REMARK  4 active torsions:
REMARK  status: ('A' for Active; 'I' for Inactive)
REMARK    1  A    between atoms: C_2  and  N_1 
REMARK    2  A    between atoms: N_7  and  C_3 
REMARK    3  A    between atoms: C_12  and  N_7 
REMARK    4  A    between atoms: C_13  and  C_12 
ROOT
ATOM      1  C   UNL d   1      14.677  12.292  -1.314  0.00  0.00     0.200 A 
ATOM      2  C   UNL d   1      13.961  12.046  -1.664  0.00  0.00     0.189 A 
ATOM      3  C   UNL d   1      14.740  12.292  -0.502  0.00  0.00     0.210 A 
ATOM      4  N   UNL d   1      13.328  11.807  -1.192  0.00  0.00    -0.203 NA
ATOM      5  N   UNL d   1      14.127  12.059  -0.025  0.00  0.00    -0.202 NA
ATOM      6  C   UNL d   1      13.411  11.813  -0.375  0.00  0.00     0.202 A 
ATOM      7  N   UNL d   1      15.456  12.538  -0.152  0.00  0.00    -0.125 N 
ENDROOT
BRANCH   2   8
ATOM      8  N   UNL d   1      13.876  12.038  -2.476  0.00  0.00    -0.224 NA
BRANCH   8   9
ATOM      9  C   UNL d   1      13.163  12.239  -2.822  0.00  0.00     0.101 C 
BRANCH   9  10
ATOM     10  C   UNL d   1      13.128  12.412  -3.631  0.00  0.00     0.019 A 
ATOM     11  C   UNL d   1      12.952  13.186  -3.882  0.00  0.00     0.002 A 
ATOM     12  C   UNL d   1      12.917  13.355  -4.689  0.00  0.00     0.000 A 
ATOM     13  C   UNL d   1      13.052  12.775  -5.234  0.00  0.00     0.000 A 
ATOM     14  C   UNL d   1      13.227  12.006  -4.990  0.00  0.00     0.000 A 
ATOM     15  C   UNL d   1      13.018  12.941  -6.038  0.00  0.00     0.000 C 
ATOM     16  C   UNL d   1      13.263  11.831  -4.176  0.00  0.00     0.002 A 
ENDBRANCH   9  10
ENDBRANCH   8   9
ENDBRANCH   2   8
BRANCH   1  17
ATOM     17  N   UNL d   1      15.307  12.530  -1.777  0.00  0.00    -0.107 N 
ATOM     18  O   UNL d   1      15.814  11.969  -2.073  0.00  0.00    -0.531 OA
ATOM     19  O   UNL d   1      15.422  13.326  -1.937  0.00  0.00    -0.531 OA
ENDBRANCH   1  17
TORSDOF 4
ENDMDL
