MODEL 1
REMARK VINA RESULT:      30.1      0.000      0.000
REMARK  7 active torsions:
REMARK  status: ('A' for Active; 'I' for Inactive)
REMARK    1  A    between atoms: C_2  and  S_1 
REMARK    2  A    between atoms: N_6  and  S_1 
REMARK    3  A    between atoms: O_14  and  C_5 
REMARK    4  A    between atoms: C_15  and  N_6 
REMARK    5  A    between atoms: O_16  and  C_7 
REMARK    6  A    between atoms: C_11  and  C_19 
REMARK    7  A    between atoms: C_19  and  C_15 
ROOT
ATOM      1  C   UNL d   1     -55.478 -98.972 -44.235  0.00  0.00     0.112 C 
ENDROOT
BRANCH   1   2
ATOM      2  N   UNL d   1     -54.993 -99.635 -44.224  0.00  0.00    -0.157 NA
BRANCH   2   3
ATOM      3  S   UNL d   1     -54.963-100.144 -44.874  0.00  0.00     0.285 S 
ATOM      4  O   UNL d   1     -54.957 -99.488 -45.373  0.00  0.00    -0.198 OA
ATOM      5  O   UNL d   1     -54.933-100.639 -45.523  0.00  0.00    -0.198 OA
BRANCH   3   6
ATOM      6  C   UNL d   1     -54.969-100.796 -44.366  0.00  0.00     0.105 A 
ATOM      7  C   UNL d   1     -54.837-100.699 -43.555  0.00  0.00     0.013 A 
ATOM      8  C   UNL d   1     -54.845-101.355 -43.055  0.00  0.00     0.001 A 
ATOM      9  C   UNL d   1     -54.714-101.261 -42.247  0.00  0.00     0.000 C 
ATOM     10  C   UNL d   1     -54.984-102.110 -43.366  0.00  0.00     0.000 A 
ATOM     11  C   UNL d   1     -55.115-102.204 -44.174  0.00  0.00     0.001 A 
ATOM     12  C   UNL d   1     -55.108-101.548 -44.674  0.00  0.00     0.013 A 
ENDBRANCH   3   6
ENDBRANCH   2   3
ENDBRANCH   1   2
BRANCH   1  13
ATOM     13  C   UNL d   1     -56.075 -98.922 -44.791  0.00  0.00     0.022 C 
BRANCH  13  14
ATOM     14  C   UNL d   1     -56.854 -98.883 -44.546  0.00  0.00     0.004 A 
ATOM     15  C   UNL d   1     -57.468 -98.890 -45.097  0.00  0.00     0.026 A 
ATOM     16  C   UNL d   1     -58.253 -98.851 -44.847  0.00  0.00     0.116 A 
ATOM     17  C   UNL d   1     -58.420 -98.804 -44.028  0.00  0.00     0.116 A 
ATOM     18  C   UNL d   1     -57.812 -98.797 -43.488  0.00  0.00     0.026 A 
ATOM     19  C   UNL d   1     -57.030 -98.836 -43.736  0.00  0.00     0.002 A 
BRANCH  16  20
ATOM     20  O   UNL d   1     -58.864 -98.858 -45.401  0.00  0.00    -0.326 OA
ATOM     21  C   UNL d   1     -58.805 -98.833 -46.271  0.00  0.00     0.181 C 
ENDBRANCH  16  20
BRANCH  17  22
ATOM     22  O   UNL d   1     -59.178 -98.765 -43.768  0.00  0.00    -0.326 OA
ATOM     23  C   UNL d   1     -59.358 -98.861 -42.980  0.00  0.00     0.181 C 
ENDBRANCH  17  22
ENDBRANCH  13  14
ENDBRANCH   1  13
TORSDOF 7
ENDMDL
MODEL 2
REMARK VINA RESULT:      31.0      0.460      1.206
REMARK  7 active torsions:
REMARK  status: ('A' for Active; 'I' for Inactive)
REMARK    1  A    between atoms: C_2  and  S_1 
REMARK    2  A    between atoms: N_6  and  S_1 
REMARK    3  A    between atoms: O_14  and  C_5 
REMARK    4  A    between atoms: C_15  and  N_6 
REMARK    5  A    between atoms: O_16  and  C_7 
REMARK    6  A    between atoms: C_11  and  C_19 
REMARK    7  A    between atoms: C_19  and  C_15 
ROOT
ATOM      1  C   UNL d   1     -55.290 -99.199 -44.549  0.00  0.00     0.112 C 
ENDROOT
BRANCH   1   2
ATOM      2  N   UNL d   1     -55.236-100.009 -44.423  0.00  0.00    -0.157 NA
BRANCH   2   3
ATOM      3  S   UNL d   1     -55.035-100.518 -45.042  0.00  0.00     0.285 S 
ATOM      4  O   UNL d   1     -55.126 -99.891 -45.571  0.00  0.00    -0.198 OA
ATOM      5  O   UNL d   1     -54.838-101.013 -45.661  0.00  0.00    -0.198 OA
BRANCH   3   6
ATOM      6  C   UNL d   1     -54.947-101.140 -44.505  0.00  0.00     0.105 A 
ATOM      7  C   UNL d   1     -54.999-101.003 -43.690  0.00  0.00     0.013 A 
ATOM      8  C   UNL d   1     -54.909-101.630 -43.161  0.00  0.00     0.001 A 
ATOM      9  C   UNL d   1     -54.961-101.496 -42.350  0.00  0.00     0.000 C 
ATOM     10  C   UNL d   1     -54.767-102.394 -43.446  0.00  0.00     0.000 A 
ATOM     11  C   UNL d   1     -54.715-102.527 -44.258  0.00  0.00     0.001 A 
ATOM     12  C   UNL d   1     -54.805-101.901 -44.787  0.00  0.00     0.013 A 
ENDBRANCH   3   6
ENDBRANCH   2   3
ENDBRANCH   1   2
BRANCH   1  13
ATOM     13  C   UNL d   1     -55.830 -98.762 -44.116  0.00  0.00     0.022 C 
BRANCH  13  14
ATOM     14  C   UNL d   1     -56.621 -98.776 -44.324  0.00  0.00     0.004 A 
ATOM     15  C   UNL d   1     -57.206 -98.810 -43.743  0.00  0.00     0.026 A 
ATOM     16  C   UNL d   1     -58.003 -98.824 -43.957  0.00  0.00     0.116 A 
ATOM     17  C   UNL d   1     -58.211 -98.803 -44.767  0.00  0.00     0.116 A 
ATOM     18  C   UNL d   1     -57.631 -98.770 -45.336  0.00  0.00     0.026 A 
ATOM     19  C   UNL d   1     -56.837 -98.756 -45.125  0.00  0.00     0.002 A 
BRANCH  16  20
ATOM     20  O   UNL d   1     -58.585 -98.858 -43.373  0.00  0.00    -0.326 OA
ATOM     21  C   UNL d   1     -59.386 -99.200 -43.428  0.00  0.00     0.181 C 
ENDBRANCH  16  20
BRANCH  17  22
ATOM     22  O   UNL d   1     -58.981 -98.816 -44.991  0.00  0.00    -0.326 OA
ATOM     23  C   UNL d   1     -59.201 -99.086 -45.727  0.00  0.00     0.181 C 
ENDBRANCH  17  22
ENDBRANCH  13  14
ENDBRANCH   1  13
TORSDOF 7
ENDMDL
