MODEL 1
REMARK VINA RESULT:      -7.6      0.000      0.000
REMARK  4 active torsions:
REMARK  status: ('A' for Active; 'I' for Inactive)
REMARK    1  A    between atoms: C_9  and  C_3 
REMARK    2  A    between atoms: C_6  and  C_10 
REMARK    3  A    between atoms: S_8  and  C_9 
REMARK    4  A    between atoms: C_10  and  S_8 
ROOT
ATOM      1  C   UNL d   1      51.908  33.923  52.850  0.00  0.00     0.074 C 
ENDROOT
BRANCH   1   2
ATOM      2  S   UNL d   1      52.088  33.121  52.921  0.00  0.00    -0.083 SA
BRANCH   2   3
ATOM      3  C   UNL d   1      52.829  32.912  53.216  0.00  0.00     0.035 C 
BRANCH   3   4
ATOM      4  C   UNL d   1      53.016  32.110  53.272  0.00  0.00     0.006 A 
ATOM      5  C   UNL d   1      53.689  31.898  53.701  0.00  0.00     0.001 A 
ATOM      6  C   UNL d   1      54.169  32.460  54.068  0.00  0.00     0.000 C 
ATOM      7  C   UNL d   1      53.900  31.090  53.773  0.00  0.00     0.000 A 
ATOM      8  C   UNL d   1      53.437  30.521  53.417  0.00  0.00     0.000 A 
ATOM      9  C   UNL d   1      52.774  30.760  52.997  0.00  0.00     0.000 A 
ATOM     10  C   UNL d   1      52.566  31.570  52.927  0.00  0.00     0.001 A 
ENDBRANCH   3   4
ENDBRANCH   2   3
ENDBRANCH   1   2
BRANCH   1  11
ATOM     11  C   UNL d   1      51.153  34.157  52.615  0.00  0.00     0.169 A 
ATOM     12  N   UNL d   1      50.603  34.526  53.115  0.00  0.00    -0.225 NA
ATOM     13  C   UNL d   1      49.917  34.665  52.657  0.00  0.00     0.101 A 
ATOM     14  C   UNL d   1      50.071  34.372  51.874  0.00  0.00     0.101 A 
ATOM     15  C   UNL d   1      49.194  35.002  52.811  0.00  0.00     0.021 A 
ATOM     16  N   UNL d   1      50.846  34.060  51.874  0.00  0.00    -0.225 NA
ATOM     17  C   UNL d   1      49.487  34.440  51.314  0.00  0.00     0.021 A 
ATOM     18  C   UNL d   1      48.790  34.768  51.475  0.00  0.00     0.002 A 
ATOM     19  C   UNL d   1      48.637  35.062  52.258  0.00  0.00     0.002 A 
ENDBRANCH   1  11
TORSDOF 4
ENDMDL
MODEL 2
REMARK VINA RESULT:      -7.4      2.376      4.787
REMARK  4 active torsions:
REMARK  status: ('A' for Active; 'I' for Inactive)
REMARK    1  A    between atoms: C_9  and  C_3 
REMARK    2  A    between atoms: C_6  and  C_10 
REMARK    3  A    between atoms: S_8  and  C_9 
REMARK    4  A    between atoms: C_10  and  S_8 
ROOT
ATOM      1  C   UNL d   1      53.496  32.197  53.068  0.00  0.00     0.074 C 
ENDROOT
BRANCH   1   2
ATOM      2  S   UNL d   1      53.364  32.801  53.614  0.00  0.00    -0.083 SA
BRANCH   2   3
ATOM      3  C   UNL d   1      53.252  33.567  53.329  0.00  0.00     0.035 C 
BRANCH   3   4
ATOM      4  C   UNL d   1      53.207  34.184  53.874  0.00  0.00     0.006 A 
ATOM      5  C   UNL d   1      52.768  34.853  53.667  0.00  0.00     0.001 A 
ATOM      6  C   UNL d   1      52.383  34.915  52.940  0.00  0.00     0.000 C 
ATOM      7  C   UNL d   1      52.707  35.494  54.204  0.00  0.00     0.000 A 
ATOM      8  C   UNL d   1      53.082  35.449  54.927  0.00  0.00     0.000 A 
ATOM      9  C   UNL d   1      53.510  34.773  55.106  0.00  0.00     0.000 A 
ATOM     10  C   UNL d   1      53.570  34.133  54.566  0.00  0.00     0.001 A 
ENDBRANCH   3   4
ENDBRANCH   2   3
ENDBRANCH   1   2
BRANCH   1  11
ATOM     11  C   UNL d   1      53.361  31.411  53.281  0.00  0.00     0.169 A 
ATOM     12  N   UNL d   1      52.787  30.926  52.929  0.00  0.00    -0.225 NA
ATOM     13  C   UNL d   1      52.838  30.182  53.308  0.00  0.00     0.101 A 
ATOM     14  C   UNL d   1      53.453  30.235  53.892  0.00  0.00     0.101 A 
ATOM     15  C   UNL d   1      52.440  29.478  53.226  0.00  0.00     0.021 A 
ATOM     16  N   UNL d   1      53.763  31.010  53.855  0.00  0.00    -0.225 NA
ATOM     17  C   UNL d   1      53.616  29.579  54.342  0.00  0.00     0.021 A 
ATOM     18  C   UNL d   1      53.224  28.903  54.254  0.00  0.00     0.002 A 
ATOM     19  C   UNL d   1      52.608  28.850  53.670  0.00  0.00     0.002 A 
ENDBRANCH   1  11
TORSDOF 4
ENDMDL
MODEL 3
REMARK VINA RESULT:      -7.1      1.462      4.804
REMARK  4 active torsions:
REMARK  status: ('A' for Active; 'I' for Inactive)
REMARK    1  A    between atoms: C_9  and  C_3 
REMARK    2  A    between atoms: C_6  and  C_10 
REMARK    3  A    between atoms: S_8  and  C_9 
REMARK    4  A    between atoms: C_10  and  S_8 
ROOT
ATOM      1  C   UNL d   1      52.060  33.803  52.684  0.00  0.00     0.074 C 
ENDROOT
BRANCH   1   2
ATOM      2  S   UNL d   1      51.315  34.106  52.869  0.00  0.00    -0.083 SA
BRANCH   2   3
ATOM      3  C   UNL d   1      50.747  34.138  52.271  0.00  0.00     0.035 C 
BRANCH   3   4
ATOM      4  C   UNL d   1      50.040  34.533  52.424  0.00  0.00     0.006 A 
ATOM      5  C   UNL d   1      49.489  34.593  51.812  0.00  0.00     0.001 A 
ATOM      6  C   UNL d   1      49.629  34.273  51.064  0.00  0.00     0.000 C 
ATOM      7  C   UNL d   1      48.762  34.990  51.943  0.00  0.00     0.000 A 
ATOM      8  C   UNL d   1      48.607  35.313  52.675  0.00  0.00     0.000 A 
ATOM      9  C   UNL d   1      49.172  35.238  53.265  0.00  0.00     0.000 A 
ATOM     10  C   UNL d   1      49.899  34.840  53.131  0.00  0.00     0.001 A 
ENDBRANCH   3   4
ENDBRANCH   2   3
ENDBRANCH   1   2
BRANCH   1  11
ATOM     11  C   UNL d   1      52.607  33.659  53.285  0.00  0.00     0.169 A 
ATOM     12  N   UNL d   1      52.823  32.902  53.546  0.00  0.00    -0.225 NA
ATOM     13  C   UNL d   1      53.385  33.009  54.155  0.00  0.00     0.101 A 
ATOM     14  C   UNL d   1      53.499  33.846  54.252  0.00  0.00     0.101 A 
ATOM     15  C   UNL d   1      53.807  32.503  54.631  0.00  0.00     0.021 A 
ATOM     16  N   UNL d   1      53.003  34.228  53.698  0.00  0.00    -0.225 NA
ATOM     17  C   UNL d   1      54.024  34.102  54.815  0.00  0.00     0.021 A 
ATOM     18  C   UNL d   1      54.427  33.602  55.270  0.00  0.00     0.002 A 
ATOM     19  C   UNL d   1      54.313  32.765  55.174  0.00  0.00     0.002 A 
ENDBRANCH   1  11
TORSDOF 4
ENDMDL
MODEL 4
REMARK VINA RESULT:      -7.1      0.799      1.750
REMARK  4 active torsions:
REMARK  status: ('A' for Active; 'I' for Inactive)
REMARK    1  A    between atoms: C_9  and  C_3 
REMARK    2  A    between atoms: C_6  and  C_10 
REMARK    3  A    between atoms: S_8  and  C_9 
REMARK    4  A    between atoms: C_10  and  S_8 
ROOT
ATOM      1  C   UNL d   1      51.765  33.725  52.522  0.00  0.00     0.074 C 
ENDROOT
BRANCH   1   2
ATOM      2  S   UNL d   1      52.175  33.711  53.239  0.00  0.00    -0.083 SA
BRANCH   2   3
ATOM      3  C   UNL d   1      52.826  33.209  53.306  0.00  0.00     0.035 C 
BRANCH   3   4
ATOM      4  C   UNL d   1      53.333  33.312  53.948  0.00  0.00     0.006 A 
ATOM      5  C   UNL d   1      53.814  32.676  54.168  0.00  0.00     0.001 A 
ATOM      6  C   UNL d   1      53.797  31.956  53.766  0.00  0.00     0.000 C 
ATOM      7  C   UNL d   1      54.338  32.755  54.817  0.00  0.00     0.000 A 
ATOM      8  C   UNL d   1      54.367  33.460  55.226  0.00  0.00     0.000 A 
ATOM      9  C   UNL d   1      53.880  34.074  54.986  0.00  0.00     0.000 A 
ATOM     10  C   UNL d   1      53.356  33.992  54.336  0.00  0.00     0.001 A 
ENDBRANCH   3   4
ENDBRANCH   2   3
ENDBRANCH   1   2
BRANCH   1  11
ATOM     11  C   UNL d   1      51.020  34.076  52.481  0.00  0.00     0.169 A 
ATOM     12  N   UNL d   1      50.542  34.073  51.803  0.00  0.00    -0.225 NA
ATOM     13  C   UNL d   1      49.842  34.485  52.000  0.00  0.00     0.101 A 
ATOM     14  C   UNL d   1      49.913  34.734  52.810  0.00  0.00     0.101 A 
ATOM     15  C   UNL d   1      49.164  34.675  51.595  0.00  0.00     0.021 A 
ATOM     16  N   UNL d   1      50.655  34.467  53.086  0.00  0.00    -0.225 NA
ATOM     17  C   UNL d   1      49.301  35.151  53.142  0.00  0.00     0.021 A 
ATOM     18  C   UNL d   1      48.649  35.329  52.739  0.00  0.00     0.002 A 
ATOM     19  C   UNL d   1      48.577  35.080  51.930  0.00  0.00     0.002 A 
ENDBRANCH   1  11
TORSDOF 4
ENDMDL
MODEL 5
REMARK VINA RESULT:      -7.0      2.551      3.389
REMARK  4 active torsions:
REMARK  status: ('A' for Active; 'I' for Inactive)
REMARK    1  A    between atoms: C_9  and  C_3 
REMARK    2  A    between atoms: C_6  and  C_10 
REMARK    3  A    between atoms: S_8  and  C_9 
REMARK    4  A    between atoms: C_10  and  S_8 
ROOT
ATOM      1  C   UNL d   1      54.054  32.355  53.603  0.00  0.00     0.074 C 
ENDROOT
BRANCH   1   2
ATOM      2  S   UNL d   1      53.679  31.674  53.880  0.00  0.00    -0.083 SA
BRANCH   2   3
ATOM      3  C   UNL d   1      53.680  31.004  53.398  0.00  0.00     0.035 C 
BRANCH   3   4
ATOM      4  C   UNL d   1      53.445  30.286  53.727  0.00  0.00     0.006 A 
ATOM      5  C   UNL d   1      52.984  29.780  53.264  0.00  0.00     0.001 A 
ATOM      6  C   UNL d   1      52.758  29.975  52.495  0.00  0.00     0.000 C 
ATOM      7  C   UNL d   1      52.732  29.044  53.576  0.00  0.00     0.000 A 
ATOM      8  C   UNL d   1      52.946  28.835  54.334  0.00  0.00     0.000 A 
ATOM      9  C   UNL d   1      53.404  29.355  54.771  0.00  0.00     0.000 A 
ATOM     10  C   UNL d   1      53.655  30.092  54.456  0.00  0.00     0.001 A 
ENDBRANCH   3   4
ENDBRANCH   2   3
ENDBRANCH   1   2
BRANCH   1  11
ATOM     11  C   UNL d   1      53.777  33.098  53.829  0.00  0.00     0.169 A 
ATOM     12  N   UNL d   1      53.315  33.589  53.346  0.00  0.00    -0.225 NA
ATOM     13  C   UNL d   1      53.159  34.282  53.788  0.00  0.00     0.101 A 
ATOM     14  C   UNL d   1      53.538  34.193  54.543  0.00  0.00     0.101 A 
ATOM     15  C   UNL d   1      52.747  34.966  53.639  0.00  0.00     0.021 A 
ATOM     16  N   UNL d   1      53.916  33.448  54.544  0.00  0.00    -0.225 NA
ATOM     17  C   UNL d   1      53.471  34.796  55.083  0.00  0.00     0.021 A 
ATOM     18  C   UNL d   1      53.069  35.454  54.927  0.00  0.00     0.002 A 
ATOM     19  C   UNL d   1      52.690  35.543  54.172  0.00  0.00     0.002 A 
ENDBRANCH   1  11
TORSDOF 4
ENDMDL
MODEL 6
REMARK VINA RESULT:      -5.8     10.005     10.754
REMARK  4 active torsions:
REMARK  status: ('A' for Active; 'I' for Inactive)
REMARK    1  A    between atoms: C_9  and  C_3 
REMARK    2  A    between atoms: C_6  and  C_10 
REMARK    3  A    between atoms: S_8  and  C_9 
REMARK    4  A    between atoms: C_10  and  S_8 
ROOT
ATOM      1  C   UNL d   1      44.990  30.766  59.515  0.00  0.00     0.074 C 
ENDROOT
BRANCH   1   2
ATOM      2  S   UNL d   1      44.803  30.415  60.238  0.00  0.00    -0.083 SA
BRANCH   2   3
ATOM      3  C   UNL d   1      44.623  30.906  60.876  0.00  0.00     0.035 C 
BRANCH   3   4
ATOM      4  C   UNL d   1      44.549  30.565  61.623  0.00  0.00     0.006 A 
ATOM      5  C   UNL d   1      44.394  31.064  62.263  0.00  0.00     0.001 A 
ATOM      6  C   UNL d   1      44.314  31.880  62.172  0.00  0.00     0.000 C 
ATOM      7  C   UNL d   1      44.314  30.741  63.033  0.00  0.00     0.000 A 
ATOM      8  C   UNL d   1      44.390  29.937  63.141  0.00  0.00     0.000 A 
ATOM      9  C   UNL d   1      44.543  29.465  62.488  0.00  0.00     0.000 A 
ATOM     10  C   UNL d   1      44.623  29.791  61.718  0.00  0.00     0.001 A 
ENDBRANCH   3   4
ENDBRANCH   2   3
ENDBRANCH   1   2
BRANCH   1  11
ATOM     11  C   UNL d   1      44.971  30.319  58.822  0.00  0.00     0.169 A 
ATOM     12  N   UNL d   1      44.756  30.620  58.080  0.00  0.00    -0.225 NA
ATOM     13  C   UNL d   1      44.813  29.985  57.538  0.00  0.00     0.101 A 
ATOM     14  C   UNL d   1      45.067  29.301  57.973  0.00  0.00     0.101 A 
ATOM     15  C   UNL d   1      44.681  29.911  56.740  0.00  0.00     0.021 A 
ATOM     16  N   UNL d   1      45.158  29.535  58.770  0.00  0.00    -0.225 NA
ATOM     17  C   UNL d   1      45.166  28.602  57.572  0.00  0.00     0.021 A 
ATOM     18  C   UNL d   1      45.036  28.542  56.799  0.00  0.00     0.002 A 
ATOM     19  C   UNL d   1      44.782  29.226  56.363  0.00  0.00     0.002 A 
ENDBRANCH   1  11
TORSDOF 4
ENDMDL
MODEL 7
REMARK VINA RESULT:      -4.9      9.758     10.349
REMARK  4 active torsions:
REMARK  status: ('A' for Active; 'I' for Inactive)
REMARK    1  A    between atoms: C_9  and  C_3 
REMARK    2  A    between atoms: C_6  and  C_10 
REMARK    3  A    between atoms: S_8  and  C_9 
REMARK    4  A    between atoms: C_10  and  S_8 
ROOT
ATOM      1  C   UNL d   1      45.302  27.718  57.069  0.00  0.00     0.074 C 
ENDROOT
BRANCH   1   2
ATOM      2  S   UNL d   1      44.963  27.065  57.442  0.00  0.00    -0.083 SA
BRANCH   2   3
ATOM      3  C   UNL d   1      44.885  26.366  57.009  0.00  0.00     0.035 C 
BRANCH   3   4
ATOM      4  C   UNL d   1      44.696  25.675  57.417  0.00  0.00     0.006 A 
ATOM      5  C   UNL d   1      44.547  24.992  56.974  0.00  0.00     0.001 A 
ATOM      6  C   UNL d   1      44.583  24.990  56.150  0.00  0.00     0.000 C 
ATOM      7  C   UNL d   1      44.354  24.277  57.365  0.00  0.00     0.000 A 
ATOM      8  C   UNL d   1      44.314  24.261  58.178  0.00  0.00     0.000 A 
ATOM      9  C   UNL d   1      44.467  24.952  58.593  0.00  0.00     0.000 A 
ATOM     10  C   UNL d   1      44.661  25.668  58.199  0.00  0.00     0.001 A 
ENDBRANCH   3   4
ENDBRANCH   2   3
ENDBRANCH   1   2
BRANCH   1  11
ATOM     11  C   UNL d   1      45.211  28.471  57.394  0.00  0.00     0.169 A 
ATOM     12  N   UNL d   1      44.916  29.125  56.977  0.00  0.00    -0.225 NA
ATOM     13  C   UNL d   1      44.917  29.770  57.510  0.00  0.00     0.101 A 
ATOM     14  C   UNL d   1      45.219  29.486  58.252  0.00  0.00     0.101 A 
ATOM     15  C   UNL d   1      44.700  30.551  57.452  0.00  0.00     0.021 A 
ATOM     16  N   UNL d   1      45.394  28.675  58.153  0.00  0.00    -0.225 NA
ATOM     17  C   UNL d   1      45.278  30.008  58.871  0.00  0.00     0.021 A 
ATOM     18  C   UNL d   1      45.065  30.762  58.803  0.00  0.00     0.002 A 
ATOM     19  C   UNL d   1      44.763  31.046  58.061  0.00  0.00     0.002 A 
ENDBRANCH   1  11
TORSDOF 4
ENDMDL
