MODEL 1
REMARK VINA RESULT:      13.8      0.000      0.000
REMARK  2 active torsions:
REMARK  status: ('A' for Active; 'I' for Inactive)
REMARK    1  A    between atoms: C_4  and  C_1 
REMARK    2  A    between atoms: C_2  and  C_7 
ROOT
ATOM      1  C   UNL d   1      13.545  12.373  -2.739  0.00  0.00     0.003 A 
ATOM      2  C   UNL d   1      13.266  13.364  -3.728  0.00  0.00     0.071 A 
ATOM      3  C   UNL d   1      13.498  13.169  -2.963  0.00  0.00     0.004 A 
ATOM      4  C   UNL d   1      13.362  11.779  -3.273  0.00  0.00     0.000 A 
ATOM      5  C   UNL d   1      13.080  12.771  -4.272  0.00  0.00     0.004 A 
ATOM      6  C   UNL d   1      13.129  11.971  -4.040  0.00  0.00    -0.000 A 
ENDROOT
BRANCH   1   7
ATOM      7  C   UNL d   1      13.778  12.181  -1.971  0.00  0.00     0.042 A 
ATOM      8  C   UNL d   1      13.209  12.076  -1.380  0.00  0.00     0.045 A 
ATOM      9  C   UNL d   1      13.442  11.884  -0.612  0.00  0.00     0.196 A 
ATOM     10  O   UNL d   1      12.874  11.780  -0.021  0.00  0.00    -0.287 OA
ATOM     11  C   UNL d   1      14.243  11.796  -0.435  0.00  0.00     0.045 A 
ATOM     12  C   UNL d   1      14.812  11.901  -1.027  0.00  0.00     0.045 A 
ATOM     13  C   UNL d   1      14.579  12.093  -1.794  0.00  0.00     0.196 A 
ATOM     14  O   UNL d   1      15.147  12.197  -2.386  0.00  0.00    -0.287 OA
ENDBRANCH   1   7
BRANCH   2  15
ATOM     15  C   UNL d   1      13.218  14.156  -3.957  0.00  0.00     0.419 C 
ATOM     16  F   UNL d   1      13.175  14.877  -4.163  0.00  0.00    -0.166 F 
ATOM     17  F   UNL d   1      12.771  14.512  -4.603  0.00  0.00    -0.166 F 
ATOM     18  F   UNL d   1      13.604  14.854  -3.611  0.00  0.00    -0.166 F 
ENDBRANCH   2  15
TORSDOF 2
ENDMDL
MODEL 2
REMARK VINA RESULT:      15.3      0.680      1.325
REMARK  2 active torsions:
REMARK  status: ('A' for Active; 'I' for Inactive)
REMARK    1  A    between atoms: C_4  and  C_1 
REMARK    2  A    between atoms: C_2  and  C_7 
ROOT
ATOM      1  C   UNL d   1      13.751  12.433  -2.437  0.00  0.00     0.003 A 
ATOM      2  C   UNL d   1      13.384  13.289  -3.519  0.00  0.00     0.071 A 
ATOM      3  C   UNL d   1      13.700  13.192  -2.765  0.00  0.00     0.004 A 
ATOM      4  C   UNL d   1      13.491  11.779  -2.856  0.00  0.00     0.000 A 
ATOM      5  C   UNL d   1      13.118  12.634  -3.948  0.00  0.00     0.004 A 
ATOM      6  C   UNL d   1      13.173  11.873  -3.611  0.00  0.00    -0.000 A 
ENDROOT
BRANCH   1   7
ATOM      7  C   UNL d   1      14.069  12.339  -1.681  0.00  0.00     0.042 A 
ATOM      8  C   UNL d   1      14.847  12.572  -1.527  0.00  0.00     0.045 A 
ATOM      9  C   UNL d   1      15.164  12.478  -0.771  0.00  0.00     0.196 A 
ATOM     10  O   UNL d   1      15.943  12.712  -0.617  0.00  0.00    -0.287 OA
ATOM     11  C   UNL d   1      14.704  12.152  -0.170  0.00  0.00     0.045 A 
ATOM     12  C   UNL d   1      13.926  11.919  -0.324  0.00  0.00     0.045 A 
ATOM     13  C   UNL d   1      13.608  12.012  -1.079  0.00  0.00     0.196 A 
ATOM     14  O   UNL d   1      12.830  11.779  -1.233  0.00  0.00    -0.287 OA
ENDBRANCH   1   7
BRANCH   2  15
ATOM     15  C   UNL d   1      13.330  14.042  -3.851  0.00  0.00     0.419 C 
ATOM     16  F   UNL d   1      13.279  14.728  -4.155  0.00  0.00    -0.166 F 
ATOM     17  F   UNL d   1      13.809  14.743  -3.698  0.00  0.00    -0.166 F 
ATOM     18  F   UNL d   1      12.775  14.343  -4.449  0.00  0.00    -0.166 F 
ENDBRANCH   2  15
TORSDOF 2
ENDMDL
