MODEL 1
REMARK VINA RESULT:      36.8      0.000      0.000
REMARK  6 active torsions:
REMARK  status: ('A' for Active; 'I' for Inactive)
REMARK    1  A    between atoms: C_11  and  C_2 
REMARK    2  A    between atoms: S_9  and  C_7 
REMARK    3  A    between atoms: C_13  and  S_9 
REMARK    4  A    between atoms: C_10  and  C_13 
REMARK    5  A    between atoms: O_18  and  C_10 
REMARK    6  A    between atoms: C_23  and  O_18 
ROOT
ATOM      1  N   UNL d   1      46.292 -18.364  43.643  0.00  0.00    -0.191 N 
ATOM      2  C   UNL d   1      46.131 -17.972  44.344  0.00  0.00     0.187 A 
ATOM      3  N   UNL d   1      46.170 -18.522  44.953  0.00  0.00    -0.127 NA
ATOM      4  C   UNL d   1      46.432 -19.155  43.802  0.00  0.00     0.187 A 
ATOM      5  N   UNL d   1      46.329 -18.092  42.850  0.00  0.00    -0.156 NA
ATOM      6  N   UNL d   1      46.356 -19.256  44.625  0.00  0.00    -0.127 NA
ATOM      7  C   UNL d   1      46.507 -18.618  42.240  0.00  0.00     0.131 A 
ATOM      8  C   UNL d   1      46.609 -19.681  43.192  0.00  0.00     0.043 A 
ATOM      9  C   UNL d   1      46.647 -19.413  42.411  0.00  0.00     0.031 A 
ENDROOT
BRANCH   7  10
ATOM     10  S   UNL d   1      46.544 -18.350  41.459  0.00  0.00    -0.061 SA
BRANCH  10  11
ATOM     11  C   UNL d   1      46.072 -18.701  40.882  0.00  0.00     0.094 C 
ATOM     12  C   UNL d   1      46.161 -19.496  40.711  0.00  0.00     0.013 C 
BRANCH  11  13
ATOM     13  C   UNL d   1      45.518 -18.255  40.483  0.00  0.00     0.306 C 
ATOM     14  O   UNL d   1      44.853 -17.968  40.880  0.00  0.00    -0.258 OA
BRANCH  13  15
ATOM     15  O   UNL d   1      45.611 -18.083  39.680  0.00  0.00    -0.271 OA
BRANCH  15  16
ATOM     16  C   UNL d   1      45.043 -17.665  39.282  0.00  0.00     0.126 C 
ATOM     17  C   UNL d   1      45.238 -16.941  38.965  0.00  0.00     0.029 C 
ENDBRANCH  15  16
ENDBRANCH  13  15
ENDBRANCH  11  13
ENDBRANCH  10  11
ENDBRANCH   7  10
BRANCH   2  18
ATOM     18  C   UNL d   1      45.960 -17.176  44.432  0.00  0.00     0.038 A 
ATOM     19  C   UNL d   1      46.525 -16.674  44.770  0.00  0.00     0.005 A 
ATOM     20  C   UNL d   1      46.357 -15.868  44.861  0.00  0.00     0.030 A 
ATOM     21  C   UNL d   1      45.628 -15.571  44.614  0.00  0.00     0.140 A 
ATOM     22  C   UNL d   1      45.063 -16.073  44.276  0.00  0.00     0.030 A 
ATOM     23  F   UNL d   1      45.458 -14.770  44.703  0.00  0.00    -0.204 F 
ATOM     24  C   UNL d   1      45.238 -16.877  44.188  0.00  0.00     0.005 A 
ENDBRANCH   2  18
TORSDOF 6
ENDMDL
MODEL 2
REMARK VINA RESULT:      39.0      0.960      1.332
REMARK  6 active torsions:
REMARK  status: ('A' for Active; 'I' for Inactive)
REMARK    1  A    between atoms: C_11  and  C_2 
REMARK    2  A    between atoms: S_9  and  C_7 
REMARK    3  A    between atoms: C_13  and  S_9 
REMARK    4  A    between atoms: C_10  and  C_13 
REMARK    5  A    between atoms: O_18  and  C_10 
REMARK    6  A    between atoms: C_23  and  O_18 
ROOT
ATOM      1  N   UNL d   1      46.115 -17.347  43.703  0.00  0.00    -0.191 N 
ATOM      2  C   UNL d   1      45.917 -16.729  44.204  0.00  0.00     0.187 A 
ATOM      3  N   UNL d   1      45.806 -17.042  44.955  0.00  0.00    -0.127 NA
ATOM      4  C   UNL d   1      46.130 -18.046  44.129  0.00  0.00     0.187 A 
ATOM      5  N   UNL d   1      46.289 -17.362  42.882  0.00  0.00    -0.156 NA
ATOM      6  N   UNL d   1      45.936 -17.857  44.917  0.00  0.00    -0.127 NA
ATOM      7  C   UNL d   1      46.474 -18.076  42.512  0.00  0.00     0.131 A 
ATOM      8  C   UNL d   1      46.314 -18.760  43.759  0.00  0.00     0.043 A 
ATOM      9  C   UNL d   1      46.486 -18.775  42.951  0.00  0.00     0.031 A 
ENDROOT
BRANCH   7  10
ATOM     10  S   UNL d   1      46.646 -18.091  41.704  0.00  0.00    -0.061 SA
BRANCH  10  11
ATOM     11  C   UNL d   1      46.443 -18.751  41.254  0.00  0.00     0.094 C 
ATOM     12  C   UNL d   1      46.473 -19.497  41.588  0.00  0.00     0.013 C 
BRANCH  11  13
ATOM     13  C   UNL d   1      46.213 -18.658  40.477  0.00  0.00     0.306 C 
ATOM     14  O   UNL d   1      46.583 -19.092  39.880  0.00  0.00    -0.258 OA
BRANCH  13  15
ATOM     15  O   UNL d   1      45.608 -18.132  40.274  0.00  0.00    -0.271 OA
BRANCH  15  16
ATOM     16  C   UNL d   1      45.367 -18.063  39.504  0.00  0.00     0.126 C 
ATOM     17  C   UNL d   1      45.413 -17.336  39.142  0.00  0.00     0.029 C 
ENDBRANCH  15  16
ENDBRANCH  13  15
ENDBRANCH  11  13
ENDBRANCH  10  11
ENDBRANCH   7  10
BRANCH   2  18
ATOM     18  C   UNL d   1      45.842 -15.939  44.002  0.00  0.00     0.038 A 
ATOM     19  C   UNL d   1      45.106 -15.567  44.082  0.00  0.00     0.005 A 
ATOM     20  C   UNL d   1      45.025 -14.768  43.878  0.00  0.00     0.030 A 
ATOM     21  C   UNL d   1      45.678 -14.349  43.597  0.00  0.00     0.140 A 
ATOM     22  C   UNL d   1      46.413 -14.721  43.516  0.00  0.00     0.030 A 
ATOM     23  F   UNL d   1      45.600 -13.555  43.393  0.00  0.00    -0.204 F 
ATOM     24  C   UNL d   1      46.486 -15.519  43.722  0.00  0.00     0.005 A 
ENDBRANCH   2  18
TORSDOF 6
ENDMDL
