MODEL 1
REMARK VINA RESULT:      -6.2      0.000      0.000
REMARK  2 active torsions:
REMARK  status: ('A' for Active; 'I' for Inactive)
REMARK    1  A    between atoms: CA_3  and  C_1 
REMARK    2  A    between atoms: C_2  and  CA_3 
ROOT
ATOM      1  C   UNL d   1     -48.127  12.100  23.058  0.00  0.00     0.026 A 
ATOM      2  C   UNL d   1     -47.747  12.814  22.883  0.00  0.00     0.009 A 
ATOM      3  C   UNL d   1     -46.965  12.932  23.111  0.00  0.00     0.035 A 
ATOM      4 BR   UNL d   1     -46.589  13.642  22.935  0.00  0.00    -0.049 Br
ATOM      5  C   UNL d   1     -47.721  11.507  23.463  0.00  0.00     0.002 A 
ATOM      6  C   UNL d   1     -46.935  11.627  23.692  0.00  0.00     0.001 A 
ATOM      7  C   UNL d   1     -46.559  12.339  23.515  0.00  0.00     0.007 A 
ENDROOT
BRANCH   1   8
ATOM      8  CA  UNL d   1     -48.911  11.986  22.828  0.00  0.00     0.167 C 
ATOM      9  N   UNL d   1     -49.100  11.925  22.032  0.00  0.00    -0.142 N 
BRANCH   8  10
ATOM     10  C   UNL d   1     -49.505  11.934  23.396  0.00  0.00     0.231 C 
ATOM     11  O   UNL d   1     -49.732  11.193  23.695  0.00  0.00    -0.643 OA
ATOM     12  OXT UNL d   1     -49.880  12.619  23.673  0.00  0.00    -0.643 OA
ENDBRANCH   8  10
ENDBRANCH   1   8
TORSDOF 2
ENDMDL
MODEL 2
REMARK VINA RESULT:      -6.0      1.673      2.222
REMARK  2 active torsions:
REMARK  status: ('A' for Active; 'I' for Inactive)
REMARK    1  A    between atoms: CA_3  and  C_1 
REMARK    2  A    between atoms: C_2  and  CA_3 
ROOT
ATOM      1  C   UNL d   1     -47.821  13.643  22.667  0.00  0.00     0.026 A 
ATOM      2  C   UNL d   1     -47.887  12.900  23.024  0.00  0.00     0.009 A 
ATOM      3  C   UNL d   1     -47.221  12.535  23.343  0.00  0.00     0.035 A 
ATOM      4 BR   UNL d   1     -47.289  11.796  23.698  0.00  0.00    -0.049 Br
ATOM      5  C   UNL d   1     -47.087  14.018  22.629  0.00  0.00     0.002 A 
ATOM      6  C   UNL d   1     -46.419  13.650  22.950  0.00  0.00     0.001 A 
ATOM      7  C   UNL d   1     -46.487  12.910  23.306  0.00  0.00     0.007 A 
ENDROOT
BRANCH   1   8
ATOM      8  CA  UNL d   1     -48.491  14.005  22.349  0.00  0.00     0.167 C 
ATOM      9  N   UNL d   1     -48.839  13.702  21.671  0.00  0.00    -0.142 N 
BRANCH   8  10
ATOM     10  C   UNL d   1     -48.811  14.672  22.711  0.00  0.00     0.231 C 
ATOM     11  O   UNL d   1     -49.369  14.587  23.321  0.00  0.00    -0.643 OA
ATOM     12  OXT UNL d   1     -48.579  15.430  22.471  0.00  0.00    -0.643 OA
ENDBRANCH   8  10
ENDBRANCH   1   8
TORSDOF 2
ENDMDL
