MODEL 1
REMARK VINA RESULT:      -2.6      0.000      0.000
REMARK  2 active torsions:
REMARK  status: ('A' for Active; 'I' for Inactive)
REMARK    1  A    between atoms: CA_3  and  C_1 
REMARK    2  A    between atoms: C_2  and  CA_3 
ROOT
ATOM      1  C   UNL d   1      29.874  16.422 -24.087  0.00  0.00     0.026 A 
ATOM      2  C   UNL d   1      30.473  16.944 -24.331  0.00  0.00     0.013 A 
ATOM      3  C   UNL d   1      31.237  16.862 -24.037  0.00  0.00     0.058 A 
ATOM      4 CL   UNL d   1      31.828  17.382 -24.280  0.00  0.00    -0.082 Cl
ATOM      5  C   UNL d   1      30.049  15.821 -23.550  0.00  0.00     0.002 A 
ATOM      6  C   UNL d   1      30.821  15.742 -23.256  0.00  0.00     0.001 A 
ATOM      7  C   UNL d   1      31.411  16.261 -23.499  0.00  0.00     0.011 A 
ENDROOT
BRANCH   1   8
ATOM      8  CA  UNL d   1      29.108  16.507 -24.384  0.00  0.00     0.167 C 
ATOM      9  N   UNL d   1      28.890  16.128 -25.081  0.00  0.00    -0.142 N 
BRANCH   8  10
ATOM     10  C   UNL d   1      28.562  16.973 -23.979  0.00  0.00     0.231 C 
ATOM     11  O   UNL d   1      28.495  17.778 -24.139  0.00  0.00    -0.643 OA
ATOM     12  OXT UNL d   1      28.074  16.633 -23.403  0.00  0.00    -0.643 OA
ENDBRANCH   8  10
ENDBRANCH   1   8
TORSDOF 2
ENDMDL
MODEL 2
REMARK VINA RESULT:      -2.5      0.730      1.103
REMARK  2 active torsions:
REMARK  status: ('A' for Active; 'I' for Inactive)
REMARK    1  A    between atoms: CA_3  and  C_1 
REMARK    2  A    between atoms: C_2  and  CA_3 
ROOT
ATOM      1  C   UNL d   1      29.960  16.670 -24.235  0.00  0.00     0.026 A 
ATOM      2  C   UNL d   1      30.276  16.053 -23.776  0.00  0.00     0.013 A 
ATOM      3  C   UNL d   1      31.070  16.066 -23.559  0.00  0.00     0.058 A 
ATOM      4 CL   UNL d   1      31.380  15.453 -23.104  0.00  0.00    -0.082 Cl
ATOM      5  C   UNL d   1      30.444  17.295 -24.471  0.00  0.00     0.002 A 
ATOM      6  C   UNL d   1      31.244  17.303 -24.250  0.00  0.00     0.001 A 
ATOM      7  C   UNL d   1      31.554  16.691 -23.796  0.00  0.00     0.011 A 
ENDROOT
BRANCH   1   8
ATOM      8  CA  UNL d   1      29.163  16.655 -24.452  0.00  0.00     0.167 C 
ATOM      9  N   UNL d   1      28.918  16.207 -25.096  0.00  0.00    -0.142 N 
BRANCH   8  10
ATOM     10  C   UNL d   1      28.613  17.091 -24.018  0.00  0.00     0.231 C 
ATOM     11  O   UNL d   1      28.483  17.887 -24.185  0.00  0.00    -0.643 OA
ATOM     12  OXT UNL d   1      28.186  16.729 -23.408  0.00  0.00    -0.643 OA
ENDBRANCH   8  10
ENDBRANCH   1   8
TORSDOF 2
ENDMDL
MODEL 3
REMARK VINA RESULT:      -2.4      2.009      2.544
REMARK  2 active torsions:
REMARK  status: ('A' for Active; 'I' for Inactive)
REMARK    1  A    between atoms: CA_3  and  C_1 
REMARK    2  A    between atoms: C_2  and  CA_3 
ROOT
ATOM      1  C   UNL d   1      30.472  16.207 -23.821  0.00  0.00     0.026 A 
ATOM      2  C   UNL d   1      29.775  16.585 -24.071  0.00  0.00     0.013 A 
ATOM      3  C   UNL d   1      29.054  16.395 -23.721  0.00  0.00     0.058 A 
ATOM      4 CL   UNL d   1      28.366  16.772 -23.972  0.00  0.00    -0.082 Cl
ATOM      5  C   UNL d   1      30.438  15.641 -23.222  0.00  0.00     0.002 A 
ATOM      6  C   UNL d   1      29.709  15.453 -22.873  0.00  0.00     0.001 A 
ATOM      7  C   UNL d   1      29.021  15.829 -23.122  0.00  0.00     0.011 A 
ENDROOT
BRANCH   1   8
ATOM      8  CA  UNL d   1      31.193  16.400 -24.173  0.00  0.00     0.167 C 
ATOM      9  N   UNL d   1      31.409  16.058 -24.889  0.00  0.00    -0.142 N 
BRANCH   8  10
ATOM     10  C   UNL d   1      31.699  16.937 -23.803  0.00  0.00     0.231 C 
ATOM     11  O   UNL d   1      32.248  16.682 -23.245  0.00  0.00    -0.643 OA
ATOM     12  OXT UNL d   1      31.656  17.742 -23.991  0.00  0.00    -0.643 OA
ENDBRANCH   8  10
ENDBRANCH   1   8
TORSDOF 2
ENDMDL
