MODEL 1
REMARK VINA RESULT:      45.6      0.000      0.000
REMARK  7 active torsions:
REMARK  status: ('A' for Active; 'I' for Inactive)
REMARK    1  A    between atoms: N_6  and  C_1 
REMARK    2  A    between atoms: S_9  and  C_3 
REMARK       I    between atoms: C_7  and  N_6 
REMARK    3  A    between atoms: C_14  and  C_7 
REMARK    4  A    between atoms: C_8  and  C_13 
REMARK       I    between atoms: N_10  and  C_8 
REMARK    5  A    between atoms: C_13  and  S_9 
REMARK    6  A    between atoms: C_15  and  N_10 
REMARK    7  A    between atoms: C_22  and  C_14 
ROOT
ATOM      1  C   UNL d   1     -49.579  27.293  34.320  0.00  0.00     0.219 A 
ATOM      2  S   UNL d   1     -49.509  26.567  33.950  0.00  0.00    -0.019 SA
ATOM      3  C   UNL d   1     -50.223  26.339  33.711  0.00  0.00     0.165 A 
ATOM      4  N   UNL d   1     -50.386  27.491  34.289  0.00  0.00    -0.120 NA
ATOM      5  N   UNL d   1     -50.773  26.918  33.924  0.00  0.00    -0.133 NA
ENDROOT
BRANCH   3   6
ATOM      6  S   UNL d   1     -50.320  25.603  33.308  0.00  0.00    -0.054 SA
BRANCH   6   7
ATOM      7  C   UNL d   1     -50.790  25.010  33.640  0.00  0.00     0.100 C 
BRANCH   7   8
ATOM      8  C   UNL d   1     -50.545  24.222  33.623  0.00  0.00     0.286 C 
ATOM      9  N   UNL d   1     -51.084  23.629  33.545  0.00  0.00    -0.208 NA
ATOM     10  O   UNL d   1     -49.721  24.033  33.688  0.00  0.00    -0.265 OA
BRANCH   9  11
ATOM     11  C   UNL d   1     -51.913  23.825  33.480  0.00  0.00     0.085 A 
ATOM     12  C   UNL d   1     -52.116  24.615  33.535  0.00  0.00     0.021 A 
ATOM     13  C   UNL d   1     -52.913  24.817  33.474  0.00  0.00     0.031 A 
ATOM     14  C   UNL d   1     -53.486  24.256  33.363  0.00  0.00     0.140 A 
ATOM     15  C   UNL d   1     -53.272  23.444  33.307  0.00  0.00     0.031 A 
ATOM     16  F   UNL d   1     -54.216  24.446  33.307  0.00  0.00    -0.204 F 
ATOM     17  C   UNL d   1     -52.473  23.230  33.367  0.00  0.00     0.021 A 
ENDBRANCH   9  11
ENDBRANCH   7   8
ENDBRANCH   6   7
ENDBRANCH   3   6
BRANCH   1  18
ATOM     18  N   UNL d   1     -48.990  27.770  34.668  0.00  0.00    -0.181 NA
ATOM     19  C   UNL d   1     -48.707  28.559  34.792  0.00  0.00     0.281 C 
ATOM     20  O   UNL d   1     -49.125  29.189  34.468  0.00  0.00    -0.265 OA
BRANCH  19  21
ATOM     21  C   UNL d   1     -48.041  28.808  35.210  0.00  0.00     0.063 C 
BRANCH  21  22
ATOM     22  C   UNL d   1     -48.031  29.659  35.504  0.00  0.00     0.005 C 
ATOM     23  C   UNL d   1     -47.589  30.202  35.046  0.00  0.00     0.000 C 
ATOM     24  C   UNL d   1     -48.331  29.941  36.053  0.00  0.00     0.000 C 
ENDBRANCH  21  22
ENDBRANCH  19  21
ENDBRANCH   1  18
TORSDOF 7
ENDMDL
