MODEL 1
REMARK VINA RESULT:      -5.8      0.000      0.000
REMARK  3 active torsions:
REMARK  status: ('A' for Active; 'I' for Inactive)
REMARK    1  A    between atoms: C_4  and  C_1 
REMARK       I    between atoms: N_8  and  C_1 
REMARK    2  A    between atoms: S_14  and  C_2 
REMARK    3  A    between atoms: C_10  and  N_8 
ROOT
ATOM      1  C   UNL d   1     -41.261-122.946 -53.668  0.00  0.00     0.136 A 
ATOM      2  N   UNL d   1     -41.265-122.184 -53.353  0.00  0.00    -0.232 NA
ATOM      3  S   UNL d   1     -41.342-123.504 -53.097  0.00  0.00    -0.060 SA
ATOM      4  C   UNL d   1     -41.403-123.086 -52.381  0.00  0.00     0.051 A 
ATOM      5  C   UNL d   1     -41.355-122.273 -52.545  0.00  0.00     0.089 A 
ATOM      6  C   UNL d   1     -41.495-123.343 -51.605  0.00  0.00     0.027 A 
ATOM      7  C   UNL d   1     -41.540-122.789 -50.983  0.00  0.00     0.085 A 
ATOM      8  C   UNL d   1     -41.399-121.725 -51.930  0.00  0.00     0.021 A 
ATOM      9  C   UNL d   1     -41.491-121.982 -51.154  0.00  0.00     0.021 A 
ENDROOT
BRANCH   7  10
ATOM     10  N   UNL d   1     -41.633-123.050 -50.194  0.00  0.00    -0.208 NA
ATOM     11  C   UNL d   1     -42.287-122.793 -49.763  0.00  0.00     0.283 C 
ATOM     12  O   UNL d   1     -42.844-122.291 -50.087  0.00  0.00    -0.265 OA
BRANCH  11  13
ATOM     13  C   UNL d   1     -42.381-123.053 -48.978  0.00  0.00     0.113 A 
ATOM     14  C   UNL d   1     -43.009-123.554 -48.795  0.00  0.00     0.147 A 
ATOM     15  F   UNL d   1     -43.553-123.805 -49.386  0.00  0.00    -0.204 F 
ATOM     16  C   UNL d   1     -43.103-123.817 -48.001  0.00  0.00     0.030 A 
ATOM     17  C   UNL d   1     -42.564-123.563 -47.435  0.00  0.00     0.005 A 
ATOM     18  C   UNL d   1     -41.943-123.068 -47.616  0.00  0.00     0.030 A 
ATOM     19  C   UNL d   1     -41.849-122.806 -48.409  0.00  0.00     0.147 A 
ATOM     20  F   UNL d   1     -41.218-122.298 -48.610  0.00  0.00    -0.204 F 
ENDBRANCH  11  13
ENDBRANCH   7  10
BRANCH   1  21
ATOM     21  S   UNL d   1     -41.182-123.108 -54.467  0.00  0.00    -0.087 SA
ATOM     22  C   UNL d   1     -41.524-122.613 -55.013  0.00  0.00     0.076 C 
ENDBRANCH   1  21
TORSDOF 3
ENDMDL
MODEL 2
REMARK VINA RESULT:      -5.5      2.214      4.816
REMARK  3 active torsions:
REMARK  status: ('A' for Active; 'I' for Inactive)
REMARK    1  A    between atoms: C_4  and  C_1 
REMARK       I    between atoms: N_8  and  C_1 
REMARK    2  A    between atoms: S_14  and  C_2 
REMARK    3  A    between atoms: C_10  and  N_8 
ROOT
ATOM      1  C   UNL d   1     -41.130-123.389 -49.516  0.00  0.00     0.136 A 
ATOM      2  N   UNL d   1     -41.128-122.566 -49.565  0.00  0.00    -0.232 NA
ATOM      3  S   UNL d   1     -41.130-123.729 -50.243  0.00  0.00    -0.060 SA
ATOM      4  C   UNL d   1     -41.127-123.100 -50.786  0.00  0.00     0.051 A 
ATOM      5  C   UNL d   1     -41.127-122.385 -50.362  0.00  0.00     0.089 A 
ATOM      6  C   UNL d   1     -41.126-123.089 -51.608  0.00  0.00     0.027 A 
ATOM      7  C   UNL d   1     -41.124-122.362 -52.017  0.00  0.00     0.085 A 
ATOM      8  C   UNL d   1     -41.125-121.666 -50.766  0.00  0.00     0.021 A 
ATOM      9  C   UNL d   1     -41.123-121.655 -51.588  0.00  0.00     0.021 A 
ENDROOT
BRANCH   7  10
ATOM     10  N   UNL d   1     -41.123-122.351 -52.853  0.00  0.00    -0.208 NA
ATOM     11  C   UNL d   1     -41.843-122.357 -53.254  0.00  0.00     0.283 C 
ATOM     12  O   UNL d   1     -42.556-122.375 -52.856  0.00  0.00    -0.265 OA
BRANCH  11  13
ATOM     13  C   UNL d   1     -41.842-122.346 -54.086  0.00  0.00     0.113 A 
ATOM     14  C   UNL d   1     -42.157-121.692 -54.478  0.00  0.00     0.147 A 
ATOM     15  F   UNL d   1     -42.478-121.041 -54.050  0.00  0.00    -0.204 F 
ATOM     16  C   UNL d   1     -42.156-121.681 -55.319  0.00  0.00     0.030 A 
ATOM     17  C   UNL d   1     -41.839-122.323 -55.722  0.00  0.00     0.005 A 
ATOM     18  C   UNL d   1     -41.528-122.968 -55.336  0.00  0.00     0.030 A 
ATOM     19  C   UNL d   1     -41.529-122.980 -54.495  0.00  0.00     0.147 A 
ATOM     20  F   UNL d   1     -41.213-123.635 -54.084  0.00  0.00    -0.204 F 
ENDBRANCH  11  13
ENDBRANCH   7  10
BRANCH   1  21
ATOM     21  S   UNL d   1     -41.132-123.804 -48.810  0.00  0.00    -0.087 SA
ATOM     22  C   UNL d   1     -41.780-123.761 -48.320  0.00  0.00     0.076 C 
ENDBRANCH   1  21
TORSDOF 3
ENDMDL
MODEL 3
REMARK VINA RESULT:      -5.5      0.346      1.116
REMARK  3 active torsions:
REMARK  status: ('A' for Active; 'I' for Inactive)
REMARK    1  A    between atoms: C_4  and  C_1 
REMARK       I    between atoms: N_8  and  C_1 
REMARK    2  A    between atoms: S_14  and  C_2 
REMARK    3  A    between atoms: C_10  and  N_8 
ROOT
ATOM      1  C   UNL d   1     -41.424-122.543 -53.886  0.00  0.00     0.136 A 
ATOM      2  N   UNL d   1     -41.308-121.821 -53.504  0.00  0.00    -0.232 NA
ATOM      3  S   UNL d   1     -41.553-123.137 -53.363  0.00  0.00    -0.060 SA
ATOM      4  C   UNL d   1     -41.519-122.787 -52.610  0.00  0.00     0.051 A 
ATOM      5  C   UNL d   1     -41.368-121.975 -52.703  0.00  0.00     0.089 A 
ATOM      6  C   UNL d   1     -41.607-123.103 -51.857  0.00  0.00     0.027 A 
ATOM      7  C   UNL d   1     -41.544-122.612 -51.186  0.00  0.00     0.085 A 
ATOM      8  C   UNL d   1     -41.306-121.489 -52.041  0.00  0.00     0.021 A 
ATOM      9  C   UNL d   1     -41.394-121.805 -51.287  0.00  0.00     0.021 A 
ENDROOT
BRANCH   7  10
ATOM     10  N   UNL d   1     -41.634-122.933 -50.419  0.00  0.00    -0.208 NA
ATOM     11  C   UNL d   1     -42.286-122.712 -49.966  0.00  0.00     0.283 C 
ATOM     12  O   UNL d   1     -42.845-122.187 -50.247  0.00  0.00    -0.265 OA
BRANCH  11  13
ATOM     13  C   UNL d   1     -42.375-123.032 -49.203  0.00  0.00     0.113 A 
ATOM     14  C   UNL d   1     -41.799-122.874 -48.634  0.00  0.00     0.147 A 
ATOM     15  F   UNL d   1     -41.128-122.397 -48.813  0.00  0.00    -0.204 F 
ATOM     16  C   UNL d   1     -41.889-123.198 -47.863  0.00  0.00     0.030 A 
ATOM     17  C   UNL d   1     -42.549-123.661 -47.703  0.00  0.00     0.005 A 
ATOM     18  C   UNL d   1     -43.117-123.817 -48.266  0.00  0.00     0.030 A 
ATOM     19  C   UNL d   1     -43.028-123.493 -49.037  0.00  0.00     0.147 A 
ATOM     20  F   UNL d   1     -43.602-123.644 -49.624  0.00  0.00    -0.204 F 
ENDBRANCH  11  13
ENDBRANCH   7  10
BRANCH   1  21
ATOM     21  S   UNL d   1     -41.408-122.635 -54.700  0.00  0.00    -0.087 SA
ATOM     22  C   UNL d   1     -41.809-122.109 -55.172  0.00  0.00     0.076 C 
ENDBRANCH   1  21
TORSDOF 3
ENDMDL
