MODEL 1
REMARK VINA RESULT:      54.9      0.000      0.000
REMARK  4 active torsions:
REMARK  status: ('A' for Active; 'I' for Inactive)
REMARK    1  A    between atoms: N_2  and  S_1 
REMARK    2  A    between atoms: C_3  and  S_1 
REMARK    3  A    between atoms: C_5  and  N_4 
REMARK    4  A    between atoms: O_17  and  C_14 
ROOT
ATOM      1  N   UNL d   1      60.026  49.396  50.459  0.00  0.00    -0.226 N 
ATOM      2  N   UNL d   1      58.436  49.502  50.832  0.00  0.00    -0.299 N 
ATOM      3  C   UNL d   1      59.456  49.191  49.894  0.00  0.00     0.111 A 
ATOM      4  C   UNL d   1      59.799  49.653  51.206  0.00  0.00     0.111 A 
ATOM      5  C   UNL d   1      58.655  49.246  50.086  0.00  0.00     0.100 A 
ATOM      6  C   UNL d   1      58.996  49.705  51.391  0.00  0.00     0.100 A 
ENDROOT
BRANCH   1   7
ATOM      7  S   UNL d   1      60.827  49.343  50.270  0.00  0.00     0.272 S 
ATOM      8  O   UNL d   1      61.620  49.291  50.079  0.00  0.00    -0.200 OA
ATOM      9  O   UNL d   1      60.657  49.578  49.498  0.00  0.00    -0.200 OA
BRANCH   7  10
ATOM     10  C   UNL d   1      60.990  49.108  51.044  0.00  0.00     0.106 A 
ATOM     11  C   UNL d   1      61.135  48.313  51.219  0.00  0.00     0.037 A 
ATOM     12  C   UNL d   1      61.297  48.086  51.995  0.00  0.00     0.095 A 
ATOM     13  C   UNL d   1      61.314  48.654  52.597  0.00  0.00     0.024 A 
ATOM     14  C   UNL d   1      61.169  49.446  52.419  0.00  0.00     0.003 A 
ATOM     15  C   UNL d   1      61.007  49.673  51.643  0.00  0.00     0.013 A 
BRANCH  12  16
ATOM     16  O   UNL d   1      61.441  47.295  52.173  0.00  0.00    -0.328 OA
ATOM     17  C   UNL d   1      60.818  46.755  52.192  0.00  0.00     0.181 C 
ENDBRANCH  12  16
ENDBRANCH   7  10
ENDBRANCH   1   7
BRANCH   2  18
ATOM     18  C   UNL d   1      57.635  49.556  51.025  0.00  0.00     0.092 A 
ATOM     19  C   UNL d   1      57.077  49.637  50.429  0.00  0.00     0.156 A 
ATOM     20  F   UNL d   1      57.363  49.660  49.650  0.00  0.00    -0.203 F 
ATOM     21  C   UNL d   1      56.273  49.693  50.609  0.00  0.00     0.031 A 
ATOM     22  C   UNL d   1      56.034  49.666  51.406  0.00  0.00     0.002 A 
ATOM     23  C   UNL d   1      56.597  49.584  52.006  0.00  0.00     0.002 A 
ATOM     24  C   UNL d   1      57.397  49.530  51.813  0.00  0.00     0.020 A 
ENDBRANCH   2  18
TORSDOF 4
ENDMDL
