MODEL 1
REMARK VINA RESULT:      -6.9      0.000      0.000
REMARK  5 active torsions:
REMARK  status: ('A' for Active; 'I' for Inactive)
REMARK    1  A    between atoms: C_10  and  C_3 
REMARK    2  A    between atoms: S_11  and  C_4 
REMARK    3  A    between atoms: C_17  and  S_11 
REMARK    4  A    between atoms: C_13  and  C_17 
REMARK       I    between atoms: N_14  and  C_13 
REMARK    5  A    between atoms: C_15  and  N_14 
ROOT
ATOM      1  C   UNL d   1     -49.585  13.800  23.093  0.00  0.00     0.150 A 
ATOM      2  N   UNL d   1     -48.774  13.634  23.054  0.00  0.00    -0.285 N 
ATOM      3  C   UNL d   1     -49.848  14.557  22.961  0.00  0.00     0.056 A 
ATOM      4  C   UNL d   1     -48.252  14.230  22.886  0.00  0.00     0.096 A 
ATOM      5  N   UNL d   1     -50.121  13.202  23.263  0.00  0.00    -0.227 NA
ATOM      6  C   UNL d   1     -49.311  15.160  22.790  0.00  0.00     0.006 A 
ATOM      7  C   UNL d   1     -48.514  14.988  22.754  0.00  0.00     0.025 A 
ATOM      8  C   UNL d   1     -49.049  12.270  23.358  0.00  0.00     0.084 A 
ATOM      9  C   UNL d   1     -49.860  12.436  23.396  0.00  0.00     0.099 A 
ATOM     10  C   UNL d   1     -49.575  15.910  22.660  0.00  0.00     0.000 C 
ATOM     11  C   UNL d   1     -48.787  11.511  23.490  0.00  0.00     0.019 A 
ATOM     12  C   UNL d   1     -50.383  11.839  23.565  0.00  0.00     0.021 A 
ATOM     13  C   UNL d   1     -49.322  10.917  23.659  0.00  0.00     0.002 A 
ATOM     14  C   UNL d   1     -50.120  11.081  23.697  0.00  0.00     0.002 A 
ENDROOT
BRANCH   4  15
ATOM     15  S   UNL d   1     -47.424  14.060  22.847  0.00  0.00    -0.064 SA
BRANCH  15  16
ATOM     16  C   UNL d   1     -46.649  14.342  22.633  0.00  0.00     0.099 C 
BRANCH  16  17
ATOM     17  C   UNL d   1     -45.979  13.836  22.715  0.00  0.00     0.286 C 
ATOM     18  N   UNL d   1     -45.617  13.494  22.025  0.00  0.00    -0.208 NA
ATOM     19  O   UNL d   1     -45.660  13.663  23.487  0.00  0.00    -0.265 OA
BRANCH  18  20
ATOM     20  C   UNL d   1     -44.936  12.980  22.106  0.00  0.00     0.085 A 
ATOM     21  C   UNL d   1     -44.262  13.105  21.621  0.00  0.00     0.019 A 
ATOM     22  C   UNL d   1     -43.589  12.597  21.701  0.00  0.00     0.002 A 
ATOM     23  C   UNL d   1     -42.906  12.719  21.214  0.00  0.00     0.000 C 
ATOM     24  C   UNL d   1     -43.587  11.958  22.269  0.00  0.00     0.000 A 
ATOM     25  C   UNL d   1     -44.281  11.847  22.752  0.00  0.00     0.002 A 
ATOM     26  C   UNL d   1     -44.954  12.355  22.672  0.00  0.00     0.019 A 
ENDBRANCH  18  20
ENDBRANCH  16  17
ENDBRANCH  15  16
ENDBRANCH   4  15
BRANCH   3  27
ATOM     27  C   UNL d   1     -50.645  14.730  22.997  0.00  0.00     0.125 C 
ATOM     28  N   UNL d   1     -51.040  14.807  22.287  0.00  0.00    -0.146 N 
ENDBRANCH   3  27
TORSDOF 5
ENDMDL
MODEL 2
REMARK VINA RESULT:      -6.1      8.742      9.512
REMARK  5 active torsions:
REMARK  status: ('A' for Active; 'I' for Inactive)
REMARK    1  A    between atoms: C_10  and  C_3 
REMARK    2  A    between atoms: S_11  and  C_4 
REMARK    3  A    between atoms: C_17  and  S_11 
REMARK    4  A    between atoms: C_13  and  C_17 
REMARK       I    between atoms: N_14  and  C_13 
REMARK    5  A    between atoms: C_15  and  N_14 
ROOT
ATOM      1  C   UNL d   1     -40.092  14.491  17.710  0.00  0.00     0.150 A 
ATOM      2  N   UNL d   1     -39.956  14.632  18.516  0.00  0.00    -0.285 N 
ATOM      3  C   UNL d   1     -40.658  14.921  17.316  0.00  0.00     0.056 A 
ATOM      4  C   UNL d   1     -40.390  15.198  18.901  0.00  0.00     0.096 A 
ATOM      5  N   UNL d   1     -39.658  13.920  17.312  0.00  0.00    -0.227 NA
ATOM      6  C   UNL d   1     -41.096  15.496  17.714  0.00  0.00     0.006 A 
ATOM      7  C   UNL d   1     -40.956  15.628  18.507  0.00  0.00     0.025 A 
ATOM      8  C   UNL d   1     -38.949  13.625  18.512  0.00  0.00     0.084 A 
ATOM      9  C   UNL d   1     -39.086  13.484  17.706  0.00  0.00     0.099 A 
ATOM     10  C   UNL d   1     -41.656  15.920  17.320  0.00  0.00     0.000 C 
ATOM     11  C   UNL d   1     -38.383  13.195  18.906  0.00  0.00     0.019 A 
ATOM     12  C   UNL d   1     -38.652  12.918  17.321  0.00  0.00     0.021 A 
ATOM     13  C   UNL d   1     -37.951  12.626  18.508  0.00  0.00     0.002 A 
ATOM     14  C   UNL d   1     -38.085  12.488  17.715  0.00  0.00     0.002 A 
ENDROOT
BRANCH   4  15
ATOM     15  S   UNL d   1     -40.251  15.342  19.723  0.00  0.00    -0.064 SA
BRANCH  15  16
ATOM     16  C   UNL d   1     -40.102  15.922  20.329  0.00  0.00     0.099 C 
BRANCH  16  17
ATOM     17  C   UNL d   1     -39.904  15.674  21.111  0.00  0.00     0.286 C 
ATOM     18  N   UNL d   1     -39.089  15.565  21.329  0.00  0.00    -0.208 NA
ATOM     19  O   UNL d   1     -40.517  15.530  21.687  0.00  0.00    -0.265 OA
BRANCH  18  20
ATOM     20  C   UNL d   1     -38.886  15.313  22.123  0.00  0.00     0.085 A 
ATOM     21  C   UNL d   1     -38.630  14.524  22.255  0.00  0.00     0.019 A 
ATOM     22  C   UNL d   1     -38.429  14.275  23.039  0.00  0.00     0.002 A 
ATOM     23  C   UNL d   1     -38.170  13.479  23.177  0.00  0.00     0.000 C 
ATOM     24  C   UNL d   1     -38.483  14.816  23.698  0.00  0.00     0.000 A 
ATOM     25  C   UNL d   1     -38.745  15.613  23.544  0.00  0.00     0.002 A 
ATOM     26  C   UNL d   1     -38.946  15.862  22.760  0.00  0.00     0.019 A 
ENDBRANCH  18  20
ENDBRANCH  16  17
ENDBRANCH  15  16
ENDBRANCH   4  15
BRANCH   3  27
ATOM     27  C   UNL d   1     -40.799  14.789  16.523  0.00  0.00     0.125 C 
ATOM     28  N   UNL d   1     -40.739  15.431  16.023  0.00  0.00    -0.146 N 
ENDBRANCH   3  27
TORSDOF 5
ENDMDL
MODEL 3
REMARK VINA RESULT:      -6.1      1.283      2.797
REMARK  5 active torsions:
REMARK  status: ('A' for Active; 'I' for Inactive)
REMARK    1  A    between atoms: C_10  and  C_3 
REMARK    2  A    between atoms: S_11  and  C_4 
REMARK    3  A    between atoms: C_17  and  S_11 
REMARK    4  A    between atoms: C_13  and  C_17 
REMARK       I    between atoms: N_14  and  C_13 
REMARK    5  A    between atoms: C_15  and  N_14 
ROOT
ATOM      1  C   UNL d   1     -49.269  13.060  23.129  0.00  0.00     0.150 A 
ATOM      2  N   UNL d   1     -48.491  12.802  23.257  0.00  0.00    -0.285 N 
ATOM      3  C   UNL d   1     -49.890  12.556  23.272  0.00  0.00     0.056 A 
ATOM      4  C   UNL d   1     -48.360  12.048  23.524  0.00  0.00     0.096 A 
ATOM      5  N   UNL d   1     -49.411  13.822  22.860  0.00  0.00    -0.227 NA
ATOM      6  C   UNL d   1     -49.749  11.790  23.543  0.00  0.00     0.006 A 
ATOM      7  C   UNL d   1     -48.980  11.544  23.666  0.00  0.00     0.025 A 
ATOM      8  C   UNL d   1     -48.010  14.077  22.842  0.00  0.00     0.084 A 
ATOM      9  C   UNL d   1     -48.788  14.335  22.714  0.00  0.00     0.099 A 
ATOM     10  C   UNL d   1     -50.367  11.292  23.684  0.00  0.00     0.000 C 
ATOM     11  C   UNL d   1     -47.390  14.582  22.699  0.00  0.00     0.019 A 
ATOM     12  C   UNL d   1     -48.919  15.089  22.448  0.00  0.00     0.021 A 
ATOM     13  C   UNL d   1     -47.533  15.341  22.431  0.00  0.00     0.002 A 
ATOM     14  C   UNL d   1     -48.299  15.595  22.305  0.00  0.00     0.002 A 
ENDROOT
BRANCH   4  15
ATOM     15  S   UNL d   1     -47.566  11.785  23.654  0.00  0.00    -0.064 SA
BRANCH  15  16
ATOM     16  C   UNL d   1     -47.030  11.124  23.670  0.00  0.00     0.099 C 
BRANCH  16  17
ATOM     17  C   UNL d   1     -46.203  11.249  23.559  0.00  0.00     0.286 C 
ATOM     18  N   UNL d   1     -45.694  10.592  23.380  0.00  0.00    -0.208 NA
ATOM     19  O   UNL d   1     -45.872  12.033  23.626  0.00  0.00    -0.265 OA
BRANCH  18  20
ATOM     20  C   UNL d   1     -44.853  10.717  23.267  0.00  0.00     0.085 A 
ATOM     21  C   UNL d   1     -44.588  11.371  22.811  0.00  0.00     0.019 A 
ATOM     22  C   UNL d   1     -43.758  11.496  22.700  0.00  0.00     0.002 A 
ATOM     23  C   UNL d   1     -43.486  12.154  22.241  0.00  0.00     0.000 C 
ATOM     24  C   UNL d   1     -43.185  10.964  23.045  0.00  0.00     0.000 A 
ATOM     25  C   UNL d   1     -43.472  10.305  23.504  0.00  0.00     0.002 A 
ATOM     26  C   UNL d   1     -44.304  10.181  23.616  0.00  0.00     0.019 A 
ENDBRANCH  18  20
ENDBRANCH  16  17
ENDBRANCH  15  16
ENDBRANCH   4  15
BRANCH   3  27
ATOM     27  C   UNL d   1     -50.658  12.802  23.149  0.00  0.00     0.125 C 
ATOM     28  N   UNL d   1     -51.061  12.463  22.525  0.00  0.00    -0.146 N 
ENDBRANCH   3  27
TORSDOF 5
ENDMDL
MODEL 4
REMARK VINA RESULT:      -6.1      0.719      2.388
REMARK  5 active torsions:
REMARK  status: ('A' for Active; 'I' for Inactive)
REMARK    1  A    between atoms: C_10  and  C_3 
REMARK    2  A    between atoms: S_11  and  C_4 
REMARK    3  A    between atoms: C_17  and  S_11 
REMARK    4  A    between atoms: C_13  and  C_17 
REMARK       I    between atoms: N_14  and  C_13 
REMARK    5  A    between atoms: C_15  and  N_14 
ROOT
ATOM      1  C   UNL d   1     -49.580  13.018  23.117  0.00  0.00     0.150 A 
ATOM      2  N   UNL d   1     -48.827  13.364  23.099  0.00  0.00    -0.285 N 
ATOM      3  C   UNL d   1     -49.655  12.212  23.050  0.00  0.00     0.056 A 
ATOM      4  C   UNL d   1     -48.172  12.892  23.016  0.00  0.00     0.096 A 
ATOM      5  N   UNL d   1     -50.247  13.488  23.201  0.00  0.00    -0.227 NA
ATOM      6  C   UNL d   1     -48.985  11.738  22.965  0.00  0.00     0.006 A 
ATOM      7  C   UNL d   1     -48.247  12.086  22.949  0.00  0.00     0.025 A 
ATOM      8  C   UNL d   1     -49.423  14.649  23.251  0.00  0.00     0.084 A 
ATOM      9  C   UNL d   1     -50.176  14.303  23.268  0.00  0.00     0.099 A 
ATOM     10  C   UNL d   1     -49.064  10.939  22.900  0.00  0.00     0.000 C 
ATOM     11  C   UNL d   1     -49.348  15.456  23.318  0.00  0.00     0.019 A 
ATOM     12  C   UNL d   1     -50.830  14.775  23.352  0.00  0.00     0.021 A 
ATOM     13  C   UNL d   1     -50.014  15.922  23.402  0.00  0.00     0.002 A 
ATOM     14  C   UNL d   1     -50.756  15.582  23.418  0.00  0.00     0.002 A 
ENDROOT
BRANCH   4  15
ATOM     15  S   UNL d   1     -47.404  13.245  22.999  0.00  0.00    -0.064 SA
BRANCH  15  16
ATOM     16  C   UNL d   1     -46.804  13.621  22.525  0.00  0.00     0.099 C 
BRANCH  16  17
ATOM     17  C   UNL d   1     -46.005  13.354  22.567  0.00  0.00     0.286 C 
ATOM     18  N   UNL d   1     -45.621  13.051  21.871  0.00  0.00    -0.208 NA
ATOM     19  O   UNL d   1     -45.577  13.386  23.304  0.00  0.00    -0.265 OA
BRANCH  18  20
ATOM     20  C   UNL d   1     -44.809  12.779  21.912  0.00  0.00     0.085 A 
ATOM     21  C   UNL d   1     -44.218  13.168  21.458  0.00  0.00     0.019 A 
ATOM     22  C   UNL d   1     -43.415  12.900  21.498  0.00  0.00     0.002 A 
ATOM     23  C   UNL d   1     -42.816  13.288  21.042  0.00  0.00     0.000 C 
ATOM     24  C   UNL d   1     -43.198  12.239  21.994  0.00  0.00     0.000 A 
ATOM     25  C   UNL d   1     -43.812  11.857  22.448  0.00  0.00     0.002 A 
ATOM     26  C   UNL d   1     -44.615  12.126  22.407  0.00  0.00     0.019 A 
ENDBRANCH  18  20
ENDBRANCH  16  17
ENDBRANCH  15  16
ENDBRANCH   4  15
BRANCH   3  27
ATOM     27  C   UNL d   1     -50.393  11.864  23.066  0.00  0.00     0.125 C 
ATOM     28  N   UNL d   1     -50.557  11.370  23.694  0.00  0.00    -0.146 N 
ENDBRANCH   3  27
TORSDOF 5
ENDMDL
MODEL 5
REMARK VINA RESULT:      -4.0      3.802      8.089
REMARK  5 active torsions:
REMARK  status: ('A' for Active; 'I' for Inactive)
REMARK    1  A    between atoms: C_10  and  C_3 
REMARK    2  A    between atoms: S_11  and  C_4 
REMARK    3  A    between atoms: C_17  and  S_11 
REMARK    4  A    between atoms: C_13  and  C_17 
REMARK       I    between atoms: N_14  and  C_13 
REMARK    5  A    between atoms: C_15  and  N_14 
ROOT
ATOM      1  C   UNL d   1     -39.833  14.856  20.940  0.00  0.00     0.150 A 
ATOM      2  N   UNL d   1     -40.404  14.308  21.188  0.00  0.00    -0.285 N 
ATOM      3  C   UNL d   1     -40.009  15.380  20.345  0.00  0.00     0.056 A 
ATOM      4  C   UNL d   1     -41.133  14.302  20.833  0.00  0.00     0.096 A 
ATOM      5  N   UNL d   1     -39.093  14.868  21.294  0.00  0.00    -0.227 NA
ATOM      6  C   UNL d   1     -40.753  15.369  19.988  0.00  0.00     0.006 A 
ATOM      7  C   UNL d   1     -41.309  14.827  20.238  0.00  0.00     0.025 A 
ATOM      8  C   UNL d   1     -39.482  13.793  22.144  0.00  0.00     0.084 A 
ATOM      9  C   UNL d   1     -38.911  14.341  21.895  0.00  0.00     0.099 A 
ATOM     10  C   UNL d   1     -40.924  15.890  19.398  0.00  0.00     0.000 C 
ATOM     11  C   UNL d   1     -39.305  13.269  22.739  0.00  0.00     0.019 A 
ATOM     12  C   UNL d   1     -38.182  14.346  22.251  0.00  0.00     0.021 A 
ATOM     13  C   UNL d   1     -38.567  13.283  23.091  0.00  0.00     0.002 A 
ATOM     14  C   UNL d   1     -38.005  13.822  22.846  0.00  0.00     0.002 A 
ENDROOT
BRANCH   4  15
ATOM     15  S   UNL d   1     -41.715  13.743  21.086  0.00  0.00    -0.064 SA
BRANCH  15  16
ATOM     16  C   UNL d   1     -42.330  13.202  20.854  0.00  0.00     0.099 C 
BRANCH  16  17
ATOM     17  C   UNL d   1     -42.925  12.975  21.409  0.00  0.00     0.286 C 
ATOM     18  N   UNL d   1     -43.746  13.089  21.221  0.00  0.00    -0.208 NA
ATOM     19  O   UNL d   1     -42.707  12.633  22.159  0.00  0.00    -0.265 OA
BRANCH  18  20
ATOM     20  C   UNL d   1     -44.352  12.859  21.783  0.00  0.00     0.085 A 
ATOM     21  C   UNL d   1     -44.982  13.388  21.952  0.00  0.00     0.019 A 
ATOM     22  C   UNL d   1     -45.581  13.161  22.507  0.00  0.00     0.002 A 
ATOM     23  C   UNL d   1     -46.219  13.691  22.682  0.00  0.00     0.000 C 
ATOM     24  C   UNL d   1     -45.551  12.402  22.898  0.00  0.00     0.000 A 
ATOM     25  C   UNL d   1     -44.903  11.878  22.713  0.00  0.00     0.002 A 
ATOM     26  C   UNL d   1     -44.305  12.106  22.157  0.00  0.00     0.019 A 
ENDBRANCH  18  20
ENDBRANCH  16  17
ENDBRANCH  15  16
ENDBRANCH   4  15
BRANCH   3  27
ATOM     27  C   UNL d   1     -39.453  15.922  20.095  0.00  0.00     0.125 C 
ATOM     28  N   UNL d   1     -39.230  15.890  19.311  0.00  0.00    -0.146 N 
ENDBRANCH   3  27
TORSDOF 5
ENDMDL
