MODEL 1
REMARK VINA RESULT:      -2.8      0.000      0.000
REMARK  5 active torsions:
REMARK  status: ('A' for Active; 'I' for Inactive)
REMARK    1  A    between atoms: S_14  and  C_7 
REMARK       I    between atoms: N_10  and  C_13 
REMARK    2  A    between atoms: C_26  and  C_11 
REMARK    3  A    between atoms: C_22  and  N_12 
REMARK    4  A    between atoms: C_13  and  C_17 
REMARK    5  A    between atoms: C_17  and  S_14 
ROOT
ATOM      1  N   UNL d   1      30.017  17.711 -24.775  0.00  0.00    -0.224 N 
ATOM      2  N   UNL d   1      30.256  16.358 -24.351  0.00  0.00    -0.241 N 
ATOM      3  C   UNL d   1      29.737  16.939 -24.620  0.00  0.00     0.343 A 
ATOM      4  C   UNL d   1      31.055  16.547 -24.237  0.00  0.00     0.160 A 
ATOM      5  C   UNL d   1      30.813  17.893 -24.660  0.00  0.00     0.273 A 
ATOM      6  C   UNL d   1      31.332  17.311 -24.391  0.00  0.00     0.115 A 
ATOM      7  C   UNL d   1      32.129  17.493 -24.275  0.00  0.00     0.120 A 
ATOM      8  N   UNL d   1      31.582  15.963 -23.966  0.00  0.00    -0.209 NA
ATOM      9  N   UNL d   1      32.650  16.915 -24.007  0.00  0.00    -0.220 NA
ATOM     10  C   UNL d   1      32.379  16.145 -23.850  0.00  0.00     0.165 A 
ATOM     11  O   UNL d   1      28.937  16.759 -24.737  0.00  0.00    -0.245 OA
ATOM     12  O   UNL d   1      31.086  18.657 -24.814  0.00  0.00    -0.266 OA
ATOM     13  C   UNL d   1      29.494  18.285 -25.042  0.00  0.00     0.107 C 
ATOM     14  C   UNL d   1      29.979  15.594 -24.198  0.00  0.00     0.105 C 
ENDROOT
BRANCH   7  15
ATOM     15  S   UNL d   1      32.402  18.257 -24.429  0.00  0.00    -0.062 SA
BRANCH  15  16
ATOM     16  C   UNL d   1      32.827  18.670 -23.852  0.00  0.00     0.098 C 
BRANCH  16  17
ATOM     17  C   UNL d   1      33.020  19.463 -23.967  0.00  0.00     0.272 C 
ATOM     18  N   UNL d   1      33.035  19.990 -23.337  0.00  0.00    -0.269 N 
ATOM     19  C   UNL d   1      32.852  19.717 -22.574  0.00  0.00     0.102 A 
ATOM     20  C   UNL d   1      33.227  20.776 -23.454  0.00  0.00     0.102 A 
ATOM     21  C   UNL d   1      32.868  20.248 -21.947  0.00  0.00     0.100 A 
ATOM     22  N   UNL d   1      33.060  21.038 -22.063  0.00  0.00    -0.301 N 
ATOM     23  C   UNL d   1      33.241  21.303 -22.825  0.00  0.00     0.100 A 
ATOM     24  O   UNL d   1      33.202  19.732 -24.727  0.00  0.00    -0.266 OA
BRANCH  22  25
ATOM     25  C   UNL d   1      33.075  21.565 -21.433  0.00  0.00     0.064 A 
ATOM     26  C   UNL d   1      33.128  21.295 -20.660  0.00  0.00     0.018 A 
ATOM     27  C   UNL d   1      33.143  21.824 -20.022  0.00  0.00     0.002 A 
ATOM     28  C   UNL d   1      33.103  22.636 -20.165  0.00  0.00     0.000 A 
ATOM     29  C   UNL d   1      33.049  22.912 -20.952  0.00  0.00     0.002 A 
ATOM     30  C   UNL d   1      33.035  22.379 -21.569  0.00  0.00     0.018 A 
ENDBRANCH  22  25
ENDBRANCH  16  17
ENDBRANCH  15  16
ENDBRANCH   7  15
BRANCH  10  31
ATOM     31  C   UNL d   1      32.904  15.565 -23.581  0.00  0.00     0.039 C 
ATOM     32  C   UNL d   1      33.028  15.460 -22.772  0.00  0.00     0.003 C 
ENDBRANCH  10  31
TORSDOF 5
ENDMDL
MODEL 2
REMARK VINA RESULT:      -2.3      1.518      5.584
REMARK  5 active torsions:
REMARK  status: ('A' for Active; 'I' for Inactive)
REMARK    1  A    between atoms: S_14  and  C_7 
REMARK       I    between atoms: N_10  and  C_13 
REMARK    2  A    between atoms: C_26  and  C_11 
REMARK    3  A    between atoms: C_22  and  N_12 
REMARK    4  A    between atoms: C_13  and  C_17 
REMARK    5  A    between atoms: C_17  and  S_14 
ROOT
ATOM      1  N   UNL d   1      33.207  22.354 -23.816  0.00  0.00    -0.224 N 
ATOM      2  N   UNL d   1      33.210  22.420 -22.380  0.00  0.00    -0.241 N 
ATOM      3  C   UNL d   1      33.204  22.801 -23.111  0.00  0.00     0.343 A 
ATOM      4  C   UNL d   1      33.219  21.591 -22.353  0.00  0.00     0.160 A 
ATOM      5  C   UNL d   1      33.216  21.529 -23.783  0.00  0.00     0.273 A 
ATOM      6  C   UNL d   1      33.222  21.148 -23.051  0.00  0.00     0.115 A 
ATOM      7  C   UNL d   1      33.231  20.324 -23.018  0.00  0.00     0.120 A 
ATOM      8  N   UNL d   1      33.225  21.203 -21.617  0.00  0.00    -0.209 NA
ATOM      9  N   UNL d   1      33.237  19.940 -22.290  0.00  0.00    -0.220 NA
ATOM     10  C   UNL d   1      33.234  20.379 -21.584  0.00  0.00     0.165 A 
ATOM     11  O   UNL d   1      33.195  23.629 -23.147  0.00  0.00    -0.245 OA
ATOM     12  O   UNL d   1      33.218  21.090 -24.483  0.00  0.00    -0.266 OA
ATOM     13  C   UNL d   1      33.201  22.740 -24.541  0.00  0.00     0.107 C 
ATOM     14  C   UNL d   1      33.207  22.863 -21.682  0.00  0.00     0.105 C 
ENDROOT
BRANCH   7  15
ATOM     15  S   UNL d   1      33.233  19.885 -23.718  0.00  0.00    -0.062 SA
BRANCH  15  16
ATOM     16  C   UNL d   1      33.064  19.075 -23.700  0.00  0.00     0.098 C 
BRANCH  16  17
ATOM     17  C   UNL d   1      32.828  18.685 -24.387  0.00  0.00     0.272 C 
ATOM     18  N   UNL d   1      32.191  18.167 -24.382  0.00  0.00    -0.269 N 
ATOM     19  C   UNL d   1      31.779  18.037 -23.673  0.00  0.00     0.102 A 
ATOM     20  C   UNL d   1      31.960  17.782 -25.065  0.00  0.00     0.102 A 
ATOM     21  C   UNL d   1      31.141  17.517 -23.673  0.00  0.00     0.100 A 
ATOM     22  N   UNL d   1      30.908  17.130 -24.358  0.00  0.00    -0.301 N 
ATOM     23  C   UNL d   1      31.323  17.265 -25.061  0.00  0.00     0.100 A 
ATOM     24  O   UNL d   1      33.241  18.818 -25.091  0.00  0.00    -0.266 OA
BRANCH  22  25
ATOM     25  C   UNL d   1      30.271  16.612 -24.353  0.00  0.00     0.064 A 
ATOM     26  C   UNL d   1      29.660  16.692 -24.896  0.00  0.00     0.018 A 
ATOM     27  C   UNL d   1      29.016  16.172 -24.894  0.00  0.00     0.002 A 
ATOM     28  C   UNL d   1      28.985  15.561 -24.338  0.00  0.00     0.000 A 
ATOM     29  C   UNL d   1      29.607  15.479 -23.785  0.00  0.00     0.002 A 
ATOM     30  C   UNL d   1      30.234  16.000 -23.800  0.00  0.00     0.018 A 
ENDBRANCH  22  25
ENDBRANCH  16  17
ENDBRANCH  15  16
ENDBRANCH   7  15
BRANCH  10  31
ATOM     31  C   UNL d   1      33.240  19.991 -20.853  0.00  0.00     0.039 C 
ATOM     32  C   UNL d   1      33.015  20.392 -20.168  0.00  0.00     0.003 C 
ENDBRANCH  10  31
TORSDOF 5
ENDMDL
MODEL 3
REMARK VINA RESULT:      -1.6      1.838      6.007
REMARK  5 active torsions:
REMARK  status: ('A' for Active; 'I' for Inactive)
REMARK    1  A    between atoms: S_14  and  C_7 
REMARK       I    between atoms: N_10  and  C_13 
REMARK    2  A    between atoms: C_26  and  C_11 
REMARK    3  A    between atoms: C_22  and  N_12 
REMARK    4  A    between atoms: C_13  and  C_17 
REMARK    5  A    between atoms: C_17  and  S_14 
ROOT
ATOM      1  N   UNL d   1      32.677  21.628 -20.220  0.00  0.00    -0.224 N 
ATOM      2  N   UNL d   1      32.701  22.761 -21.104  0.00  0.00    -0.241 N 
ATOM      3  C   UNL d   1      32.611  22.451 -20.345  0.00  0.00     0.343 A 
ATOM      4  C   UNL d   1      32.856  22.250 -21.738  0.00  0.00     0.160 A 
ATOM      5  C   UNL d   1      32.832  21.123 -20.855  0.00  0.00     0.273 A 
ATOM      6  C   UNL d   1      32.921  21.435 -21.614  0.00  0.00     0.115 A 
ATOM      7  C   UNL d   1      33.076  20.930 -22.248  0.00  0.00     0.120 A 
ATOM      8  N   UNL d   1      32.947  22.559 -22.505  0.00  0.00    -0.209 NA
ATOM      9  N   UNL d   1      33.165  21.237 -23.007  0.00  0.00    -0.220 NA
ATOM     10  C   UNL d   1      33.101  22.056 -23.139  0.00  0.00     0.165 A 
ATOM     11  O   UNL d   1      32.456  22.955 -19.707  0.00  0.00    -0.245 OA
ATOM     12  O   UNL d   1      32.896  20.310 -20.727  0.00  0.00    -0.266 OA
ATOM     13  C   UNL d   1      32.587  21.325 -19.462  0.00  0.00     0.107 C 
ATOM     14  C   UNL d   1      32.636  23.576 -21.228  0.00  0.00     0.105 C 
ENDROOT
BRANCH   7  15
ATOM     15  S   UNL d   1      33.140  20.117 -22.121  0.00  0.00    -0.062 SA
BRANCH  15  16
ATOM     16  C   UNL d   1      32.786  19.585 -22.647  0.00  0.00     0.098 C 
BRANCH  16  17
ATOM     17  C   UNL d   1      32.774  18.779 -22.476  0.00  0.00     0.272 C 
ATOM     18  N   UNL d   1      32.306  18.262 -22.910  0.00  0.00    -0.269 N 
ATOM     19  C   UNL d   1      31.838  18.559 -23.529  0.00  0.00     0.102 A 
ATOM     20  C   UNL d   1      32.296  17.463 -22.738  0.00  0.00     0.102 A 
ATOM     21  C   UNL d   1      31.371  18.038 -23.960  0.00  0.00     0.100 A 
ATOM     22  N   UNL d   1      31.360  17.235 -23.789  0.00  0.00    -0.301 N 
ATOM     23  C   UNL d   1      31.828  16.947 -23.171  0.00  0.00     0.100 A 
ATOM     24  O   UNL d   1      33.240  18.487 -21.859  0.00  0.00    -0.266 OA
BRANCH  22  25
ATOM     25  C   UNL d   1      30.892  16.718 -24.222  0.00  0.00     0.064 A 
ATOM     26  C   UNL d   1      31.228  16.103 -24.649  0.00  0.00     0.018 A 
ATOM     27  C   UNL d   1      30.759  15.580 -25.087  0.00  0.00     0.002 A 
ATOM     28  C   UNL d   1      29.939  15.676 -25.097  0.00  0.00     0.000 A 
ATOM     29  C   UNL d   1      29.595  16.303 -24.662  0.00  0.00     0.002 A 
ATOM     30  C   UNL d   1      30.071  16.809 -24.236  0.00  0.00     0.018 A 
ENDBRANCH  22  25
ENDBRANCH  16  17
ENDBRANCH  15  16
ENDBRANCH   7  15
BRANCH  10  31
ATOM     31  C   UNL d   1      33.192  22.362 -23.903  0.00  0.00     0.039 C 
ATOM     32  C   UNL d   1      32.568  22.760 -24.268  0.00  0.00     0.003 C 
ENDBRANCH  10  31
TORSDOF 5
ENDMDL
