MODEL 1
REMARK VINA RESULT:      -7.9      0.000      0.000
REMARK  3 active torsions:
REMARK  status: ('A' for Active; 'I' for Inactive)
REMARK    1  A    between atoms: C_13  and  N_3 
REMARK    2  A    between atoms: C_10  and  C_6 
REMARK    3  A    between atoms: C_11  and  C_8 
ROOT
ATOM      1  C   UNL d   1     -48.273  13.358  22.825  0.00  0.00     0.167 A 
ATOM      2  C   UNL d   1     -48.839  13.962  22.885  0.00  0.00     0.056 A 
ATOM      3  N   UNL d   1     -47.520  13.707  22.794  0.00  0.00    -0.212 N 
ATOM      4  N   UNL d   1     -47.619  14.538  22.836  0.00  0.00    -0.164 NA
ATOM      5  N   UNL d   1     -48.517  12.571  22.805  0.00  0.00    -0.206 NA
ATOM      6  C   UNL d   1     -49.639  13.774  22.925  0.00  0.00     0.015 A 
ATOM      7  C   UNL d   1     -48.435  14.695  22.892  0.00  0.00     0.104 A 
ATOM      8  C   UNL d   1     -49.883  12.992  22.906  0.00  0.00     0.059 A 
ATOM      9  C   UNL d   1     -49.321  12.392  22.846  0.00  0.00     0.187 A 
ATOM     10  N   UNL d   1     -49.562  11.607  22.826  0.00  0.00    -0.127 N 
ATOM     11  C   UNL d   1     -48.782  15.436  22.946  0.00  0.00     0.023 C 
ENDROOT
BRANCH   3  12
ATOM     12  C   UNL d   1     -46.801  13.305  22.733  0.00  0.00     0.085 A 
ATOM     13  C   UNL d   1     -46.516  12.871  23.371  0.00  0.00     0.019 A 
ATOM     14  C   UNL d   1     -45.803  12.474  23.308  0.00  0.00     0.002 A 
ATOM     15  C   UNL d   1     -45.366  12.504  22.609  0.00  0.00     0.000 A 
ATOM     16  C   UNL d   1     -45.651  12.941  21.963  0.00  0.00     0.002 A 
ATOM     17  C   UNL d   1     -44.646  12.102  22.548  0.00  0.00     0.000 C 
ATOM     18  C   UNL d   1     -46.368  13.340  22.029  0.00  0.00     0.019 A 
ENDBRANCH   3  12
BRANCH   6  19
ATOM     19  C   UNL d   1     -50.196  14.380  22.986  0.00  0.00     0.030 A 
ATOM     20  S   UNL d   1     -50.507  14.694  23.682  0.00  0.00    -0.086 SA
ATOM     21  C   UNL d   1     -51.044  15.288  23.482  0.00  0.00     0.035 A 
ATOM     22  C   UNL d   1     -51.064  15.340  22.659  0.00  0.00     0.007 A 
ATOM     23  C   UNL d   1     -50.548  14.787  22.347  0.00  0.00     0.007 A 
ENDBRANCH   6  19
BRANCH   8  24
ATOM     24  C   UNL d   1     -50.685  12.805  22.947  0.00  0.00     0.125 C 
ATOM     25  N   UNL d   1     -50.920  12.084  23.268  0.00  0.00    -0.146 N 
ENDBRANCH   8  24
TORSDOF 3
ENDMDL
MODEL 2
REMARK VINA RESULT:      -7.2      0.970      1.328
REMARK  3 active torsions:
REMARK  status: ('A' for Active; 'I' for Inactive)
REMARK    1  A    between atoms: C_13  and  N_3 
REMARK    2  A    between atoms: C_10  and  C_6 
REMARK    3  A    between atoms: C_11  and  C_8 
ROOT
ATOM      1  C   UNL d   1     -47.522  12.668  22.920  0.00  0.00     0.167 A 
ATOM      2  C   UNL d   1     -47.872  13.419  22.861  0.00  0.00     0.056 A 
ATOM      3  N   UNL d   1     -46.709  12.769  23.054  0.00  0.00    -0.212 N 
ATOM      4  N   UNL d   1     -46.551  13.591  23.078  0.00  0.00    -0.164 NA
ATOM      5  N   UNL d   1     -47.989  11.993  22.845  0.00  0.00    -0.206 NA
ATOM      6  C   UNL d   1     -48.681  13.486  22.727  0.00  0.00     0.015 A 
ATOM      7  C   UNL d   1     -47.271  13.992  22.958  0.00  0.00     0.104 A 
ATOM      8  C   UNL d   1     -49.147  12.816  22.653  0.00  0.00     0.059 A 
ATOM      9  C   UNL d   1     -48.799  12.070  22.712  0.00  0.00     0.187 A 
ATOM     10  N   UNL d   1     -49.263  11.397  22.637  0.00  0.00    -0.127 N 
ATOM     11  C   UNL d   1     -47.373  14.805  22.939  0.00  0.00     0.023 C 
ENDROOT
BRANCH   3  12
ATOM     12  C   UNL d   1     -46.153  12.164  23.147  0.00  0.00     0.085 A 
ATOM     13  C   UNL d   1     -46.334  11.506  23.607  0.00  0.00     0.019 A 
ATOM     14  C   UNL d   1     -45.782  10.909  23.698  0.00  0.00     0.002 A 
ATOM     15  C   UNL d   1     -45.045  10.958  23.331  0.00  0.00     0.000 A 
ATOM     16  C   UNL d   1     -44.860  11.621  22.866  0.00  0.00     0.002 A 
ATOM     17  C   UNL d   1     -44.490  10.353  23.424  0.00  0.00     0.000 C 
ATOM     18  C   UNL d   1     -45.417  12.221  22.776  0.00  0.00     0.019 A 
ENDBRANCH   3  12
BRANCH   6  19
ATOM     19  C   UNL d   1     -49.022  14.235  22.669  0.00  0.00     0.030 A 
ATOM     20  S   UNL d   1     -49.350  14.674  23.285  0.00  0.00    -0.086 SA
ATOM     21  C   UNL d   1     -49.625  15.389  22.977  0.00  0.00     0.035 A 
ATOM     22  C   UNL d   1     -49.466  15.390  22.167  0.00  0.00     0.007 A 
ATOM     23  C   UNL d   1     -49.097  14.686  21.971  0.00  0.00     0.007 A 
ENDBRANCH   6  19
BRANCH   8  24
ATOM     24  C   UNL d   1     -49.957  12.884  22.519  0.00  0.00     0.125 C 
ATOM     25  N   UNL d   1     -50.433  12.213  22.539  0.00  0.00    -0.146 N 
ENDBRANCH   8  24
TORSDOF 3
ENDMDL
MODEL 3
REMARK VINA RESULT:      -7.0      1.132      2.132
REMARK  3 active torsions:
REMARK  status: ('A' for Active; 'I' for Inactive)
REMARK    1  A    between atoms: C_13  and  N_3 
REMARK    2  A    between atoms: C_10  and  C_6 
REMARK    3  A    between atoms: C_11  and  C_8 
ROOT
ATOM      1  C   UNL d   1     -47.713  13.372  22.532  0.00  0.00     0.167 A 
ATOM      2  C   UNL d   1     -48.467  13.066  22.692  0.00  0.00     0.056 A 
ATOM      3  N   UNL d   1     -47.183  12.736  22.457  0.00  0.00    -0.212 N 
ATOM      4  N   UNL d   1     -47.614  12.027  22.573  0.00  0.00    -0.164 NA
ATOM      5  N   UNL d   1     -47.606  14.187  22.474  0.00  0.00    -0.206 NA
ATOM      6  C   UNL d   1     -49.105  13.576  22.793  0.00  0.00     0.015 A 
ATOM      7  C   UNL d   1     -48.408  12.232  22.718  0.00  0.00     0.104 A 
ATOM      8  C   UNL d   1     -49.001  14.387  22.737  0.00  0.00     0.059 A 
ATOM      9  C   UNL d   1     -48.251  14.690  22.577  0.00  0.00     0.187 A 
ATOM     10  N   UNL d   1     -48.143  15.503  22.520  0.00  0.00    -0.127 N 
ATOM     11  C   UNL d   1     -49.022  11.709  22.861  0.00  0.00     0.023 C 
ENDROOT
BRANCH   3  12
ATOM     12  C   UNL d   1     -46.374  12.794  22.297  0.00  0.00     0.085 A 
ATOM     13  C   UNL d   1     -46.112  12.863  21.521  0.00  0.00     0.019 A 
ATOM     14  C   UNL d   1     -45.310  12.920  21.365  0.00  0.00     0.002 A 
ATOM     15  C   UNL d   1     -44.761  12.909  21.980  0.00  0.00     0.000 A 
ATOM     16  C   UNL d   1     -45.023  12.840  22.766  0.00  0.00     0.002 A 
ATOM     17  C   UNL d   1     -43.952  12.967  21.820  0.00  0.00     0.000 C 
ATOM     18  C   UNL d   1     -45.830  12.783  22.920  0.00  0.00     0.019 A 
ENDBRANCH   3  12
BRANCH   6  19
ATOM     19  C   UNL d   1     -49.853  13.265  22.953  0.00  0.00     0.030 A 
ATOM     20  S   UNL d   1     -50.195  13.168  23.696  0.00  0.00    -0.086 SA
ATOM     21  C   UNL d   1     -50.945  12.838  23.595  0.00  0.00     0.035 A 
ATOM     22  C   UNL d   1     -51.064  12.731  22.786  0.00  0.00     0.007 A 
ATOM     23  C   UNL d   1     -50.399  12.990  22.386  0.00  0.00     0.007 A 
ENDBRANCH   6  19
BRANCH   8  24
ATOM     24  C   UNL d   1     -49.640  14.897  22.838  0.00  0.00     0.125 C 
ATOM     25  N   UNL d   1     -49.512  15.708  22.891  0.00  0.00    -0.146 N 
ENDBRANCH   8  24
TORSDOF 3
ENDMDL
MODEL 4
REMARK VINA RESULT:      -6.5      9.139     10.082
REMARK  3 active torsions:
REMARK  status: ('A' for Active; 'I' for Inactive)
REMARK    1  A    between atoms: C_13  and  N_3 
REMARK    2  A    between atoms: C_10  and  C_6 
REMARK    3  A    between atoms: C_11  and  C_8 
ROOT
ATOM      1  C   UNL d   1     -39.414  14.451  19.566  0.00  0.00     0.167 A 
ATOM      2  C   UNL d   1     -39.846  14.847  18.978  0.00  0.00     0.056 A 
ATOM      3  N   UNL d   1     -39.633  14.761  20.305  0.00  0.00    -0.212 N 
ATOM      4  N   UNL d   1     -40.207  15.357  20.175  0.00  0.00    -0.164 NA
ATOM      5  N   UNL d   1     -38.880  13.861  19.353  0.00  0.00    -0.206 NA
ATOM      6  C   UNL d   1     -39.740  14.651  18.186  0.00  0.00     0.015 A 
ATOM      7  C   UNL d   1     -40.338  15.410  19.354  0.00  0.00     0.104 A 
ATOM      8  C   UNL d   1     -39.209  14.064  17.972  0.00  0.00     0.059 A 
ATOM      9  C   UNL d   1     -38.780  13.670  18.557  0.00  0.00     0.187 A 
ATOM     10  N   UNL d   1     -38.247  13.082  18.345  0.00  0.00    -0.127 N 
ATOM     11  C   UNL d   1     -40.857  15.922  18.980  0.00  0.00     0.023 C 
ENDROOT
BRANCH   3  12
ATOM     12  C   UNL d   1     -39.336  14.523  21.039  0.00  0.00     0.085 A 
ATOM     13  C   UNL d   1     -39.706  13.919  21.457  0.00  0.00     0.019 A 
ATOM     14  C   UNL d   1     -39.410  13.686  22.183  0.00  0.00     0.002 A 
ATOM     15  C   UNL d   1     -38.742  14.050  22.501  0.00  0.00     0.000 A 
ATOM     16  C   UNL d   1     -38.366  14.660  22.081  0.00  0.00     0.002 A 
ATOM     17  C   UNL d   1     -38.445  13.812  23.235  0.00  0.00     0.000 C 
ATOM     18  C   UNL d   1     -38.666  14.893  21.351  0.00  0.00     0.019 A 
ENDBRANCH   3  12
BRANCH   6  19
ATOM     19  C   UNL d   1     -40.172  15.049  17.607  0.00  0.00     0.030 A 
ATOM     20  S   UNL d   1     -39.926  15.708  17.178  0.00  0.00    -0.086 SA
ATOM     21  C   UNL d   1     -40.533  15.922  16.660  0.00  0.00     0.035 A 
ATOM     22  C   UNL d   1     -41.155  15.392  16.772  0.00  0.00     0.007 A 
ATOM     23  C   UNL d   1     -40.942  14.854  17.351  0.00  0.00     0.007 A 
ENDBRANCH   6  19
BRANCH   8  24
ATOM     24  C   UNL d   1     -39.103  13.867  17.179  0.00  0.00     0.125 C 
ATOM     25  N   UNL d   1     -38.571  13.274  16.972  0.00  0.00    -0.146 N 
ENDBRANCH   8  24
TORSDOF 3
ENDMDL
MODEL 5
REMARK VINA RESULT:      -6.3      1.079      2.177
REMARK  3 active torsions:
REMARK  status: ('A' for Active; 'I' for Inactive)
REMARK    1  A    between atoms: C_13  and  N_3 
REMARK    2  A    between atoms: C_10  and  C_6 
REMARK    3  A    between atoms: C_11  and  C_8 
ROOT
ATOM      1  C   UNL d   1     -47.817  12.812  23.126  0.00  0.00     0.167 A 
ATOM      2  C   UNL d   1     -48.642  12.900  23.119  0.00  0.00     0.056 A 
ATOM      3  N   UNL d   1     -47.640  12.007  23.229  0.00  0.00    -0.212 N 
ATOM      4  N   UNL d   1     -48.365  11.590  23.287  0.00  0.00    -0.164 NA
ATOM      5  N   UNL d   1     -47.335  13.474  23.038  0.00  0.00    -0.206 NA
ATOM      6  C   UNL d   1     -48.975  13.646  23.024  0.00  0.00     0.015 A 
ATOM      7  C   UNL d   1     -48.984  12.143  23.218  0.00  0.00     0.104 A 
ATOM      8  C   UNL d   1     -48.498  14.306  22.936  0.00  0.00     0.059 A 
ATOM      9  C   UNL d   1     -47.677  14.218  22.943  0.00  0.00     0.187 A 
ATOM     10  N   UNL d   1     -47.195  14.878  22.855  0.00  0.00    -0.127 N 
ATOM     11  C   UNL d   1     -49.785  11.976  23.244  0.00  0.00     0.023 C 
ENDROOT
BRANCH   3  12
ATOM     12  C   UNL d   1     -46.884  11.676  23.268  0.00  0.00     0.085 A 
ATOM     13  C   UNL d   1     -46.765  10.963  23.661  0.00  0.00     0.019 A 
ATOM     14  C   UNL d   1     -46.015  10.638  23.698  0.00  0.00     0.002 A 
ATOM     15  C   UNL d   1     -45.375  11.019  23.345  0.00  0.00     0.000 A 
ATOM     16  C   UNL d   1     -45.491  11.739  22.947  0.00  0.00     0.002 A 
ATOM     17  C   UNL d   1     -44.618  10.689  23.384  0.00  0.00     0.000 C 
ATOM     18  C   UNL d   1     -46.247  12.064  22.911  0.00  0.00     0.019 A 
ENDBRANCH   3  12
BRANCH   6  19
ATOM     19  C   UNL d   1     -49.797  13.726  23.018  0.00  0.00     0.030 A 
ATOM     20  S   UNL d   1     -50.283  13.842  23.673  0.00  0.00    -0.086 SA
ATOM     21  C   UNL d   1     -51.064  13.892  23.410  0.00  0.00     0.035 A 
ATOM     22  C   UNL d   1     -51.059  13.806  22.590  0.00  0.00     0.007 A 
ATOM     23  C   UNL d   1     -50.285  13.704  22.342  0.00  0.00     0.007 A 
ENDBRANCH   6  19
BRANCH   8  24
ATOM     24  C   UNL d   1     -48.832  15.053  22.841  0.00  0.00     0.125 C 
ATOM     25  N   UNL d   1     -48.438  15.625  22.398  0.00  0.00    -0.146 N 
ENDBRANCH   8  24
TORSDOF 3
ENDMDL
MODEL 6
REMARK VINA RESULT:      -6.3      8.631     10.436
REMARK  3 active torsions:
REMARK  status: ('A' for Active; 'I' for Inactive)
REMARK    1  A    between atoms: C_13  and  N_3 
REMARK    2  A    between atoms: C_10  and  C_6 
REMARK    3  A    between atoms: C_11  and  C_8 
ROOT
ATOM      1  C   UNL d   1     -39.186  14.516  18.459  0.00  0.00     0.167 A 
ATOM      2  C   UNL d   1     -39.688  14.878  19.012  0.00  0.00     0.056 A 
ATOM      3  N   UNL d   1     -39.388  14.791  17.702  0.00  0.00    -0.212 N 
ATOM      4  N   UNL d   1     -40.024  15.330  17.785  0.00  0.00    -0.164 NA
ATOM      5  N   UNL d   1     -38.611  13.984  18.717  0.00  0.00    -0.206 NA
ATOM      6  C   UNL d   1     -39.612  14.705  19.813  0.00  0.00     0.015 A 
ATOM      7  C   UNL d   1     -40.209  15.383  18.596  0.00  0.00     0.104 A 
ATOM      8  C   UNL d   1     -39.041  14.177  20.071  0.00  0.00     0.059 A 
ATOM      9  C   UNL d   1     -38.542  13.818  19.521  0.00  0.00     0.187 A 
ATOM     10  N   UNL d   1     -37.968  13.288  19.777  0.00  0.00    -0.127 N 
ATOM     11  C   UNL d   1     -40.797  15.848  18.927  0.00  0.00     0.023 C 
ENDROOT
BRANCH   3  12
ATOM     12  C   UNL d   1     -39.026  14.571  16.993  0.00  0.00     0.085 A 
ATOM     13  C   UNL d   1     -39.214  13.853  16.639  0.00  0.00     0.019 A 
ATOM     14  C   UNL d   1     -38.854  13.637  15.937  0.00  0.00     0.002 A 
ATOM     15  C   UNL d   1     -38.302  14.134  15.578  0.00  0.00     0.000 A 
ATOM     16  C   UNL d   1     -38.110  14.861  15.933  0.00  0.00     0.002 A 
ATOM     17  C   UNL d   1     -37.940  13.915  14.869  0.00  0.00     0.000 C 
ATOM     18  C   UNL d   1     -38.474  15.075  16.640  0.00  0.00     0.019 A 
ENDBRANCH   3  12
BRANCH   6  19
ATOM     19  C   UNL d   1     -40.115  15.069  20.357  0.00  0.00     0.030 A 
ATOM     20  S   UNL d   1     -39.964  15.761  20.778  0.00  0.00    -0.086 SA
ATOM     21  C   UNL d   1     -40.617  15.921  21.257  0.00  0.00     0.035 A 
ATOM     22  C   UNL d   1     -41.173  15.325  21.129  0.00  0.00     0.007 A 
ATOM     23  C   UNL d   1     -40.873  14.799  20.579  0.00  0.00     0.007 A 
ENDBRANCH   6  19
BRANCH   8  24
ATOM     24  C   UNL d   1     -38.965  14.005  20.873  0.00  0.00     0.125 C 
ATOM     25  N   UNL d   1     -38.425  13.434  21.119  0.00  0.00    -0.146 N 
ENDBRANCH   8  24
TORSDOF 3
ENDMDL
MODEL 7
REMARK VINA RESULT:      -6.0      9.452     10.461
REMARK  3 active torsions:
REMARK  status: ('A' for Active; 'I' for Inactive)
REMARK    1  A    between atoms: C_13  and  N_3 
REMARK    2  A    between atoms: C_10  and  C_6 
REMARK    3  A    between atoms: C_11  and  C_8 
ROOT
ATOM      1  C   UNL d   1     -39.151  14.534  19.883  0.00  0.00     0.167 A 
ATOM      2  C   UNL d   1     -38.952  14.337  19.102  0.00  0.00     0.056 A 
ATOM      3  N   UNL d   1     -38.643  14.122  20.395  0.00  0.00    -0.212 N 
ATOM      4  N   UNL d   1     -38.121  13.664  19.927  0.00  0.00    -0.164 NA
ATOM      5  N   UNL d   1     -39.768  15.061  20.026  0.00  0.00    -0.206 NA
ATOM      6  C   UNL d   1     -39.369  14.667  18.475  0.00  0.00     0.015 A 
ATOM      7  C   UNL d   1     -38.313  13.797  19.127  0.00  0.00     0.104 A 
ATOM      8  C   UNL d   1     -39.983  15.192  18.615  0.00  0.00     0.059 A 
ATOM      9  C   UNL d   1     -40.181  15.388  19.391  0.00  0.00     0.187 A 
ATOM     10  N   UNL d   1     -40.795  15.913  19.535  0.00  0.00    -0.127 N 
ATOM     11  C   UNL d   1     -37.942  13.459  18.479  0.00  0.00     0.023 C 
ENDROOT
BRANCH   3  12
ATOM     12  C   UNL d   1     -38.651  14.159  21.221  0.00  0.00     0.085 A 
ATOM     13  C   UNL d   1     -38.219  14.741  21.612  0.00  0.00     0.019 A 
ATOM     14  C   UNL d   1     -38.229  14.775  22.429  0.00  0.00     0.002 A 
ATOM     15  C   UNL d   1     -38.668  14.232  22.867  0.00  0.00     0.000 A 
ATOM     16  C   UNL d   1     -39.105  13.643  22.475  0.00  0.00     0.002 A 
ATOM     17  C   UNL d   1     -38.676  14.269  23.693  0.00  0.00     0.000 C 
ATOM     18  C   UNL d   1     -39.093  13.611  21.653  0.00  0.00     0.019 A 
ENDBRANCH   3  12
BRANCH   6  19
ATOM     19  C   UNL d   1     -39.165  14.466  17.701  0.00  0.00     0.030 A 
ATOM     20  S   UNL d   1     -38.641  14.871  17.211  0.00  0.00    -0.086 SA
ATOM     21  C   UNL d   1     -38.604  14.476  16.487  0.00  0.00     0.035 A 
ATOM     22  C   UNL d   1     -39.108  13.824  16.532  0.00  0.00     0.007 A 
ATOM     23  C   UNL d   1     -39.455  13.811  17.272  0.00  0.00     0.007 A 
ENDBRANCH   6  19
BRANCH   8  24
ATOM     24  C   UNL d   1     -40.400  15.522  17.986  0.00  0.00     0.125 C 
ATOM     25  N   UNL d   1     -41.107  15.920  18.128  0.00  0.00    -0.146 N 
ENDBRANCH   8  24
TORSDOF 3
ENDMDL
