MODEL 1
REMARK VINA RESULT:      -4.2      0.000      0.000
REMARK  4 active torsions:
REMARK  status: ('A' for Active; 'I' for Inactive)
REMARK    1  A    between atoms: C_9  and  N_1 
REMARK    2  A    between atoms: C_2  and  C_9 
REMARK    3  A    between atoms: S_13  and  C_5 
REMARK    4  A    between atoms: C_17  and  S_13 
ROOT
ATOM      1  N   UNL d   1     -41.145-122.492 -51.723  0.00  0.00    -0.265 N 
ATOM      2  C   UNL d   1     -41.145-121.668 -51.793  0.00  0.00     0.296 A 
ATOM      3  S   UNL d   1     -41.166-121.487 -52.595  0.00  0.00    -0.025 SA
ATOM      4  C   UNL d   1     -41.166-122.822 -52.472  0.00  0.00     0.074 A 
ATOM      5  C   UNL d   1     -41.180-122.207 -53.017  0.00  0.00     0.050 A 
ATOM      6  O   UNL d   1     -41.126-121.130 -51.172  0.00  0.00    -0.259 OA
ATOM      7  C   UNL d   1     -41.176-123.608 -52.739  0.00  0.00     0.018 A 
ATOM      8  C   UNL d   1     -41.202-122.368 -53.827  0.00  0.00     0.008 A 
ATOM      9  C   UNL d   1     -41.198-123.773 -53.547  0.00  0.00     0.002 A 
ATOM     10  C   UNL d   1     -41.211-123.142 -54.088  0.00  0.00     0.001 A 
ENDROOT
BRANCH   1  11
ATOM     11  C   UNL d   1     -41.127-122.919 -51.017  0.00  0.00     0.123 C 
BRANCH  11  12
ATOM     12  C   UNL d   1     -41.786-122.954 -50.538  0.00  0.00     0.189 A 
ATOM     13  N   UNL d   1     -41.763-123.382 -49.841  0.00  0.00    -0.265 N 
ATOM     14  C   UNL d   1     -42.499-123.318 -49.480  0.00  0.00     0.201 A 
ATOM     15  C   UNL d   1     -41.124-123.807 -49.541  0.00  0.00     0.103 C 
ATOM     16  N   UNL d   1     -42.977-122.848 -49.955  0.00  0.00    -0.121 NA
ATOM     17  N   UNL d   1     -42.533-122.625 -50.610  0.00  0.00    -0.126 NA
BRANCH  14  18
ATOM     18  S   UNL d   1     -42.722-123.662 -48.766  0.00  0.00    -0.048 SA
BRANCH  18  19
ATOM     19  C   UNL d   1     -42.922-123.193 -48.117  0.00  0.00     0.038 C 
ATOM     20  C   UNL d   1     -43.341-123.514 -47.483  0.00  0.00     0.008 C 
ENDBRANCH  18  19
ENDBRANCH  14  18
ENDBRANCH  11  12
ENDBRANCH   1  11
TORSDOF 4
ENDMDL
MODEL 2
REMARK VINA RESULT:      -3.8      1.431      2.010
REMARK  4 active torsions:
REMARK  status: ('A' for Active; 'I' for Inactive)
REMARK    1  A    between atoms: C_9  and  N_1 
REMARK    2  A    between atoms: C_2  and  C_9 
REMARK    3  A    between atoms: S_13  and  C_5 
REMARK    4  A    between atoms: C_17  and  S_13 
ROOT
ATOM      1  N   UNL d   1     -41.588-122.506 -53.220  0.00  0.00    -0.265 N 
ATOM      2  C   UNL d   1     -41.396-123.304 -53.326  0.00  0.00     0.296 A 
ATOM      3  S   UNL d   1     -41.525-123.488 -54.117  0.00  0.00    -0.025 SA
ATOM      4  C   UNL d   1     -41.835-122.196 -53.936  0.00  0.00     0.074 A 
ATOM      5  C   UNL d   1     -41.799-122.797 -54.496  0.00  0.00     0.050 A 
ATOM      6  O   UNL d   1     -41.124-123.817 -52.744  0.00  0.00    -0.259 OA
ATOM      7  C   UNL d   1     -42.091-121.439 -54.162  0.00  0.00     0.018 A 
ATOM      8  C   UNL d   1     -42.017-122.650 -55.280  0.00  0.00     0.008 A 
ATOM      9  C   UNL d   1     -42.309-121.288 -54.943  0.00  0.00     0.002 A 
ATOM     10  C   UNL d   1     -42.269-121.904 -55.499  0.00  0.00     0.001 A 
ENDROOT
BRANCH   1  11
ATOM     11  C   UNL d   1     -41.541-122.086 -52.512  0.00  0.00     0.123 C 
BRANCH  11  12
ATOM     12  C   UNL d   1     -41.957-122.334 -51.856  0.00  0.00     0.189 A 
ATOM     13  N   UNL d   1     -41.744-122.069 -51.112  0.00  0.00    -0.265 N 
ATOM     14  C   UNL d   1     -42.257-122.408 -50.565  0.00  0.00     0.201 A 
ATOM     15  C   UNL d   1     -41.127-121.553 -50.927  0.00  0.00     0.103 C 
ATOM     16  N   UNL d   1     -42.787-122.883 -50.973  0.00  0.00    -0.121 NA
ATOM     17  N   UNL d   1     -42.599-122.836 -51.772  0.00  0.00    -0.126 NA
BRANCH  14  18
ATOM     18  S   UNL d   1     -42.243-122.292 -49.750  0.00  0.00    -0.048 SA
BRANCH  18  19
ATOM     19  C   UNL d   1     -42.561-122.858 -49.240  0.00  0.00     0.038 C 
ATOM     20  C   UNL d   1     -42.570-122.727 -48.425  0.00  0.00     0.008 C 
ENDBRANCH  18  19
ENDBRANCH  14  18
ENDBRANCH  11  12
ENDBRANCH   1  11
TORSDOF 4
ENDMDL
MODEL 3
REMARK VINA RESULT:      -3.4      1.408      4.117
REMARK  4 active torsions:
REMARK  status: ('A' for Active; 'I' for Inactive)
REMARK    1  A    between atoms: C_9  and  N_1 
REMARK    2  A    between atoms: C_2  and  C_9 
REMARK    3  A    between atoms: S_13  and  C_5 
REMARK    4  A    between atoms: C_17  and  S_13 
ROOT
ATOM      1  N   UNL d   1     -41.609-122.330 -51.338  0.00  0.00    -0.265 N 
ATOM      2  C   UNL d   1     -41.506-121.554 -51.071  0.00  0.00     0.296 A 
ATOM      3  S   UNL d   1     -41.856-121.497 -50.329  0.00  0.00    -0.025 SA
ATOM      4  C   UNL d   1     -42.018-122.753 -50.769  0.00  0.00     0.074 A 
ATOM      5  C   UNL d   1     -42.175-122.246 -50.142  0.00  0.00     0.050 A 
ATOM      6  O   UNL d   1     -41.123-120.950 -51.477  0.00  0.00    -0.259 OA
ATOM      7  C   UNL d   1     -42.275-123.542 -50.733  0.00  0.00     0.018 A 
ATOM      8  C   UNL d   1     -42.585-122.517 -49.478  0.00  0.00     0.008 A 
ATOM      9  C   UNL d   1     -42.685-123.817 -50.072  0.00  0.00     0.002 A 
ATOM     10  C   UNL d   1     -42.837-123.294 -49.445  0.00  0.00     0.001 A 
ENDROOT
BRANCH   1  11
ATOM     11  C   UNL d   1     -41.345-122.634 -52.058  0.00  0.00     0.123 C 
BRANCH  11  12
ATOM     12  C   UNL d   1     -41.631-122.337 -52.762  0.00  0.00     0.189 A 
ATOM     13  N   UNL d   1     -41.515-122.751 -53.458  0.00  0.00    -0.265 N 
ATOM     14  C   UNL d   1     -41.860-122.322 -54.069  0.00  0.00     0.201 A 
ATOM     15  C   UNL d   1     -41.123-123.471 -53.547  0.00  0.00     0.103 C 
ATOM     16  N   UNL d   1     -42.190-121.641 -53.748  0.00  0.00    -0.121 NA
ATOM     17  N   UNL d   1     -42.047-121.653 -52.939  0.00  0.00    -0.126 NA
BRANCH  14  18
ATOM     18  S   UNL d   1     -41.874-122.534 -54.865  0.00  0.00    -0.048 SA
BRANCH  18  19
ATOM     19  C   UNL d   1     -42.319-122.102 -55.407  0.00  0.00     0.038 C 
ATOM     20  C   UNL d   1     -41.973-121.819 -56.101  0.00  0.00     0.008 C 
ENDBRANCH  18  19
ENDBRANCH  14  18
ENDBRANCH  11  12
ENDBRANCH   1  11
TORSDOF 4
ENDMDL
