MODEL 1
REMARK VINA RESULT:      16.7      0.000      0.000
REMARK  8 active torsions:
REMARK  status: ('A' for Active; 'I' for Inactive)
REMARK    1  A    between atoms: S_10  and  C_2 
REMARK    2  A    between atoms: C_7  and  C_4 
REMARK    3  A    between atoms: C_17  and  S_10 
REMARK    4  A    between atoms: C_14  and  C_17 
REMARK    5  A    between atoms: O_18  and  C_14 
REMARK    6  A    between atoms: O_19  and  C_15 
REMARK    7  A    between atoms: C_22  and  O_18 
REMARK    8  A    between atoms: C_23  and  O_19 
ROOT
ATOM      1  C   UNL d   1     -41.764-122.296 -51.545  0.00  0.00     0.093 A 
ATOM      2  C   UNL d   1     -41.666-121.716 -52.135  0.00  0.00     0.124 A 
ATOM      3  N   UNL d   1     -41.459-120.945 -51.923  0.00  0.00    -0.200 NA
ATOM      4  C   UNL d   1     -41.654-122.097 -50.751  0.00  0.00     0.028 A 
ATOM      5  C   UNL d   1     -41.447-121.329 -50.542  0.00  0.00     0.127 A 
ATOM      6  C   UNL d   1     -41.348-120.750 -51.133  0.00  0.00     0.289 A 
ATOM      7  C   UNL d   1     -41.970-123.061 -51.750  0.00  0.00     0.103 C 
ATOM      8  C   UNL d   1     -41.336-121.131 -49.749  0.00  0.00     0.106 C 
ATOM      9  N   UNL d   1     -42.175-123.818 -51.959  0.00  0.00    -0.191 NA
ATOM     10  N   UNL d   1     -41.227-120.935 -48.970  0.00  0.00    -0.191 NA
ATOM     11  O   UNL d   1     -41.123-119.928 -50.852  0.00  0.00    -0.264 OA
ENDROOT
BRANCH   2  12
ATOM     12  S   UNL d   1     -41.796-121.981 -52.951  0.00  0.00    -0.061 SA
BRANCH  12  13
ATOM     13  C   UNL d   1     -41.639-121.551 -53.692  0.00  0.00     0.105 C 
BRANCH  13  14
ATOM     14  C   UNL d   1     -42.198-121.626 -54.353  0.00  0.00     0.307 C 
ATOM     15  O   UNL d   1     -42.669-121.386 -54.361  0.00  0.00    -0.258 OA
BRANCH  14  16
ATOM     16  O   UNL d   1     -41.914-122.140 -55.016  0.00  0.00    -0.271 OA
BRANCH  16  17
ATOM     17  C   UNL d   1     -42.298-121.984 -55.819  0.00  0.00     0.126 C 
ATOM     18  C   UNL d   1     -41.645-121.603 -56.373  0.00  0.00     0.029 C 
ENDBRANCH  16  17
ENDBRANCH  14  16
ENDBRANCH  13  14
ENDBRANCH  12  13
ENDBRANCH   2  12
BRANCH   4  19
ATOM     19  C   UNL d   1     -41.750-122.668 -50.169  0.00  0.00     0.024 A 
ATOM     20  C   UNL d   1     -42.470-122.739 -49.779  0.00  0.00     0.100 A 
ATOM     21  C   UNL d   1     -42.567-123.314 -49.194  0.00  0.00     0.025 A 
ATOM     22  C   UNL d   1     -41.945-123.817 -49.000  0.00  0.00     0.002 A 
ATOM     23  C   UNL d   1     -41.221-123.745 -49.393  0.00  0.00     0.000 A 
ATOM     24  C   UNL d   1     -41.123-123.171 -49.978  0.00  0.00     0.002 A 
BRANCH  20  25
ATOM     25  O   UNL d   1     -43.042-122.355 -49.884  0.00  0.00    -0.305 OA
BRANCH  25  26
ATOM     26  C   UNL d   1     -43.725-122.714 -49.656  0.00  0.00     0.123 C 
ATOM     27  C   UNL d   1     -44.516-122.358 -49.991  0.00  0.00     0.029 C 
ENDBRANCH  25  26
ENDBRANCH  20  25
ENDBRANCH   4  19
TORSDOF 8
ENDMDL
MODEL 2
REMARK VINA RESULT:      17.5      1.199      4.428
REMARK  8 active torsions:
REMARK  status: ('A' for Active; 'I' for Inactive)
REMARK    1  A    between atoms: S_10  and  C_2 
REMARK    2  A    between atoms: C_7  and  C_4 
REMARK    3  A    between atoms: C_17  and  S_10 
REMARK    4  A    between atoms: C_14  and  C_17 
REMARK    5  A    between atoms: O_18  and  C_14 
REMARK    6  A    between atoms: O_19  and  C_15 
REMARK    7  A    between atoms: C_22  and  O_18 
REMARK    8  A    between atoms: C_23  and  O_19 
ROOT
ATOM      1  C   UNL d   1     -41.798-122.261 -52.327  0.00  0.00     0.093 A 
ATOM      2  C   UNL d   1     -41.714-121.966 -51.552  0.00  0.00     0.124 A 
ATOM      3  N   UNL d   1     -41.501-121.177 -51.433  0.00  0.00    -0.200 NA
ATOM      4  C   UNL d   1     -41.668-121.763 -52.972  0.00  0.00     0.028 A 
ATOM      5  C   UNL d   1     -41.456-120.978 -52.852  0.00  0.00     0.127 A 
ATOM      6  C   UNL d   1     -41.372-120.683 -52.078  0.00  0.00     0.289 A 
ATOM      7  C   UNL d   1     -42.009-123.042 -52.448  0.00  0.00     0.103 C 
ATOM      8  C   UNL d   1     -41.326-120.481 -53.497  0.00  0.00     0.106 C 
ATOM      9  N   UNL d   1     -42.218-123.817 -52.564  0.00  0.00    -0.191 NA
ATOM     10  N   UNL d   1     -41.198-119.991 -54.131  0.00  0.00    -0.191 NA
ATOM     11  O   UNL d   1     -41.139-119.820 -52.001  0.00  0.00    -0.264 OA
ENDROOT
BRANCH   2  12
ATOM     12  S   UNL d   1     -41.863-122.534 -50.913  0.00  0.00    -0.061 SA
BRANCH  12  13
ATOM     13  C   UNL d   1     -41.801-122.410 -50.053  0.00  0.00     0.105 C 
BRANCH  13  14
ATOM     14  C   UNL d   1     -42.314-122.868 -49.520  0.00  0.00     0.307 C 
ATOM     15  O   UNL d   1     -42.633-123.254 -49.688  0.00  0.00    -0.258 OA
BRANCH  14  16
ATOM     16  O   UNL d   1     -42.256-122.634 -48.667  0.00  0.00    -0.271 OA
BRANCH  16  17
ATOM     17  C   UNL d   1     -42.217-123.319 -48.080  0.00  0.00     0.126 C 
ATOM     18  C   UNL d   1     -42.008-122.959 -47.241  0.00  0.00     0.029 C 
ENDBRANCH  16  17
ENDBRANCH  14  16
ENDBRANCH  13  14
ENDBRANCH  12  13
ENDBRANCH   2  12
BRANCH   4  19
ATOM     19  C   UNL d   1     -41.750-122.053 -53.736  0.00  0.00     0.024 A 
ATOM     20  C   UNL d   1     -42.457-121.947 -54.142  0.00  0.00     0.100 A 
ATOM     21  C   UNL d   1     -42.541-122.239 -54.910  0.00  0.00     0.025 A 
ATOM     22  C   UNL d   1     -41.917-122.638 -55.271  0.00  0.00     0.002 A 
ATOM     23  C   UNL d   1     -41.206-122.744 -54.862  0.00  0.00     0.000 A 
ATOM     24  C   UNL d   1     -41.122-122.452 -54.094  0.00  0.00     0.002 A 
BRANCH  20  25
ATOM     25  O   UNL d   1     -43.029-121.623 -53.907  0.00  0.00    -0.305 OA
BRANCH  25  26
ATOM     26  C   UNL d   1     -43.574-121.466 -54.479  0.00  0.00     0.123 C 
ATOM     27  C   UNL d   1     -44.465-121.608 -54.256  0.00  0.00     0.029 C 
ENDBRANCH  25  26
ENDBRANCH  20  25
ENDBRANCH   4  19
TORSDOF 8
ENDMDL
MODEL 3
REMARK VINA RESULT:      18.7      1.763      4.656
REMARK  8 active torsions:
REMARK  status: ('A' for Active; 'I' for Inactive)
REMARK    1  A    between atoms: S_10  and  C_2 
REMARK    2  A    between atoms: C_7  and  C_4 
REMARK    3  A    between atoms: C_17  and  S_10 
REMARK    4  A    between atoms: C_14  and  C_17 
REMARK    5  A    between atoms: O_18  and  C_14 
REMARK    6  A    between atoms: O_19  and  C_15 
REMARK    7  A    between atoms: C_22  and  O_18 
REMARK    8  A    between atoms: C_23  and  O_19 
ROOT
ATOM      1  C   UNL d   1     -42.387-122.803 -51.405  0.00  0.00     0.093 A 
ATOM      2  C   UNL d   1     -42.695-122.663 -50.643  0.00  0.00     0.124 A 
ATOM      3  N   UNL d   1     -43.335-122.151 -50.546  0.00  0.00    -0.200 NA
ATOM      4  C   UNL d   1     -42.724-122.429 -52.059  0.00  0.00     0.028 A 
ATOM      5  C   UNL d   1     -43.362-121.919 -51.960  0.00  0.00     0.127 A 
ATOM      6  C   UNL d   1     -43.669-121.779 -51.199  0.00  0.00     0.289 A 
ATOM      7  C   UNL d   1     -41.753-123.310 -51.505  0.00  0.00     0.103 C 
ATOM      8  C   UNL d   1     -43.698-121.546 -52.614  0.00  0.00     0.106 C 
ATOM      9  N   UNL d   1     -41.123-123.813 -51.599  0.00  0.00    -0.191 NA
ATOM     10  N   UNL d   1     -44.030-121.178 -53.256  0.00  0.00    -0.191 NA
ATOM     11  O   UNL d   1     -44.365-121.215 -51.145  0.00  0.00    -0.264 OA
ENDROOT
BRANCH   2  12
ATOM     12  S   UNL d   1     -42.301-123.083 -49.994  0.00  0.00    -0.061 SA
BRANCH  12  13
ATOM     13  C   UNL d   1     -42.627-123.307 -49.217  0.00  0.00     0.105 C 
BRANCH  13  14
ATOM     14  C   UNL d   1     -42.324-122.919 -48.501  0.00  0.00     0.307 C 
ATOM     15  O   UNL d   1     -41.910-122.590 -48.504  0.00  0.00    -0.258 OA
BRANCH  14  16
ATOM     16  O   UNL d   1     -42.766-123.121 -47.760  0.00  0.00    -0.271 OA
BRANCH  16  17
ATOM     17  C   UNL d   1     -42.258-123.215 -47.020  0.00  0.00     0.126 C 
ATOM     18  C   UNL d   1     -42.021-122.355 -46.730  0.00  0.00     0.029 C 
ENDBRANCH  16  17
ENDBRANCH  14  16
ENDBRANCH  13  14
ENDBRANCH  12  13
ENDBRANCH   2  12
BRANCH   4  19
ATOM     19  C   UNL d   1     -42.421-122.567 -52.809  0.00  0.00     0.024 A 
ATOM     20  C   UNL d   1     -41.889-122.036 -53.142  0.00  0.00     0.100 A 
ATOM     21  C   UNL d   1     -41.584-122.174 -53.897  0.00  0.00     0.025 A 
ATOM     22  C   UNL d   1     -41.812-122.844 -54.319  0.00  0.00     0.002 A 
ATOM     23  C   UNL d   1     -42.348-123.377 -53.984  0.00  0.00     0.000 A 
ATOM     24  C   UNL d   1     -42.653-123.239 -53.229  0.00  0.00     0.002 A 
BRANCH  20  25
ATOM     25  O   UNL d   1     -41.647-121.449 -52.851  0.00  0.00    -0.305 OA
BRANCH  25  26
ATOM     26  C   UNL d   1     -41.140-121.036 -53.320  0.00  0.00     0.123 C 
ATOM     27  C   UNL d   1     -41.473-120.263 -53.714  0.00  0.00     0.029 C 
ENDBRANCH  25  26
ENDBRANCH  20  25
ENDBRANCH   4  19
TORSDOF 8
ENDMDL
