MODEL 1
REMARK VINA RESULT:      90.6      0.000      0.000
REMARK  11 active torsions:
REMARK  status: ('A' for Active; 'I' for Inactive)
REMARK    1  A    between atoms: N_5  and  S_1 
REMARK    2  A    between atoms: C_8  and  S_1 
REMARK    3  A    between atoms: C_2  and  N_10 
REMARK    4  A    between atoms: C_9  and  N_5 
REMARK    5  A    between atoms: C_18  and  N_5 
REMARK    6  A    between atoms: C_13  and  C_9 
REMARK    7  A    between atoms: N_10  and  O_14 
REMARK    8  A    between atoms: C_17  and  C_13 
REMARK    9  A    between atoms: O_14  and  C_17 
REMARK   10  A    between atoms: C_27  and  C_18 
REMARK   11  A    between atoms: C_29  and  C_27 
ROOT
ATOM      1  C   UNL d   1      61.389  47.918  50.474  0.00  0.00     0.240 C 
ATOM      2  O   UNL d   1      61.816  47.825  49.774  0.00  0.00    -0.283 OA
ENDROOT
BRANCH   1   3
ATOM      3  C   UNL d   1      61.207  48.671  50.179  0.00  0.00     0.136 C 
BRANCH   3   4
ATOM      4  N   UNL d   1      60.723  49.171  50.626  0.00  0.00    -0.226 N 
BRANCH   4   5
ATOM      5  S   UNL d   1      59.940  49.311  50.392  0.00  0.00     0.271 S 
ATOM      6  O   UNL d   1      60.354  49.435  49.686  0.00  0.00    -0.200 OA
ATOM      7  O   UNL d   1      59.357  49.236  50.968  0.00  0.00    -0.200 OA
BRANCH   5   8
ATOM      8  C   UNL d   1      59.125  49.395  50.405  0.00  0.00     0.104 A 
ATOM      9  C   UNL d   1      58.723  49.620  49.722  0.00  0.00     0.013 A 
ATOM     10  C   UNL d   1      57.900  49.704  49.738  0.00  0.00     0.001 A 
ATOM     11  C   UNL d   1      57.483  49.562  50.439  0.00  0.00     0.000 A 
ATOM     12  C   UNL d   1      57.939  49.337  51.099  0.00  0.00     0.001 A 
ATOM     13  C   UNL d   1      56.662  49.639  50.479  0.00  0.00     0.000 C 
ATOM     14  C   UNL d   1      58.751  49.243  51.124  0.00  0.00     0.013 A 
ENDBRANCH   5   8
ENDBRANCH   4   5
BRANCH   4  15
ATOM     15  C   UNL d   1      60.859  49.598  51.312  0.00  0.00     0.095 C 
BRANCH  15  16
ATOM     16  C   UNL d   1      60.700  49.253  52.048  0.00  0.00     0.065 C 
BRANCH  16  17
ATOM     17  C   UNL d   1      60.757  49.708  52.738  0.00  0.00     0.236 C 
ATOM     18  O   UNL d   1      60.212  49.610  53.341  0.00  0.00    -0.283 OA
ENDBRANCH  16  17
ENDBRANCH  15  16
ENDBRANCH   4  15
ENDBRANCH   3   4
ENDBRANCH   1   3
BRANCH   1  19
ATOM     19  C   UNL d   1      61.361  47.314  51.025  0.00  0.00     0.193 C 
BRANCH  19  20
ATOM     20  O   UNL d   1      61.526  46.540  50.792  0.00  0.00    -0.206 OA
BRANCH  20  21
ATOM     21  N   UNL d   1      61.395  45.911  51.318  0.00  0.00    -0.126 NA
BRANCH  21  22
ATOM     22  C   UNL d   1      61.451  45.133  51.053  0.00  0.00     0.108 A 
ATOM     23  C   UNL d   1      61.436  44.456  51.528  0.00  0.00     0.020 A 
ATOM     24  C   UNL d   1      61.508  43.802  51.027  0.00  0.00     0.002 A 
ATOM     25  C   UNL d   1      61.369  44.356  52.334  0.00  0.00     0.002 A 
ATOM     26  C   UNL d   1      61.510  43.042  51.353  0.00  0.00     0.000 A 
ATOM     27  C   UNL d   1      61.565  44.061  50.255  0.00  0.00     0.002 A 
ATOM     28  C   UNL d   1      61.442  42.941  52.164  0.00  0.00     0.000 A 
ATOM     29  C   UNL d   1      61.372  43.599  52.653  0.00  0.00     0.000 A 
ATOM     30  C   UNL d   1      61.531  44.884  50.265  0.00  0.00     0.020 A 
ATOM     31  C   UNL d   1      61.645  43.666  49.541  0.00  0.00     0.000 A 
ATOM     32  C   UNL d   1      61.575  45.313  49.565  0.00  0.00     0.002 A 
ATOM     33  C   UNL d   1      61.655  44.919  48.847  0.00  0.00     0.000 A 
ATOM     34  C   UNL d   1      61.690  44.089  48.840  0.00  0.00     0.000 A 
ENDBRANCH  21  22
ENDBRANCH  20  21
ENDBRANCH  19  20
ENDBRANCH   1  19
TORSDOF 11
ENDMDL
