MODEL 1
REMARK VINA RESULT:      80.1      0.000      0.000
REMARK  2 active torsions:
REMARK  status: ('A' for Active; 'I' for Inactive)
REMARK    1  A    between atoms: C_9  and  N_2 
REMARK    2  A    between atoms: C_7  and  C_4 
ROOT
ATOM      1  C   UNL d   1     -47.896  31.272  34.514  0.00  0.00     0.136 A 
ATOM      2  N   UNL d   1     -47.643  30.776  35.124  0.00  0.00    -0.281 N 
ATOM      3  C   UNL d   1     -47.685  32.073  34.526  0.00  0.00     0.152 A 
ATOM      4  C   UNL d   1     -47.180  31.082  35.745  0.00  0.00     0.175 A 
ATOM      5  N   UNL d   1     -46.974  31.882  35.751  0.00  0.00    -0.188 NA
ATOM      6  C   UNL d   1     -47.227  32.376  35.142  0.00  0.00     0.292 A 
ATOM      7  C   UNL d   1     -47.938  32.567  33.917  0.00  0.00     0.108 C 
ATOM      8  N   UNL d   1     -48.191  33.068  33.306  0.00  0.00    -0.191 NA
ATOM      9  S   UNL d   1     -48.355  30.977  33.895  0.00  0.00    -0.058 SA
ATOM     10  O   UNL d   1     -47.021  33.181  35.145  0.00  0.00    -0.264 OA
ENDROOT
BRANCH   2  11
ATOM     11  C   UNL d   1     -47.850  29.982  35.115  0.00  0.00     0.066 A 
ATOM     12  C   UNL d   1     -47.338  29.431  34.775  0.00  0.00     0.020 A 
ATOM     13  C   UNL d   1     -47.547  28.635  34.768  0.00  0.00     0.031 A 
ATOM     14  C   UNL d   1     -48.265  28.387  35.098  0.00  0.00     0.140 A 
ATOM     15  C   UNL d   1     -48.776  28.943  35.439  0.00  0.00     0.031 A 
ATOM     16  F   UNL d   1     -48.469  27.585  35.087  0.00  0.00    -0.204 F 
ATOM     17  C   UNL d   1     -48.567  29.740  35.447  0.00  0.00     0.020 A 
ENDBRANCH   2  11
BRANCH   4  18
ATOM     18  C   UNL d   1     -46.928  30.588  36.354  0.00  0.00     0.135 A 
ATOM     19  O   UNL d   1     -47.364  30.380  37.018  0.00  0.00    -0.302 OA
ATOM     20  C   UNL d   1     -46.899  29.882  37.475  0.00  0.00     0.123 A 
ATOM     21  C   UNL d   1     -46.177  29.781  37.094  0.00  0.00     0.029 A 
ATOM     22  C   UNL d   1     -46.186  30.211  36.405  0.00  0.00     0.030 A 
ENDBRANCH   4  18
TORSDOF 2
ENDMDL
