MODEL 1
REMARK VINA RESULT:      20.3      0.000      0.000
REMARK  3 active torsions:
REMARK  status: ('A' for Active; 'I' for Inactive)
REMARK    1  A    between atoms: N_2  and  S_1 
REMARK    2  A    between atoms: C_3  and  S_1 
REMARK    3  A    between atoms: C_5  and  N_4 
ROOT
ATOM      1  N   UNL d   1      45.840 -16.271  43.912  0.00  0.00    -0.226 N 
ATOM      2  N   UNL d   1      46.133 -17.879  43.684  0.00  0.00    -0.301 N 
ATOM      3  C   UNL d   1      45.572 -16.645  43.218  0.00  0.00     0.111 A 
ATOM      4  C   UNL d   1      46.248 -16.701  44.479  0.00  0.00     0.111 A 
ATOM      5  C   UNL d   1      46.394 -17.505  44.365  0.00  0.00     0.100 A 
ATOM      6  C   UNL d   1      45.718 -17.449  43.104  0.00  0.00     0.100 A 
ENDROOT
BRANCH   1   7
ATOM      7  S   UNL d   1      45.694 -15.467  44.025  0.00  0.00     0.271 S 
ATOM      8  O   UNL d   1      44.949 -15.555  43.686  0.00  0.00    -0.200 OA
ATOM      9  O   UNL d   1      46.442 -15.379  44.366  0.00  0.00    -0.200 OA
BRANCH   7  10
ATOM     10  C   UNL d   1      45.548 -14.663  44.139  0.00  0.00     0.104 A 
ATOM     11  C   UNL d   1      45.834 -14.113  43.603  0.00  0.00     0.015 A 
ATOM     12  C   UNL d   1      45.688 -13.310  43.717  0.00  0.00     0.028 A 
ATOM     13  C   UNL d   1      45.978 -12.757  43.174  0.00  0.00     0.002 C 
ATOM     14  C   UNL d   1      45.256 -13.057  44.367  0.00  0.00     0.140 A 
ATOM     15  C   UNL d   1      44.964 -13.611  44.915  0.00  0.00     0.030 A 
ATOM     16  F   UNL d   1      45.110 -12.253  44.481  0.00  0.00    -0.204 F 
ATOM     17  C   UNL d   1      45.109 -14.414  44.801  0.00  0.00     0.015 A 
ENDBRANCH   7  10
ENDBRANCH   1   7
BRANCH   2  18
ATOM     18  C   UNL d   1      46.278 -18.679  43.571  0.00  0.00     0.064 A 
ATOM     19  C   UNL d   1      46.501 -18.958  42.832  0.00  0.00     0.016 A 
ATOM     20  C   UNL d   1      46.647 -19.762  42.718  0.00  0.00     0.001 A 
ATOM     21  C   UNL d   1      46.579 -18.430  42.199  0.00  0.00     0.002 C 
ATOM     22  C   UNL d   1      46.570 -20.285  43.343  0.00  0.00     0.000 A 
ATOM     23  C   UNL d   1      46.345 -20.012  44.095  0.00  0.00     0.001 A 
ATOM     24  C   UNL d   1      46.199 -19.208  44.209  0.00  0.00     0.016 A 
ATOM     25  C   UNL d   1      45.976 -18.929  44.949  0.00  0.00     0.002 C 
ENDBRANCH   2  18
TORSDOF 3
ENDMDL
