MODEL 1
REMARK VINA RESULT:      -6.4      0.000      0.000
REMARK  6 active torsions:
REMARK  status: ('A' for Active; 'I' for Inactive)
REMARK    1  A    between atoms: C_21  and  C_3 
REMARK    2  A    between atoms: S_17  and  C_5 
REMARK    3  A    between atoms: C_11  and  C_16 
REMARK       I    between atoms: N_14  and  C_11 
REMARK    4  A    between atoms: C_19  and  N_14 
REMARK    5  A    between atoms: C_16  and  C_20 
REMARK    6  A    between atoms: C_20  and  S_17 
ROOT
ATOM      1  C   UNL d   1     -47.732  12.385  23.243  0.00  0.00     0.092 A 
ATOM      2  C   UNL d   1     -48.620  13.491  23.063  0.00  0.00     0.057 A 
ATOM      3  C   UNL d   1     -48.493  12.711  23.286  0.00  0.00     0.016 A 
ATOM      4  N   UNL d   1     -47.238  13.631  22.752  0.00  0.00    -0.239 NA
ATOM      5  C   UNL d   1     -47.105  12.845  22.976  0.00  0.00     0.120 A 
ATOM      6  C   UNL d   1     -47.993  13.951  22.795  0.00  0.00     0.081 A 
ATOM      7  C   UNL d   1     -49.376  13.811  23.107  0.00  0.00     0.193 A 
ATOM      8  C   UNL d   1     -47.613  11.594  23.471  0.00  0.00     0.103 C 
ATOM      9  N   UNL d   1     -47.486  10.803  23.698  0.00  0.00    -0.191 NA
ATOM     10  C   UNL d   1     -48.878  15.055  22.616  0.00  0.00     0.042 A 
ATOM     11  C   UNL d   1     -49.506  14.594  22.883  0.00  0.00     0.019 A 
ATOM     12  C   UNL d   1     -48.120  14.731  22.572  0.00  0.00    -0.003 A 
ATOM     13  O   UNL d   1     -50.004  13.351  23.374  0.00  0.00    -0.287 OA
ATOM     14  C   UNL d   1     -48.463  15.705  22.329  0.00  0.00     0.009 C 
ATOM     15  C   UNL d   1     -49.639  15.381  22.659  0.00  0.00     0.009 C 
ENDROOT
BRANCH   3  16
ATOM     16  C   UNL d   1     -49.121  12.250  23.554  0.00  0.00     0.001 C 
ATOM     17  C   UNL d   1     -49.565  11.810  23.021  0.00  0.00     0.000 C 
ENDBRANCH   3  16
BRANCH   5  18
ATOM     18  S   UNL d   1     -46.347  12.521  22.932  0.00  0.00    -0.067 SA
BRANCH  18  19
ATOM     19  C   UNL d   1     -45.758  12.920  22.513  0.00  0.00     0.042 C 
BRANCH  19  20
ATOM     20  C   UNL d   1     -45.128  12.496  22.185  0.00  0.00     0.070 C 
BRANCH  20  21
ATOM     21  C   UNL d   1     -44.436  12.892  21.957  0.00  0.00     0.280 C 
ATOM     22  N   UNL d   1     -43.798  12.467  21.649  0.00  0.00    -0.208 NA
ATOM     23  O   UNL d   1     -44.382  13.714  22.037  0.00  0.00    -0.265 OA
BRANCH  22  24
ATOM     24  C   UNL d   1     -43.106  12.863  21.421  0.00  0.00     0.085 A 
ATOM     25  C   UNL d   1     -43.082  13.279  20.707  0.00  0.00     0.019 A 
ATOM     26  C   UNL d   1     -42.394  13.669  20.486  0.00  0.00     0.002 A 
ATOM     27  C   UNL d   1     -41.723  13.652  20.970  0.00  0.00     0.000 A 
ATOM     28  C   UNL d   1     -41.747  13.238  21.681  0.00  0.00     0.002 A 
ATOM     29  C   UNL d   1     -41.023  14.052  20.740  0.00  0.00     0.000 C 
ATOM     30  C   UNL d   1     -42.439  12.842  21.909  0.00  0.00     0.019 A 
ENDBRANCH  22  24
ENDBRANCH  20  21
ENDBRANCH  19  20
ENDBRANCH  18  19
ENDBRANCH   5  18
TORSDOF 6
ENDMDL
MODEL 2
REMARK VINA RESULT:      -5.7      1.379      2.084
REMARK  6 active torsions:
REMARK  status: ('A' for Active; 'I' for Inactive)
REMARK    1  A    between atoms: C_21  and  C_3 
REMARK    2  A    between atoms: S_17  and  C_5 
REMARK    3  A    between atoms: C_11  and  C_16 
REMARK       I    between atoms: N_14  and  C_11 
REMARK    4  A    between atoms: C_19  and  N_14 
REMARK    5  A    between atoms: C_16  and  C_20 
REMARK    6  A    between atoms: C_20  and  S_17 
ROOT
ATOM      1  C   UNL d   1     -45.573  12.035  22.999  0.00  0.00     0.092 A 
ATOM      2  C   UNL d   1     -46.630  12.998  23.002  0.00  0.00     0.057 A 
ATOM      3  C   UNL d   1     -46.334  12.267  23.232  0.00  0.00     0.016 A 
ATOM      4  N   UNL d   1     -45.418  13.274  22.306  0.00  0.00    -0.239 NA
ATOM      5  C   UNL d   1     -45.116  12.538  22.536  0.00  0.00     0.120 A 
ATOM      6  C   UNL d   1     -46.172  13.502  22.539  0.00  0.00     0.081 A 
ATOM      7  C   UNL d   1     -47.385  13.225  23.235  0.00  0.00     0.193 A 
ATOM      8  C   UNL d   1     -45.282  11.293  23.236  0.00  0.00     0.103 C 
ATOM      9  N   UNL d   1     -44.983  10.552  23.470  0.00  0.00    -0.191 NA
ATOM     10  C   UNL d   1     -47.226  14.463  22.542  0.00  0.00     0.042 A 
ATOM     11  C   UNL d   1     -47.684  13.959  23.005  0.00  0.00     0.019 A 
ATOM     12  C   UNL d   1     -46.469  14.232  22.310  0.00  0.00    -0.003 A 
ATOM     13  O   UNL d   1     -47.842  12.722  23.698  0.00  0.00    -0.287 OA
ATOM     14  C   UNL d   1     -47.004  15.126  22.109  0.00  0.00     0.009 C 
ATOM     15  C   UNL d   1     -47.987  14.695  22.776  0.00  0.00     0.009 C 
ENDROOT
BRANCH   3  16
ATOM     16  C   UNL d   1     -46.792  11.763  23.695  0.00  0.00     0.001 C 
ATOM     17  C   UNL d   1     -47.353  11.277  23.343  0.00  0.00     0.000 C 
ENDBRANCH   3  16
BRANCH   5  18
ATOM     18  S   UNL d   1     -44.359  12.308  22.303  0.00  0.00    -0.067 SA
BRANCH  18  19
ATOM     19  C   UNL d   1     -43.905  12.814  21.834  0.00  0.00     0.042 C 
BRANCH  19  20
ATOM     20  C   UNL d   1     -43.100  12.664  21.726  0.00  0.00     0.070 C 
BRANCH  20  21
ATOM     21  C   UNL d   1     -42.650  13.152  21.228  0.00  0.00     0.280 C 
ATOM     22  N   UNL d   1     -42.024  13.594  21.538  0.00  0.00    -0.208 NA
ATOM     23  O   UNL d   1     -42.826  13.198  20.422  0.00  0.00    -0.265 OA
BRANCH  22  24
ATOM     24  C   UNL d   1     -41.574  14.081  21.040  0.00  0.00     0.085 A 
ATOM     25  C   UNL d   1     -41.721  14.895  21.013  0.00  0.00     0.019 A 
ATOM     26  C   UNL d   1     -41.272  15.373  20.519  0.00  0.00     0.002 A 
ATOM     27  C   UNL d   1     -40.674  15.052  20.045  0.00  0.00     0.000 A 
ATOM     28  C   UNL d   1     -40.529  14.242  20.072  0.00  0.00     0.002 A 
ATOM     29  C   UNL d   1     -40.219  15.544  19.542  0.00  0.00     0.000 C 
ATOM     30  C   UNL d   1     -40.978  13.755  20.570  0.00  0.00     0.019 A 
ENDBRANCH  22  24
ENDBRANCH  20  21
ENDBRANCH  19  20
ENDBRANCH  18  19
ENDBRANCH   5  18
TORSDOF 6
ENDMDL
MODEL 3
REMARK VINA RESULT:      -4.9      2.679      7.720
REMARK  6 active torsions:
REMARK  status: ('A' for Active; 'I' for Inactive)
REMARK    1  A    between atoms: C_21  and  C_3 
REMARK    2  A    between atoms: S_17  and  C_5 
REMARK    3  A    between atoms: C_11  and  C_16 
REMARK       I    between atoms: N_14  and  C_11 
REMARK    4  A    between atoms: C_19  and  N_14 
REMARK    5  A    between atoms: C_16  and  C_20 
REMARK    6  A    between atoms: C_20  and  S_17 
ROOT
ATOM      1  C   UNL d   1     -39.994  14.420  20.638  0.00  0.00     0.092 A 
ATOM      2  C   UNL d   1     -39.789  14.974  19.336  0.00  0.00     0.057 A 
ATOM      3  C   UNL d   1     -39.528  14.852  20.106  0.00  0.00     0.016 A 
ATOM      4  N   UNL d   1     -40.976  14.240  19.617  0.00  0.00    -0.239 NA
ATOM      5  C   UNL d   1     -40.718  14.114  20.394  0.00  0.00     0.120 A 
ATOM      6  C   UNL d   1     -40.513  14.668  19.092  0.00  0.00     0.081 A 
ATOM      7  C   UNL d   1     -39.324  15.403  18.811  0.00  0.00     0.193 A 
ATOM      8  C   UNL d   1     -39.723  14.301  21.416  0.00  0.00     0.103 C 
ATOM      9  N   UNL d   1     -39.457  14.178  22.195  0.00  0.00    -0.191 NA
ATOM     10  C   UNL d   1     -40.308  15.221  17.793  0.00  0.00     0.042 A 
ATOM     11  C   UNL d   1     -39.584  15.527  18.038  0.00  0.00     0.019 A 
ATOM     12  C   UNL d   1     -40.772  14.791  18.323  0.00  0.00    -0.003 A 
ATOM     13  O   UNL d   1     -38.600  15.709  19.055  0.00  0.00    -0.287 OA
ATOM     14  C   UNL d   1     -40.947  15.043  17.307  0.00  0.00     0.009 C 
ATOM     15  C   UNL d   1     -39.842  15.653  17.261  0.00  0.00     0.009 C 
ENDROOT
BRANCH   3  16
ATOM     16  C   UNL d   1     -38.804  15.158  20.350  0.00  0.00     0.001 C 
ATOM     17  C   UNL d   1     -38.763  15.915  20.669  0.00  0.00     0.000 C 
ENDBRANCH   3  16
BRANCH   5  18
ATOM     18  S   UNL d   1     -41.182  13.684  20.923  0.00  0.00    -0.067 SA
BRANCH  18  19
ATOM     19  C   UNL d   1     -42.003  13.680  20.834  0.00  0.00     0.042 C 
BRANCH  19  20
ATOM     20  C   UNL d   1     -42.441  13.029  21.094  0.00  0.00     0.070 C 
BRANCH  20  21
ATOM     21  C   UNL d   1     -43.171  13.145  21.471  0.00  0.00     0.280 C 
ATOM     22  N   UNL d   1     -43.704  12.518  21.542  0.00  0.00    -0.208 NA
ATOM     23  O   UNL d   1     -43.366  13.887  21.779  0.00  0.00    -0.265 OA
BRANCH  22  24
ATOM     24  C   UNL d   1     -44.433  12.633  21.919  0.00  0.00     0.085 A 
ATOM     25  C   UNL d   1     -44.635  12.180  22.581  0.00  0.00     0.019 A 
ATOM     26  C   UNL d   1     -45.358  12.298  22.951  0.00  0.00     0.002 A 
ATOM     27  C   UNL d   1     -45.890  12.867  22.671  0.00  0.00     0.000 A 
ATOM     28  C   UNL d   1     -45.690  13.318  22.012  0.00  0.00     0.002 A 
ATOM     29  C   UNL d   1     -46.628  12.984  23.052  0.00  0.00     0.000 C 
ATOM     30  C   UNL d   1     -44.961  13.202  21.634  0.00  0.00     0.019 A 
ENDBRANCH  22  24
ENDBRANCH  20  21
ENDBRANCH  19  20
ENDBRANCH  18  19
ENDBRANCH   5  18
TORSDOF 6
ENDMDL
MODEL 4
REMARK VINA RESULT:      -4.7      0.901      2.311
REMARK  6 active torsions:
REMARK  status: ('A' for Active; 'I' for Inactive)
REMARK    1  A    between atoms: C_21  and  C_3 
REMARK    2  A    between atoms: S_17  and  C_5 
REMARK    3  A    between atoms: C_11  and  C_16 
REMARK       I    between atoms: N_14  and  C_11 
REMARK    4  A    between atoms: C_19  and  N_14 
REMARK    5  A    between atoms: C_16  and  C_20 
REMARK    6  A    between atoms: C_20  and  S_17 
ROOT
ATOM      1  C   UNL d   1     -48.389  14.340  22.775  0.00  0.00     0.092 A 
ATOM      2  C   UNL d   1     -49.453  13.459  23.141  0.00  0.00     0.057 A 
ATOM      3  C   UNL d   1     -49.188  14.213  22.952  0.00  0.00     0.016 A 
ATOM      4  N   UNL d   1     -48.133  12.950  22.980  0.00  0.00    -0.239 NA
ATOM      5  C   UNL d   1     -47.861  13.709  22.789  0.00  0.00     0.120 A 
ATOM      6  C   UNL d   1     -48.926  12.827  23.155  0.00  0.00     0.081 A 
ATOM      7  C   UNL d   1     -50.247  13.336  23.316  0.00  0.00     0.193 A 
ATOM      8  C   UNL d   1     -48.129  15.107  22.584  0.00  0.00     0.103 C 
ATOM      9  N   UNL d   1     -47.862  15.872  22.393  0.00  0.00    -0.191 NA
ATOM     10  C   UNL d   1     -49.987  11.948  23.521  0.00  0.00     0.042 A 
ATOM     11  C   UNL d   1     -50.515  12.579  23.507  0.00  0.00     0.019 A 
ATOM     12  C   UNL d   1     -49.191  12.074  23.345  0.00  0.00    -0.003 A 
ATOM     13  O   UNL d   1     -50.775  13.968  23.302  0.00  0.00    -0.287 OA
ATOM     14  C   UNL d   1     -49.702  11.181  23.606  0.00  0.00     0.009 C 
ATOM     15  C   UNL d   1     -50.787  11.821  23.698  0.00  0.00     0.009 C 
ENDROOT
BRANCH   3  16
ATOM     16  C   UNL d   1     -49.716  14.844  22.938  0.00  0.00     0.001 C 
ATOM     17  C   UNL d   1     -49.931  15.218  23.638  0.00  0.00     0.000 C 
ENDBRANCH   3  16
BRANCH   5  18
ATOM     18  S   UNL d   1     -47.065  13.834  22.613  0.00  0.00    -0.067 SA
BRANCH  18  19
ATOM     19  C   UNL d   1     -46.517  13.234  22.757  0.00  0.00     0.042 C 
BRANCH  19  20
ATOM     20  C   UNL d   1     -46.076  12.920  22.132  0.00  0.00     0.070 C 
BRANCH  20  21
ATOM     21  C   UNL d   1     -45.260  13.062  22.088  0.00  0.00     0.280 C 
ATOM     22  N   UNL d   1     -44.793  12.628  21.562  0.00  0.00    -0.208 NA
ATOM     23  O   UNL d   1     -44.912  13.637  22.569  0.00  0.00    -0.265 OA
BRANCH  22  24
ATOM     24  C   UNL d   1     -43.977  12.770  21.518  0.00  0.00     0.085 A 
ATOM     25  C   UNL d   1     -43.446  12.262  21.897  0.00  0.00     0.019 A 
ATOM     26  C   UNL d   1     -42.639  12.406  21.850  0.00  0.00     0.002 A 
ATOM     27  C   UNL d   1     -42.348  13.056  21.427  0.00  0.00     0.000 A 
ATOM     28  C   UNL d   1     -42.877  13.562  21.050  0.00  0.00     0.002 A 
ATOM     29  C   UNL d   1     -41.524  13.200  21.382  0.00  0.00     0.000 C 
ATOM     30  C   UNL d   1     -43.693  13.420  21.094  0.00  0.00     0.019 A 
ENDBRANCH  22  24
ENDBRANCH  20  21
ENDBRANCH  19  20
ENDBRANCH  18  19
ENDBRANCH   5  18
TORSDOF 6
ENDMDL
MODEL 5
REMARK VINA RESULT:      -4.6      2.627      7.765
REMARK  6 active torsions:
REMARK  status: ('A' for Active; 'I' for Inactive)
REMARK    1  A    between atoms: C_21  and  C_3 
REMARK    2  A    between atoms: S_17  and  C_5 
REMARK    3  A    between atoms: C_11  and  C_16 
REMARK       I    between atoms: N_14  and  C_11 
REMARK    4  A    between atoms: C_19  and  N_14 
REMARK    5  A    between atoms: C_16  and  C_20 
REMARK    6  A    between atoms: C_20  and  S_17 
ROOT
ATOM      1  C   UNL d   1     -40.422  14.431  19.802  0.00  0.00     0.092 A 
ATOM      2  C   UNL d   1     -39.444  15.077  20.621  0.00  0.00     0.057 A 
ATOM      3  C   UNL d   1     -39.729  14.879  19.876  0.00  0.00     0.016 A 
ATOM      4  N   UNL d   1     -40.532  14.384  21.225  0.00  0.00    -0.239 NA
ATOM      5  C   UNL d   1     -40.823  14.183  20.476  0.00  0.00     0.120 A 
ATOM      6  C   UNL d   1     -39.845  14.829  21.295  0.00  0.00     0.081 A 
ATOM      7  C   UNL d   1     -38.757  15.522  20.691  0.00  0.00     0.193 A 
ATOM      8  C   UNL d   1     -40.704  14.235  19.044  0.00  0.00     0.103 C 
ATOM      9  N   UNL d   1     -40.991  14.037  18.289  0.00  0.00    -0.191 NA
ATOM     10  C   UNL d   1     -38.870  15.473  22.112  0.00  0.00     0.042 A 
ATOM     11  C   UNL d   1     -38.469  15.721  21.438  0.00  0.00     0.019 A 
ATOM     12  C   UNL d   1     -39.559  15.026  22.040  0.00  0.00    -0.003 A 
ATOM     13  O   UNL d   1     -38.355  15.770  20.016  0.00  0.00    -0.287 OA
ATOM     14  C   UNL d   1     -39.054  15.368  22.907  0.00  0.00     0.009 C 
ATOM     15  C   UNL d   1     -38.177  15.922  22.187  0.00  0.00     0.009 C 
ENDROOT
BRANCH   3  16
ATOM     16  C   UNL d   1     -39.328  15.127  19.202  0.00  0.00     0.001 C 
ATOM     17  C   UNL d   1     -38.634  14.751  18.974  0.00  0.00     0.000 C 
ENDBRANCH   3  16
BRANCH   5  18
ATOM     18  S   UNL d   1     -41.513  13.736  20.403  0.00  0.00    -0.067 SA
BRANCH  18  19
ATOM     19  C   UNL d   1     -42.032  13.682  21.043  0.00  0.00     0.042 C 
BRANCH  19  20
ATOM     20  C   UNL d   1     -42.590  13.073  21.070  0.00  0.00     0.070 C 
BRANCH  20  21
ATOM     21  C   UNL d   1     -43.302  13.180  21.482  0.00  0.00     0.280 C 
ATOM     22  N   UNL d   1     -43.827  12.549  21.572  0.00  0.00    -0.208 NA
ATOM     23  O   UNL d   1     -43.488  13.918  21.805  0.00  0.00    -0.265 OA
BRANCH  22  24
ATOM     24  C   UNL d   1     -44.538  12.656  21.984  0.00  0.00     0.085 A 
ATOM     25  C   UNL d   1     -44.769  12.111  22.562  0.00  0.00     0.019 A 
ATOM     26  C   UNL d   1     -45.475  12.222  22.968  0.00  0.00     0.002 A 
ATOM     27  C   UNL d   1     -45.960  12.873  22.806  0.00  0.00     0.000 A 
ATOM     28  C   UNL d   1     -45.730  13.415  22.230  0.00  0.00     0.002 A 
ATOM     29  C   UNL d   1     -46.679  12.982  23.222  0.00  0.00     0.000 C 
ATOM     30  C   UNL d   1     -45.018  13.308  21.818  0.00  0.00     0.019 A 
ENDBRANCH  22  24
ENDBRANCH  20  21
ENDBRANCH  19  20
ENDBRANCH  18  19
ENDBRANCH   5  18
TORSDOF 6
ENDMDL
