MODEL 1
REMARK VINA RESULT:      78.5      0.000      0.000
REMARK  2 active torsions:
REMARK  status: ('A' for Active; 'I' for Inactive)
REMARK    1  A    between atoms: N_9  and  C_3 
REMARK    2  A    between atoms: C_11  and  C_4 
ROOT
ATOM      1  N   UNL d   1     -55.081-100.901 -42.519  0.00  0.00    -0.196 N 
ATOM      2  C   UNL d   1     -54.998-101.057 -41.687  0.00  0.00     0.167 A 
ATOM      3  C   UNL d   1     -55.040-100.137 -42.777  0.00  0.00     0.152 A 
ATOM      4  C   UNL d   1     -55.037-101.818 -41.409  0.00  0.00     0.057 A 
ATOM      5  N   UNL d   1     -55.239-102.296 -42.751  0.00  0.00    -0.161 NA
ATOM      6  N   UNL d   1     -54.879-100.438 -41.167  0.00  0.00    -0.227 NA
ATOM      7  C   UNL d   1     -54.920 -99.506 -42.261  0.00  0.00     0.057 A 
ATOM      8  C   UNL d   1     -55.158-102.447 -41.944  0.00  0.00     0.124 A 
ATOM      9  C   UNL d   1     -54.839 -99.659 -41.442  0.00  0.00     0.086 A 
ATOM     10  C   UNL d   1     -54.713 -99.007 -40.895  0.00  0.00     0.021 C 
ENDROOT
BRANCH   4  11
ATOM     11  C   UNL d   1     -54.956-101.969 -40.602  0.00  0.00     0.005 A 
ATOM     12  C   UNL d   1     -54.803-102.727 -40.345  0.00  0.00     0.001 A 
ATOM     13  C   UNL d   1     -54.724-102.875 -39.551  0.00  0.00     0.011 A 
ATOM     14  C   UNL d   1     -54.796-102.268 -39.002  0.00  0.00     0.058 A 
ATOM     15  C   UNL d   1     -54.950-101.510 -39.260  0.00  0.00     0.011 A 
ATOM     16 CL   UNL d   1     -54.712-102.426 -38.155  0.00  0.00    -0.082 Cl
ATOM     17  C   UNL d   1     -55.030-101.359 -40.067  0.00  0.00     0.001 A 
ENDBRANCH   4  11
BRANCH   3  18
ATOM     18  N   UNL d   1     -55.124 -99.976 -43.618  0.00  0.00    -0.289 N 
ATOM     19  C   UNL d   1     -55.617 -99.329 -43.888  0.00  0.00     0.082 A 
ATOM     20  C   UNL d   1     -55.703 -99.166 -44.719  0.00  0.00     0.019 A 
ATOM     21  C   UNL d   1     -55.290 -99.655 -45.299  0.00  0.00     0.003 A 
ATOM     22  C   UNL d   1     -54.797-100.302 -45.021  0.00  0.00     0.019 A 
ATOM     23  C   UNL d   1     -54.712-100.465 -44.190  0.00  0.00     0.082 A 
ENDBRANCH   3  18
TORSDOF 2
ENDMDL
