MODEL 1
REMARK VINA RESULT:      28.5      0.000      0.000
REMARK  4 active torsions:
REMARK  status: ('A' for Active; 'I' for Inactive)
REMARK    1  A    between atoms: N_2  and  S_1 
REMARK    2  A    between atoms: C_3  and  S_1 
REMARK    3  A    between atoms: O_15  and  C_13 
REMARK    4  A    between atoms: C_19  and  O_15 
ROOT
ATOM      1  C   UNL d   1      14.199  13.205  -2.237  0.00  0.00     0.105 A 
ATOM      2  C   UNL d   1      14.102  12.848  -1.488  0.00  0.00     0.014 A 
ATOM      3  C   UNL d   1      14.416  13.207  -0.818  0.00  0.00     0.024 A 
ATOM      4  C   UNL d   1      14.615  13.922  -2.287  0.00  0.00     0.015 A 
ATOM      5  C   UNL d   1      14.826  13.917  -0.876  0.00  0.00     0.100 A 
ATOM      6  C   UNL d   1      14.926  14.276  -1.612  0.00  0.00     0.025 A 
ATOM      7  C   UNL d   1      13.691  12.135  -1.428  0.00  0.00     0.001 A 
ATOM      8  C   UNL d   1      14.318  12.851  -0.084  0.00  0.00     0.002 A 
ATOM      9  C   UNL d   1      13.592  11.779  -0.694  0.00  0.00     0.000 A 
ATOM     10  C   UNL d   1      13.908  12.139  -0.014  0.00  0.00     0.000 A 
ENDROOT
BRANCH   1  11
ATOM     11  S   UNL d   1      13.887  12.851  -2.912  0.00  0.00     0.286 S 
ATOM     12  O   UNL d   1      13.390  13.502  -3.023  0.00  0.00    -0.198 OA
ATOM     13  O   UNL d   1      14.388  12.196  -2.799  0.00  0.00    -0.198 OA
BRANCH  11  14
ATOM     14  N   UNL d   1      13.571  12.492  -3.597  0.00  0.00    -0.150 N 
ATOM     15  N   UNL d   1      13.897  12.532  -4.361  0.00  0.00    -0.155 NA
ATOM     16  C   UNL d   1      13.408  12.101  -4.868  0.00  0.00     0.104 A 
ATOM     17  C   UNL d   1      13.520  11.991  -5.683  0.00  0.00     0.022 C 
ATOM     18  C   UNL d   1      12.780  11.794  -4.418  0.00  0.00     0.042 A 
ATOM     19  C   UNL d   1      12.885  12.038  -3.636  0.00  0.00     0.115 A 
ENDBRANCH  11  14
ENDBRANCH   1  11
BRANCH   5  20
ATOM     20  O   UNL d   1      15.137  14.270  -0.201  0.00  0.00    -0.305 OA
BRANCH  20  21
ATOM     21  C   UNL d   1      15.286  15.078  -0.192  0.00  0.00     0.123 C 
ATOM     22  C   UNL d   1      16.058  15.362  -0.223  0.00  0.00     0.029 C 
ENDBRANCH  20  21
ENDBRANCH   5  20
TORSDOF 4
ENDMDL
