MODEL 1
REMARK VINA RESULT:      -7.9      0.000      0.000
REMARK  4 active torsions:
REMARK  status: ('A' for Active; 'I' for Inactive)
REMARK    1  A    between atoms: C_4  and  C_3 
REMARK    2  A    between atoms: S_8  and  C_5 
REMARK    3  A    between atoms: C_13  and  S_8 
REMARK    4  A    between atoms: C_14  and  C_13 
ROOT
ATOM      1  N   UNL d   1      50.266  33.865  53.023  0.00  0.00    -0.146 NA
ATOM      2  N   UNL d   1      50.960  33.622  53.377  0.00  0.00    -0.141 NA
ATOM      3  C   UNL d   1      50.295  34.258  52.300  0.00  0.00     0.126 A 
ATOM      4  C   UNL d   1      51.682  33.763  53.025  0.00  0.00     0.132 A 
ATOM      5  C   UNL d   1      51.022  34.404  51.937  0.00  0.00     0.025 A 
ATOM      6  C   UNL d   1      51.708  34.159  52.295  0.00  0.00     0.029 A 
ENDROOT
BRANCH   4   7
ATOM      7  S   UNL d   1      52.381  33.516  53.386  0.00  0.00    -0.066 SA
BRANCH   7   8
ATOM      8  C   UNL d   1      52.563  33.760  54.145  0.00  0.00     0.037 C 
BRANCH   8   9
ATOM      9  C   UNL d   1      53.306  33.591  54.460  0.00  0.00     0.006 A 
ATOM     10  C   UNL d   1      53.556  32.811  54.522  0.00  0.00     0.001 A 
ATOM     11  C   UNL d   1      54.290  32.636  54.833  0.00  0.00     0.000 A 
ATOM     12  C   UNL d   1      54.782  33.255  55.086  0.00  0.00     0.000 A 
ATOM     13  C   UNL d   1      54.527  34.027  55.022  0.00  0.00     0.000 A 
ATOM     14  C   UNL d   1      53.783  34.193  54.706  0.00  0.00     0.001 A 
ENDBRANCH   8   9
ENDBRANCH   7   8
ENDBRANCH   4   7
BRANCH   3  15
ATOM     15  C   UNL d   1      49.600  34.506  51.938  0.00  0.00     0.119 A 
ATOM     16  O   UNL d   1      49.355  34.327  51.174  0.00  0.00    -0.304 OA
ATOM     17  C   UNL d   1      48.628  34.686  51.035  0.00  0.00     0.123 A 
ATOM     18  C   UNL d   1      48.417  35.098  51.729  0.00  0.00     0.029 A 
ATOM     19  C   UNL d   1      49.016  34.988  52.287  0.00  0.00     0.028 A 
ENDBRANCH   3  15
TORSDOF 4
ENDMDL
MODEL 2
REMARK VINA RESULT:      -7.6      1.555      4.935
REMARK  4 active torsions:
REMARK  status: ('A' for Active; 'I' for Inactive)
REMARK    1  A    between atoms: C_4  and  C_3 
REMARK    2  A    between atoms: S_8  and  C_5 
REMARK    3  A    between atoms: C_13  and  S_8 
REMARK    4  A    between atoms: C_14  and  C_13 
ROOT
ATOM      1  N   UNL d   1      52.335  33.165  53.641  0.00  0.00    -0.146 NA
ATOM      2  N   UNL d   1      51.680  33.367  53.196  0.00  0.00    -0.141 NA
ATOM      3  C   UNL d   1      52.920  33.728  53.781  0.00  0.00     0.126 A 
ATOM      4  C   UNL d   1      51.597  34.118  52.889  0.00  0.00     0.132 A 
ATOM      5  C   UNL d   1      52.843  34.490  53.473  0.00  0.00     0.025 A 
ATOM      6  C   UNL d   1      52.189  34.683  53.032  0.00  0.00     0.029 A 
ENDROOT
BRANCH   4   7
ATOM      7  S   UNL d   1      50.935  34.318  52.441  0.00  0.00    -0.066 SA
BRANCH   7   8
ATOM      8  C   UNL d   1      50.188  34.295  52.774  0.00  0.00     0.037 C 
BRANCH   8   9
ATOM      9  C   UNL d   1      49.546  34.601  52.356  0.00  0.00     0.006 A 
ATOM     10  C   UNL d   1      49.044  35.143  52.716  0.00  0.00     0.001 A 
ATOM     11  C   UNL d   1      48.407  35.450  52.308  0.00  0.00     0.000 A 
ATOM     12  C   UNL d   1      48.271  35.209  51.526  0.00  0.00     0.000 A 
ATOM     13  C   UNL d   1      48.774  34.670  51.175  0.00  0.00     0.000 A 
ATOM     14  C   UNL d   1      49.415  34.366  51.596  0.00  0.00     0.001 A 
ENDBRANCH   8   9
ENDBRANCH   7   8
ENDBRANCH   4   7
BRANCH   3  15
ATOM     15  C   UNL d   1      53.581  33.532  54.227  0.00  0.00     0.119 A 
ATOM     16  O   UNL d   1      53.713  33.722  55.015  0.00  0.00    -0.304 OA
ATOM     17  C   UNL d   1      54.443  33.419  55.244  0.00  0.00     0.123 A 
ATOM     18  C   UNL d   1      54.771  33.032  54.582  0.00  0.00     0.029 A 
ATOM     19  C   UNL d   1      54.240  33.101  53.954  0.00  0.00     0.028 A 
ENDBRANCH   3  15
TORSDOF 4
ENDMDL
MODEL 3
REMARK VINA RESULT:      -6.4      3.025      5.189
REMARK  4 active torsions:
REMARK  status: ('A' for Active; 'I' for Inactive)
REMARK    1  A    between atoms: C_4  and  C_3 
REMARK    2  A    between atoms: S_8  and  C_5 
REMARK    3  A    between atoms: C_13  and  S_8 
REMARK    4  A    between atoms: C_14  and  C_13 
ROOT
ATOM      1  N   UNL d   1      53.541  30.916  54.168  0.00  0.00    -0.146 NA
ATOM      2  N   UNL d   1      53.339  31.626  53.821  0.00  0.00    -0.141 NA
ATOM      3  C   UNL d   1      53.194  30.219  53.899  0.00  0.00     0.126 A 
ATOM      4  C   UNL d   1      52.798  31.657  53.211  0.00  0.00     0.132 A 
ATOM      5  C   UNL d   1      52.646  30.241  53.283  0.00  0.00     0.025 A 
ATOM      6  C   UNL d   1      52.449  30.952  52.943  0.00  0.00     0.029 A 
ENDROOT
BRANCH   4   7
ATOM      7  S   UNL d   1      52.596  32.376  52.864  0.00  0.00    -0.066 SA
BRANCH   7   8
ATOM      8  C   UNL d   1      52.255  32.971  53.311  0.00  0.00     0.037 C 
BRANCH   8   9
ATOM      9  C   UNL d   1      51.725  33.494  52.957  0.00  0.00     0.006 A 
ATOM     10  C   UNL d   1      51.960  33.936  52.306  0.00  0.00     0.001 A 
ATOM     11  C   UNL d   1      51.442  34.456  51.950  0.00  0.00     0.000 A 
ATOM     12  C   UNL d   1      50.673  34.533  52.253  0.00  0.00     0.000 A 
ATOM     13  C   UNL d   1      50.446  34.091  52.900  0.00  0.00     0.000 A 
ATOM     14  C   UNL d   1      50.979  33.568  53.252  0.00  0.00     0.001 A 
ENDBRANCH   8   9
ENDBRANCH   7   8
ENDBRANCH   4   7
BRANCH   3  15
ATOM     15  C   UNL d   1      53.393  29.501  54.244  0.00  0.00     0.119 A 
ATOM     16  O   UNL d   1      53.867  28.915  53.916  0.00  0.00    -0.304 OA
ATOM     17  C   UNL d   1      53.923  28.288  54.446  0.00  0.00     0.123 A 
ATOM     18  C   UNL d   1      53.473  28.490  55.119  0.00  0.00     0.029 A 
ATOM     19  C   UNL d   1      53.145  29.238  54.996  0.00  0.00     0.028 A 
ENDBRANCH   3  15
TORSDOF 4
ENDMDL
MODEL 4
REMARK VINA RESULT:      -6.3      2.942      4.179
REMARK  4 active torsions:
REMARK  status: ('A' for Active; 'I' for Inactive)
REMARK    1  A    between atoms: C_4  and  C_3 
REMARK    2  A    between atoms: S_8  and  C_5 
REMARK    3  A    between atoms: C_13  and  S_8 
REMARK    4  A    between atoms: C_14  and  C_13 
ROOT
ATOM      1  N   UNL d   1      53.047  33.383  53.660  0.00  0.00    -0.146 NA
ATOM      2  N   UNL d   1      53.173  32.581  53.578  0.00  0.00    -0.141 NA
ATOM      3  C   UNL d   1      53.399  33.787  54.286  0.00  0.00     0.126 A 
ATOM      4  C   UNL d   1      53.643  32.173  54.106  0.00  0.00     0.132 A 
ATOM      5  C   UNL d   1      53.876  33.382  54.823  0.00  0.00     0.025 A 
ATOM      6  C   UNL d   1      53.997  32.584  54.735  0.00  0.00     0.029 A 
ENDROOT
BRANCH   4   7
ATOM      7  S   UNL d   1      53.767  31.364  54.018  0.00  0.00    -0.066 SA
BRANCH   7   8
ATOM      8  C   UNL d   1      53.131  30.851  53.966  0.00  0.00     0.037 C 
BRANCH   8   9
ATOM      9  C   UNL d   1      53.238  30.051  54.137  0.00  0.00     0.006 A 
ATOM     10  C   UNL d   1      53.250  29.798  54.918  0.00  0.00     0.001 A 
ATOM     11  C   UNL d   1      53.355  29.008  55.096  0.00  0.00     0.000 A 
ATOM     12  C   UNL d   1      53.451  28.463  54.478  0.00  0.00     0.000 A 
ATOM     13  C   UNL d   1      53.438  28.721  53.704  0.00  0.00     0.000 A 
ATOM     14  C   UNL d   1      53.331  29.522  53.536  0.00  0.00     0.001 A 
ENDBRANCH   8   9
ENDBRANCH   7   8
ENDBRANCH   4   7
BRANCH   3  15
ATOM     15  C   UNL d   1      53.277  34.594  54.375  0.00  0.00     0.119 A 
ATOM     16  O   UNL d   1      53.503  35.056  55.016  0.00  0.00    -0.304 OA
ATOM     17  C   UNL d   1      53.274  35.834  54.880  0.00  0.00     0.123 A 
ATOM     18  C   UNL d   1      52.896  35.856  54.136  0.00  0.00     0.029 A 
ATOM     19  C   UNL d   1      52.897  35.092  53.824  0.00  0.00     0.028 A 
ENDBRANCH   3  15
TORSDOF 4
ENDMDL
MODEL 5
REMARK VINA RESULT:      -5.3     10.428     11.068
REMARK  4 active torsions:
REMARK  status: ('A' for Active; 'I' for Inactive)
REMARK    1  A    between atoms: C_4  and  C_3 
REMARK    2  A    between atoms: S_8  and  C_5 
REMARK    3  A    between atoms: C_13  and  S_8 
REMARK    4  A    between atoms: C_14  and  C_13 
ROOT
ATOM      1  N   UNL d   1      44.393  29.648  60.657  0.00  0.00    -0.146 NA
ATOM      2  N   UNL d   1      44.500  29.198  59.984  0.00  0.00    -0.141 NA
ATOM      3  C   UNL d   1      44.589  30.448  60.646  0.00  0.00     0.126 A 
ATOM      4  C   UNL d   1      44.800  29.530  59.302  0.00  0.00     0.132 A 
ATOM      5  C   UNL d   1      44.892  30.790  59.960  0.00  0.00     0.025 A 
ATOM      6  C   UNL d   1      44.997  30.337  59.295  0.00  0.00     0.029 A 
ENDROOT
BRANCH   4   7
ATOM      7  S   UNL d   1      44.907  29.073  58.625  0.00  0.00    -0.066 SA
BRANCH   7   8
ATOM      8  C   UNL d   1      44.858  28.256  58.665  0.00  0.00     0.037 C 
BRANCH   8   9
ATOM      9  C   UNL d   1      44.926  27.810  57.975  0.00  0.00     0.006 A 
ATOM     10  C   UNL d   1      45.606  27.371  57.836  0.00  0.00     0.001 A 
ATOM     11  C   UNL d   1      45.681  26.927  57.156  0.00  0.00     0.000 A 
ATOM     12  C   UNL d   1      45.060  26.923  56.604  0.00  0.00     0.000 A 
ATOM     13  C   UNL d   1      44.387  27.361  56.748  0.00  0.00     0.000 A 
ATOM     14  C   UNL d   1      44.323  27.807  57.439  0.00  0.00     0.001 A 
ENDBRANCH   8   9
ENDBRANCH   7   8
ENDBRANCH   4   7
BRANCH   3  15
ATOM     15  C   UNL d   1      44.483  30.906  61.320  0.00  0.00     0.119 A 
ATOM     16  O   UNL d   1      44.429  31.726  61.351  0.00  0.00    -0.304 OA
ATOM     17  C   UNL d   1      44.324  31.958  62.133  0.00  0.00     0.123 A 
ATOM     18  C   UNL d   1      44.314  31.265  62.599  0.00  0.00     0.029 A 
ATOM     19  C   UNL d   1      44.412  30.616  62.098  0.00  0.00     0.028 A 
ENDBRANCH   3  15
TORSDOF 4
ENDMDL
MODEL 6
REMARK VINA RESULT:      -5.2     10.298     10.929
REMARK  4 active torsions:
REMARK  status: ('A' for Active; 'I' for Inactive)
REMARK    1  A    between atoms: C_4  and  C_3 
REMARK    2  A    between atoms: S_8  and  C_5 
REMARK    3  A    between atoms: C_13  and  S_8 
REMARK    4  A    between atoms: C_14  and  C_13 
ROOT
ATOM      1  N   UNL d   1      45.415  28.094  58.382  0.00  0.00    -0.146 NA
ATOM      2  N   UNL d   1      45.422  27.383  57.980  0.00  0.00    -0.141 NA
ATOM      3  C   UNL d   1      45.137  28.771  58.003  0.00  0.00     0.126 A 
ATOM      4  C   UNL d   1      45.160  27.334  57.209  0.00  0.00     0.132 A 
ATOM      5  C   UNL d   1      44.870  28.730  57.224  0.00  0.00     0.025 A 
ATOM      6  C   UNL d   1      44.881  28.020  56.831  0.00  0.00     0.029 A 
ENDROOT
BRANCH   4   7
ATOM      7  S   UNL d   1      45.169  26.615  56.807  0.00  0.00    -0.066 SA
BRANCH   7   8
ATOM      8  C   UNL d   1      44.493  26.157  56.763  0.00  0.00     0.037 C 
BRANCH   8   9
ATOM      9  C   UNL d   1      44.534  25.400  56.437  0.00  0.00     0.006 A 
ATOM     10  C   UNL d   1      44.615  25.309  55.625  0.00  0.00     0.001 A 
ATOM     11  C   UNL d   1      44.656  24.564  55.294  0.00  0.00     0.000 A 
ATOM     12  C   UNL d   1      44.615  23.898  55.788  0.00  0.00     0.000 A 
ATOM     13  C   UNL d   1      44.535  23.996  56.594  0.00  0.00     0.000 A 
ATOM     14  C   UNL d   1      44.494  24.754  56.917  0.00  0.00     0.001 A 
ENDBRANCH   8   9
ENDBRANCH   7   8
ENDBRANCH   4   7
BRANCH   3  15
ATOM     15  C   UNL d   1      45.127  29.489  58.402  0.00  0.00     0.119 A 
ATOM     16  O   UNL d   1      45.136  29.598  59.216  0.00  0.00    -0.304 OA
ATOM     17  C   UNL d   1      45.120  30.404  59.379  0.00  0.00     0.123 A 
ATOM     18  C   UNL d   1      45.100  30.806  58.648  0.00  0.00     0.029 A 
ATOM     19  C   UNL d   1      45.105  30.243  58.044  0.00  0.00     0.028 A 
ENDBRANCH   3  15
TORSDOF 4
ENDMDL
MODEL 7
REMARK VINA RESULT:      -5.0     10.100     10.741
REMARK  4 active torsions:
REMARK  status: ('A' for Active; 'I' for Inactive)
REMARK    1  A    between atoms: C_4  and  C_3 
REMARK    2  A    between atoms: S_8  and  C_5 
REMARK    3  A    between atoms: C_13  and  S_8 
REMARK    4  A    between atoms: C_14  and  C_13 
ROOT
ATOM      1  N   UNL d   1      44.896  26.209  57.410  0.00  0.00    -0.146 NA
ATOM      2  N   UNL d   1      44.834  26.959  57.726  0.00  0.00    -0.141 NA
ATOM      3  C   UNL d   1      44.664  26.077  56.630  0.00  0.00     0.126 A 
ATOM      4  C   UNL d   1      44.547  27.580  57.281  0.00  0.00     0.132 A 
ATOM      5  C   UNL d   1      44.373  26.700  56.174  0.00  0.00     0.025 A 
ATOM      6  C   UNL d   1      44.314  27.443  56.495  0.00  0.00     0.029 A 
ENDROOT
BRANCH   4   7
ATOM      7  S   UNL d   1      44.486  28.335  57.604  0.00  0.00    -0.066 SA
BRANCH   7   8
ATOM      8  C   UNL d   1      45.112  28.861  57.548  0.00  0.00     0.037 C 
BRANCH   8   9
ATOM      9  C   UNL d   1      45.041  29.614  57.876  0.00  0.00     0.006 A 
ATOM     10  C   UNL d   1      45.259  29.742  58.657  0.00  0.00     0.001 A 
ATOM     11  C   UNL d   1      45.192  30.485  58.989  0.00  0.00     0.000 A 
ATOM     12  C   UNL d   1      44.902  31.110  58.528  0.00  0.00     0.000 A 
ATOM     13  C   UNL d   1      44.687  30.976  57.752  0.00  0.00     0.000 A 
ATOM     14  C   UNL d   1      44.759  30.221  57.427  0.00  0.00     0.001 A 
ENDBRANCH   8   9
ENDBRANCH   7   8
ENDBRANCH   4   7
BRANCH   3  15
ATOM     15  C   UNL d   1      44.723  25.325  56.305  0.00  0.00     0.119 A 
ATOM     16  O   UNL d   1      45.116  25.120  55.613  0.00  0.00    -0.304 OA
ATOM     17  C   UNL d   1      45.038  24.310  55.491  0.00  0.00     0.123 A 
ATOM     18  C   UNL d   1      44.585  24.005  56.123  0.00  0.00     0.029 A 
ATOM     19  C   UNL d   1      44.391  24.630  56.625  0.00  0.00     0.028 A 
ENDBRANCH   3  15
TORSDOF 4
ENDMDL
MODEL 8
REMARK VINA RESULT:      -5.0     10.022     10.479
REMARK  4 active torsions:
REMARK  status: ('A' for Active; 'I' for Inactive)
REMARK    1  A    between atoms: C_4  and  C_3 
REMARK    2  A    between atoms: S_8  and  C_5 
REMARK    3  A    between atoms: C_13  and  S_8 
REMARK    4  A    between atoms: C_14  and  C_13 
ROOT
ATOM      1  N   UNL d   1      44.584  29.583  58.516  0.00  0.00    -0.146 NA
ATOM      2  N   UNL d   1      44.526  29.816  59.296  0.00  0.00    -0.141 NA
ATOM      3  C   UNL d   1      44.507  30.144  57.918  0.00  0.00     0.126 A 
ATOM      4  C   UNL d   1      44.393  30.597  59.492  0.00  0.00     0.132 A 
ATOM      5  C   UNL d   1      44.372  30.936  58.108  0.00  0.00     0.025 A 
ATOM      6  C   UNL d   1      44.315  31.160  58.886  0.00  0.00     0.029 A 
ENDROOT
BRANCH   4   7
ATOM      7  S   UNL d   1      44.335  30.828  60.281  0.00  0.00    -0.066 SA
BRANCH   7   8
ATOM      8  C   UNL d   1      44.823  30.494  60.847  0.00  0.00     0.037 C 
BRANCH   8   9
ATOM      9  C   UNL d   1      44.653  30.603  61.647  0.00  0.00     0.006 A 
ATOM     10  C   UNL d   1      44.526  29.951  62.130  0.00  0.00     0.001 A 
ATOM     11  C   UNL d   1      44.357  30.050  62.922  0.00  0.00     0.000 A 
ATOM     12  C   UNL d   1      44.315  30.818  63.235  0.00  0.00     0.000 A 
ATOM     13  C   UNL d   1      44.442  31.461  62.749  0.00  0.00     0.000 A 
ATOM     14  C   UNL d   1      44.612  31.349  61.950  0.00  0.00     0.001 A 
ENDBRANCH   8   9
ENDBRANCH   7   8
ENDBRANCH   4   7
BRANCH   3  15
ATOM     15  C   UNL d   1      44.564  29.917  57.131  0.00  0.00     0.119 A 
ATOM     16  O   UNL d   1      44.588  30.415  56.478  0.00  0.00    -0.304 OA
ATOM     17  C   UNL d   1      44.647  29.959  55.796  0.00  0.00     0.123 A 
ATOM     18  C   UNL d   1      44.660  29.158  56.031  0.00  0.00     0.029 A 
ATOM     19  C   UNL d   1      44.609  29.131  56.855  0.00  0.00     0.028 A 
ENDBRANCH   3  15
TORSDOF 4
ENDMDL
