MODEL 1
REMARK VINA RESULT:      -8.9      0.000      0.000
REMARK  3 active torsions:
REMARK  status: ('A' for Active; 'I' for Inactive)
REMARK    1  A    between atoms: N_7  and  C_1 
REMARK    2  A    between atoms: N_10  and  N_7 
REMARK    3  A    between atoms: C_17  and  N_10 
ROOT
ATOM      1  N   UNL d   1      53.306  32.829  53.635  0.00  0.00    -0.148 NA
ENDROOT
BRANCH   1   2
ATOM      2  N   UNL d   1      52.741  33.270  54.068  0.00  0.00    -0.138 NA
BRANCH   2   3
ATOM      3  C   UNL d   1      52.868  34.053  54.190  0.00  0.00     0.218 A 
ATOM      4  C   UNL d   1      53.362  34.312  54.753  0.00  0.00     0.307 A 
ATOM      5  N   UNL d   1      53.478  35.111  54.861  0.00  0.00    -0.150 NA
ATOM      6  O   UNL d   1      53.762  33.756  55.234  0.00  0.00    -0.263 OA
ATOM      7  C   UNL d   1      53.124  35.649  54.433  0.00  0.00     0.374 A 
ATOM      8  N   UNL d   1      52.602  35.398  53.838  0.00  0.00    -0.150 NA
ATOM      9  O   UNL d   1      53.273  36.468  54.579  0.00  0.00    -0.242 OA
ATOM     10  C   UNL d   1      52.468  34.610  53.709  0.00  0.00     0.307 A 
ATOM     11  O   UNL d   1      51.944  34.369  53.110  0.00  0.00    -0.263 OA
ENDBRANCH   2   3
ENDBRANCH   1   2
BRANCH   1  12
ATOM     12  C   UNL d   1      53.144  32.030  53.465  0.00  0.00     0.105 A 
ATOM     13  C   UNL d   1      53.428  31.494  54.009  0.00  0.00     0.048 A 
ATOM     14  C   UNL d   1      53.292  30.690  53.884  0.00  0.00     0.124 A 
ATOM     15  O   UNL d   1      53.576  30.153  54.428  0.00  0.00    -0.301 OA
ATOM     16  C   UNL d   1      52.868  30.431  53.206  0.00  0.00     0.123 A 
ATOM     17  C   UNL d   1      53.440  29.349  54.303  0.00  0.00     0.149 A 
ATOM     18  C   UNL d   1      53.017  29.090  53.625  0.00  0.00     0.149 A 
ATOM     19  O   UNL d   1      52.734  29.639  53.081  0.00  0.00    -0.301 OA
ATOM     20  C   UNL d   1      52.586  30.980  52.663  0.00  0.00     0.028 A 
ATOM     21  C   UNL d   1      52.720  31.772  52.787  0.00  0.00     0.023 A 
ENDBRANCH   1  12
TORSDOF 3
ENDMDL
MODEL 2
REMARK VINA RESULT:      -8.0      2.200      3.914
REMARK  3 active torsions:
REMARK  status: ('A' for Active; 'I' for Inactive)
REMARK    1  A    between atoms: N_7  and  C_1 
REMARK    2  A    between atoms: N_10  and  N_7 
REMARK    3  A    between atoms: C_17  and  N_10 
ROOT
ATOM      1  N   UNL d   1      52.096  33.902  53.641  0.00  0.00    -0.148 NA
ENDROOT
BRANCH   1   2
ATOM      2  N   UNL d   1      52.894  34.049  53.438  0.00  0.00    -0.138 NA
BRANCH   2   3
ATOM      3  C   UNL d   1      53.463  33.952  53.997  0.00  0.00     0.218 A 
ATOM      4  C   UNL d   1      53.677  34.543  54.480  0.00  0.00     0.307 A 
ATOM      5  N   UNL d   1      54.256  34.425  55.041  0.00  0.00    -0.150 NA
ATOM      6  O   UNL d   1      53.301  35.288  54.406  0.00  0.00    -0.263 OA
ATOM      7  C   UNL d   1      54.620  33.750  55.133  0.00  0.00     0.374 A 
ATOM      8  N   UNL d   1      54.410  33.118  54.636  0.00  0.00    -0.150 NA
ATOM      9  O   UNL d   1      55.215  33.671  55.727  0.00  0.00    -0.242 OA
ATOM     10  C   UNL d   1      53.838  33.207  54.071  0.00  0.00     0.307 A 
ATOM     11  O   UNL d   1      53.635  32.568  53.578  0.00  0.00    -0.263 OA
ENDBRANCH   2   3
ENDBRANCH   1   2
BRANCH   1  12
ATOM     12  C   UNL d   1      51.506  34.045  53.071  0.00  0.00     0.105 A 
ATOM     13  C   UNL d   1      50.815  34.367  53.359  0.00  0.00     0.048 A 
ATOM     14  C   UNL d   1      50.200  34.527  52.832  0.00  0.00     0.124 A 
ATOM     15  O   UNL d   1      49.509  34.850  53.120  0.00  0.00    -0.301 OA
ATOM     16  C   UNL d   1      50.288  34.360  52.014  0.00  0.00     0.123 A 
ATOM     17  C   UNL d   1      48.894  35.010  52.593  0.00  0.00     0.149 A 
ATOM     18  C   UNL d   1      48.982  34.842  51.775  0.00  0.00     0.149 A 
ATOM     19  O   UNL d   1      49.683  34.517  51.494  0.00  0.00    -0.301 OA
ATOM     20  C   UNL d   1      50.990  34.035  51.733  0.00  0.00     0.028 A 
ATOM     21  C   UNL d   1      51.594  33.878  52.253  0.00  0.00     0.023 A 
ENDBRANCH   1  12
TORSDOF 3
ENDMDL
MODEL 3
REMARK VINA RESULT:      -7.7      1.386      4.584
REMARK  3 active torsions:
REMARK  status: ('A' for Active; 'I' for Inactive)
REMARK    1  A    between atoms: N_7  and  C_1 
REMARK    2  A    between atoms: N_10  and  N_7 
REMARK    3  A    between atoms: C_17  and  N_10 
ROOT
ATOM      1  N   UNL d   1      53.254  31.975  54.393  0.00  0.00    -0.148 NA
ENDROOT
BRANCH   1   2
ATOM      2  N   UNL d   1      53.637  31.533  53.794  0.00  0.00    -0.138 NA
BRANCH   2   3
ATOM      3  C   UNL d   1      53.327  30.827  53.572  0.00  0.00     0.218 A 
ATOM      4  C   UNL d   1      53.360  30.191  54.043  0.00  0.00     0.307 A 
ATOM      5  N   UNL d   1      53.039  29.483  53.800  0.00  0.00    -0.150 NA
ATOM      6  O   UNL d   1      53.728  30.255  54.793  0.00  0.00    -0.263 OA
ATOM      7  C   UNL d   1      52.693  29.391  53.114  0.00  0.00     0.374 A 
ATOM      8  N   UNL d   1      52.648  30.047  52.606  0.00  0.00    -0.150 NA
ATOM      9  O   UNL d   1      52.374  28.639  52.902  0.00  0.00    -0.242 OA
ATOM     10  C   UNL d   1      52.959  30.762  52.822  0.00  0.00     0.307 A 
ATOM     11  O   UNL d   1      52.909  31.413  52.306  0.00  0.00    -0.263 OA
ENDBRANCH   2   3
ENDBRANCH   1   2
BRANCH   1  12
ATOM     12  C   UNL d   1      53.477  32.769  54.508  0.00  0.00     0.105 A 
ATOM     13  C   UNL d   1      52.920  33.322  54.286  0.00  0.00     0.048 A 
ATOM     14  C   UNL d   1      53.095  34.123  54.381  0.00  0.00     0.124 A 
ATOM     15  O   UNL d   1      52.538  34.676  54.159  0.00  0.00    -0.301 OA
ATOM     16  C   UNL d   1      53.834  34.361  54.700  0.00  0.00     0.123 A 
ATOM     17  C   UNL d   1      52.713  35.477  54.254  0.00  0.00     0.149 A 
ATOM     18  C   UNL d   1      53.452  35.716  54.573  0.00  0.00     0.149 A 
ATOM     19  O   UNL d   1      54.007  35.150  54.794  0.00  0.00    -0.301 OA
ATOM     20  C   UNL d   1      54.389  33.796  54.921  0.00  0.00     0.028 A 
ATOM     21  C   UNL d   1      54.216  33.008  54.827  0.00  0.00     0.023 A 
ENDBRANCH   1  12
TORSDOF 3
ENDMDL
MODEL 4
REMARK VINA RESULT:      -7.3      3.311      4.418
REMARK  3 active torsions:
REMARK  status: ('A' for Active; 'I' for Inactive)
REMARK    1  A    between atoms: N_7  and  C_1 
REMARK    2  A    between atoms: N_10  and  N_7 
REMARK    3  A    between atoms: C_17  and  N_10 
ROOT
ATOM      1  N   UNL d   1      50.063  34.204  52.687  0.00  0.00    -0.148 NA
ENDROOT
BRANCH   1   2
ATOM      2  N   UNL d   1      49.869  34.849  52.191  0.00  0.00    -0.138 NA
BRANCH   2   3
ATOM      3  C   UNL d   1      49.103  34.956  51.972  0.00  0.00     0.218 A 
ATOM      4  C   UNL d   1      48.577  35.302  52.453  0.00  0.00     0.307 A 
ATOM      5  N   UNL d   1      47.805  35.402  52.212  0.00  0.00    -0.150 NA
ATOM      6  O   UNL d   1      48.825  35.564  53.209  0.00  0.00    -0.263 OA
ATOM      7  C   UNL d   1      47.547  35.171  51.521  0.00  0.00     0.374 A 
ATOM      8  N   UNL d   1      48.083  34.806  51.003  0.00  0.00    -0.150 NA
ATOM      9  O   UNL d   1      46.738  35.294  51.313  0.00  0.00    -0.242 OA
ATOM     10  C   UNL d   1      48.856  34.694  51.216  0.00  0.00     0.307 A 
ATOM     11  O   UNL d   1      49.386  34.327  50.689  0.00  0.00    -0.263 OA
ENDBRANCH   2   3
ENDBRANCH   1   2
BRANCH   1  12
ATOM     12  C   UNL d   1      50.865  34.055  52.854  0.00  0.00     0.105 A 
ATOM     13  C   UNL d   1      51.077  33.269  52.871  0.00  0.00     0.048 A 
ATOM     14  C   UNL d   1      51.862  33.071  53.032  0.00  0.00     0.124 A 
ATOM     15  O   UNL d   1      52.074  32.284  53.049  0.00  0.00    -0.301 OA
ATOM     16  C   UNL d   1      52.430  33.672  53.175  0.00  0.00     0.123 A 
ATOM     17  C   UNL d   1      52.859  32.086  53.210  0.00  0.00     0.149 A 
ATOM     18  C   UNL d   1      53.427  32.687  53.354  0.00  0.00     0.149 A 
ATOM     19  O   UNL d   1      53.204  33.479  53.334  0.00  0.00    -0.301 OA
ATOM     20  C   UNL d   1      52.207  34.464  53.156  0.00  0.00     0.028 A 
ATOM     21  C   UNL d   1      51.434  34.657  52.997  0.00  0.00     0.023 A 
ENDBRANCH   1  12
TORSDOF 3
ENDMDL
MODEL 5
REMARK VINA RESULT:      -7.2      1.891      2.425
REMARK  3 active torsions:
REMARK  status: ('A' for Active; 'I' for Inactive)
REMARK    1  A    between atoms: N_7  and  C_1 
REMARK    2  A    between atoms: N_10  and  N_7 
REMARK    3  A    between atoms: C_17  and  N_10 
ROOT
ATOM      1  N   UNL d   1      52.156  32.754  52.512  0.00  0.00    -0.148 NA
ENDROOT
BRANCH   1   2
ATOM      2  N   UNL d   1      51.911  33.432  52.938  0.00  0.00    -0.138 NA
BRANCH   2   3
ATOM      3  C   UNL d   1      51.244  33.816  52.708  0.00  0.00     0.218 A 
ATOM      4  C   UNL d   1      50.596  33.835  53.165  0.00  0.00     0.307 A 
ATOM      5  N   UNL d   1      49.930  34.230  52.914  0.00  0.00    -0.150 NA
ATOM      6  O   UNL d   1      50.606  33.444  53.906  0.00  0.00    -0.263 OA
ATOM      7  C   UNL d   1      49.889  34.600  52.237  0.00  0.00     0.374 A 
ATOM      8  N   UNL d   1      50.558  34.592  51.744  0.00  0.00    -0.150 NA
ATOM      9  O   UNL d   1      49.178  34.997  52.016  0.00  0.00    -0.242 OA
ATOM     10  C   UNL d   1      51.234  34.207  51.968  0.00  0.00     0.307 A 
ATOM     11  O   UNL d   1      51.898  34.205  51.467  0.00  0.00    -0.263 OA
ENDBRANCH   2   3
ENDBRANCH   1   2
BRANCH   1  12
ATOM     12  C   UNL d   1      52.638  32.194  52.896  0.00  0.00     0.105 A 
ATOM     13  C   UNL d   1      52.375  31.424  52.857  0.00  0.00     0.048 A 
ATOM     14  C   UNL d   1      52.820  30.832  53.223  0.00  0.00     0.124 A 
ATOM     15  O   UNL d   1      52.557  30.061  53.184  0.00  0.00    -0.301 OA
ATOM     16  C   UNL d   1      53.531  31.024  53.627  0.00  0.00     0.123 A 
ATOM     17  C   UNL d   1      53.002  29.470  53.550  0.00  0.00     0.149 A 
ATOM     18  C   UNL d   1      53.712  29.662  53.954  0.00  0.00     0.149 A 
ATOM     19  O   UNL d   1      53.969  30.443  53.988  0.00  0.00    -0.301 OA
ATOM     20  C   UNL d   1      53.788  31.805  53.661  0.00  0.00     0.028 A 
ATOM     21  C   UNL d   1      53.349  32.386  53.300  0.00  0.00     0.023 A 
ENDBRANCH   1  12
TORSDOF 3
ENDMDL
MODEL 6
REMARK VINA RESULT:      -6.9      2.369      3.850
REMARK  3 active torsions:
REMARK  status: ('A' for Active; 'I' for Inactive)
REMARK    1  A    between atoms: N_7  and  C_1 
REMARK    2  A    between atoms: N_10  and  N_7 
REMARK    3  A    between atoms: C_17  and  N_10 
ROOT
ATOM      1  N   UNL d   1      51.880  34.664  52.997  0.00  0.00    -0.148 NA
ENDROOT
BRANCH   1   2
ATOM      2  N   UNL d   1      51.198  34.182  53.053  0.00  0.00    -0.138 NA
BRANCH   2   3
ATOM      3  C   UNL d   1      50.582  34.319  52.556  0.00  0.00     0.218 A 
ATOM      4  C   UNL d   1      49.898  34.624  52.815  0.00  0.00     0.307 A 
ATOM      5  N   UNL d   1      49.285  34.755  52.296  0.00  0.00    -0.150 NA
ATOM      6  O   UNL d   1      49.814  34.809  53.628  0.00  0.00    -0.263 OA
ATOM      7  C   UNL d   1      49.331  34.594  51.541  0.00  0.00     0.374 A 
ATOM      8  N   UNL d   1      50.040  34.274  51.250  0.00  0.00    -0.150 NA
ATOM      9  O   UNL d   1      48.671  34.746  51.037  0.00  0.00    -0.242 OA
ATOM     10  C   UNL d   1      50.666  34.133  51.744  0.00  0.00     0.307 A 
ATOM     11  O   UNL d   1      51.372  33.812  51.443  0.00  0.00    -0.263 OA
ENDBRANCH   2   3
ENDBRANCH   1   2
BRANCH   1  12
ATOM     12  C   UNL d   1      52.475  34.583  53.573  0.00  0.00     0.105 A 
ATOM     13  C   UNL d   1      52.793  33.835  53.642  0.00  0.00     0.048 A 
ATOM     14  C   UNL d   1      53.386  33.705  54.200  0.00  0.00     0.124 A 
ATOM     15  O   UNL d   1      53.704  32.957  54.270  0.00  0.00    -0.301 OA
ATOM     16  C   UNL d   1      53.657  34.334  54.687  0.00  0.00     0.123 A 
ATOM     17  C   UNL d   1      54.298  32.826  54.828  0.00  0.00     0.149 A 
ATOM     18  C   UNL d   1      54.569  33.455  55.314  0.00  0.00     0.149 A 
ATOM     19  O   UNL d   1      54.243  34.206  55.237  0.00  0.00    -0.301 OA
ATOM     20  C   UNL d   1      53.331  35.085  54.609  0.00  0.00     0.028 A 
ATOM     21  C   UNL d   1      52.746  35.212  54.060  0.00  0.00     0.023 A 
ENDBRANCH   1  12
TORSDOF 3
ENDMDL
MODEL 7
REMARK VINA RESULT:      -6.4     10.059     11.152
REMARK  3 active torsions:
REMARK  status: ('A' for Active; 'I' for Inactive)
REMARK    1  A    between atoms: N_7  and  C_1 
REMARK    2  A    between atoms: N_10  and  N_7 
REMARK    3  A    between atoms: C_17  and  N_10 
ROOT
ATOM      1  N   UNL d   1      44.680  28.714  58.596  0.00  0.00    -0.148 NA
ENDROOT
BRANCH   1   2
ATOM      2  N   UNL d   1      45.379  28.386  58.272  0.00  0.00    -0.138 NA
BRANCH   2   3
ATOM      3  C   UNL d   1      45.321  27.752  57.783  0.00  0.00     0.218 A 
ATOM      4  C   UNL d   1      45.174  27.836  57.009  0.00  0.00     0.307 A 
ATOM      5  N   UNL d   1      45.119  27.180  56.529  0.00  0.00    -0.150 NA
ATOM      6  O   UNL d   1      45.075  28.605  56.691  0.00  0.00    -0.263 OA
ATOM      7  C   UNL d   1      45.206  26.458  56.792  0.00  0.00     0.374 A 
ATOM      8  N   UNL d   1      45.361  26.350  57.600  0.00  0.00    -0.150 NA
ATOM      9  O   UNL d   1      45.142  25.806  56.259  0.00  0.00    -0.242 OA
ATOM     10  C   UNL d   1      45.420  26.983  58.100  0.00  0.00     0.307 A 
ATOM     11  O   UNL d   1      45.576  26.864  58.909  0.00  0.00    -0.263 OA
ENDBRANCH   2   3
ENDBRANCH   1   2
BRANCH   1  12
ATOM     12  C   UNL d   1      44.746  29.353  59.126  0.00  0.00     0.105 A 
ATOM     13  C   UNL d   1      44.516  29.196  59.891  0.00  0.00     0.048 A 
ATOM     14  C   UNL d   1      44.564  29.798  60.453  0.00  0.00     0.124 A 
ATOM     15  O   UNL d   1      44.333  29.641  61.220  0.00  0.00    -0.301 OA
ATOM     16  C   UNL d   1      44.846  30.559  60.237  0.00  0.00     0.123 A 
ATOM     17  C   UNL d   1      44.381  30.243  61.782  0.00  0.00     0.149 A 
ATOM     18  C   UNL d   1      44.663  31.004  61.565  0.00  0.00     0.149 A 
ATOM     19  O   UNL d   1      44.893  31.153  60.790  0.00  0.00    -0.301 OA
ATOM     20  C   UNL d   1      45.076  30.708  59.461  0.00  0.00     0.028 A 
ATOM     21  C   UNL d   1      45.028  30.114  58.909  0.00  0.00     0.023 A 
ENDBRANCH   1  12
TORSDOF 3
ENDMDL
MODEL 8
REMARK VINA RESULT:      -6.2      9.760     10.962
REMARK  3 active torsions:
REMARK  status: ('A' for Active; 'I' for Inactive)
REMARK    1  A    between atoms: N_7  and  C_1 
REMARK    2  A    between atoms: N_10  and  N_7 
REMARK    3  A    between atoms: C_17  and  N_10 
ROOT
ATOM      1  N   UNL d   1      44.565  28.675  58.143  0.00  0.00    -0.148 NA
ENDROOT
BRANCH   1   2
ATOM      2  N   UNL d   1      45.170  28.242  58.527  0.00  0.00    -0.138 NA
BRANCH   2   3
ATOM      3  C   UNL d   1      45.098  27.445  58.589  0.00  0.00     0.218 A 
ATOM      4  C   UNL d   1      45.401  26.956  58.044  0.00  0.00     0.307 A 
ATOM      5  N   UNL d   1      45.318  26.150  58.125  0.00  0.00    -0.150 NA
ATOM      6  O   UNL d   1      45.807  27.278  57.386  0.00  0.00    -0.263 OA
ATOM      7  C   UNL d   1      44.950  25.823  58.721  0.00  0.00     0.374 A 
ATOM      8  N   UNL d   1      44.625  26.319  59.303  0.00  0.00    -0.150 NA
ATOM      9  O   UNL d   1      44.887  24.982  58.766  0.00  0.00    -0.242 OA
ATOM     10  C   UNL d   1      44.693  27.123  59.248  0.00  0.00     0.307 A 
ATOM     11  O   UNL d   1      44.364  27.611  59.836  0.00  0.00    -0.263 OA
ENDBRANCH   2   3
ENDBRANCH   1   2
BRANCH   1  12
ATOM     12  C   UNL d   1      44.662  29.497  58.046  0.00  0.00     0.105 A 
ATOM     13  C   UNL d   1      44.449  29.788  57.315  0.00  0.00     0.048 A 
ATOM     14  C   UNL d   1      44.527  30.597  57.171  0.00  0.00     0.124 A 
ATOM     15  O   UNL d   1      44.314  30.889  56.440  0.00  0.00    -0.301 OA
ATOM     16  C   UNL d   1      44.822  31.108  57.768  0.00  0.00     0.123 A 
ATOM     17  C   UNL d   1      44.392  31.698  56.295  0.00  0.00     0.149 A 
ATOM     18  C   UNL d   1      44.687  32.209  56.893  0.00  0.00     0.149 A 
ATOM     19  O   UNL d   1      44.900  31.905  57.627  0.00  0.00    -0.301 OA
ATOM     20  C   UNL d   1      45.035  30.804  58.503  0.00  0.00     0.028 A 
ATOM     21  C   UNL d   1      44.957  30.008  58.643  0.00  0.00     0.023 A 
ENDBRANCH   1  12
TORSDOF 3
ENDMDL
MODEL 9
REMARK VINA RESULT:      -6.1     10.274     10.840
REMARK  3 active torsions:
REMARK  status: ('A' for Active; 'I' for Inactive)
REMARK    1  A    between atoms: N_7  and  C_1 
REMARK    2  A    between atoms: N_10  and  N_7 
REMARK    3  A    between atoms: C_17  and  N_10 
ROOT
ATOM      1  N   UNL d   1      44.374  30.006  59.155  0.00  0.00    -0.148 NA
ENDROOT
BRANCH   1   2
ATOM      2  N   UNL d   1      45.018  30.159  58.644  0.00  0.00    -0.138 NA
BRANCH   2   3
ATOM      3  C   UNL d   1      44.891  30.178  57.851  0.00  0.00     0.218 A 
ATOM      4  C   UNL d   1      44.673  30.844  57.481  0.00  0.00     0.307 A 
ATOM      5  N   UNL d   1      44.549  30.844  56.676  0.00  0.00    -0.150 NA
ATOM      6  O   UNL d   1      44.573  31.546  57.926  0.00  0.00    -0.263 OA
ATOM      7  C   UNL d   1      44.633  30.212  56.238  0.00  0.00     0.374 A 
ATOM      8  N   UNL d   1      44.861  29.505  56.608  0.00  0.00    -0.150 NA
ATOM      9  O   UNL d   1      44.494  30.256  55.406  0.00  0.00    -0.242 OA
ATOM     10  C   UNL d   1      44.991  29.476  57.406  0.00  0.00     0.307 A 
ATOM     11  O   UNL d   1      45.219  28.762  57.767  0.00  0.00    -0.263 OA
ENDBRANCH   2   3
ENDBRANCH   1   2
BRANCH   1  12
ATOM     12  C   UNL d   1      44.515  29.964  59.975  0.00  0.00     0.105 A 
ATOM     13  C   UNL d   1      44.352  29.244  60.319  0.00  0.00     0.048 A 
ATOM     14  C   UNL d   1      44.477  29.152  61.130  0.00  0.00     0.124 A 
ATOM     15  O   UNL d   1      44.314  28.431  61.475  0.00  0.00    -0.301 OA
ATOM     16  C   UNL d   1      44.766  29.793  61.589  0.00  0.00     0.123 A 
ATOM     17  C   UNL d   1      44.438  28.340  62.285  0.00  0.00     0.149 A 
ATOM     18  C   UNL d   1      44.728  28.981  62.745  0.00  0.00     0.149 A 
ATOM     19  O   UNL d   1      44.889  29.704  62.388  0.00  0.00    -0.301 OA
ATOM     20  C   UNL d   1      44.928  30.516  61.233  0.00  0.00     0.028 A 
ATOM     21  C   UNL d   1      44.805  30.604  60.435  0.00  0.00     0.023 A 
ENDBRANCH   1  12
TORSDOF 3
ENDMDL
