MODEL 1
REMARK VINA RESULT:      12.4      0.000      0.000
REMARK  2 active torsions:
REMARK  status: ('A' for Active; 'I' for Inactive)
REMARK    1  A    between atoms: C_4  and  N_1 
REMARK    2  A    between atoms: C_3  and  C_4 
ROOT
ATOM      1  N   UNL d   1      59.334  49.706  50.789  0.00  0.00    -0.295 N 
ATOM      2  N   UNL d   1      57.735  49.706  50.335  0.00  0.00    -0.299 N 
ATOM      3  C   UNL d   1      58.731  49.705  51.361  0.00  0.00     0.100 A 
ATOM      4  C   UNL d   1      59.119  49.707  49.977  0.00  0.00     0.100 A 
ATOM      5  C   UNL d   1      57.927  49.705  51.126  0.00  0.00     0.100 A 
ATOM      6  C   UNL d   1      58.326  49.707  49.750  0.00  0.00     0.100 A 
ATOM      7  C   UNL d   1      56.948  49.706  50.104  0.00  0.00     0.100 C 
ENDROOT
BRANCH   1   8
ATOM      8  C   UNL d   1      60.119  49.706  51.018  0.00  0.00     0.152 C 
BRANCH   8   9
ATOM      9  C   UNL d   1      60.661  49.268  50.583  0.00  0.00     0.230 C 
ATOM     10  O   UNL d   1      60.900  49.515  49.832  0.00  0.00    -0.643 OA
ATOM     11  O   UNL d   1      60.970  48.562  50.911  0.00  0.00    -0.643 OA
ENDBRANCH   8   9
ENDBRANCH   1   8
TORSDOF 2
ENDMDL
MODEL 2
REMARK VINA RESULT:      12.8      2.047      2.901
REMARK  2 active torsions:
REMARK  status: ('A' for Active; 'I' for Inactive)
REMARK    1  A    between atoms: C_4  and  N_1 
REMARK    2  A    between atoms: C_3  and  C_4 
ROOT
ATOM      1  N   UNL d   1      57.864  49.707  50.243  0.00  0.00    -0.295 N 
ATOM      2  N   UNL d   1      59.478  49.707  50.641  0.00  0.00    -0.299 N 
ATOM      3  C   UNL d   1      58.105  49.708  51.039  0.00  0.00     0.100 A 
ATOM      4  C   UNL d   1      58.453  49.707  49.645  0.00  0.00     0.100 A 
ATOM      5  C   UNL d   1      58.919  49.708  51.234  0.00  0.00     0.100 A 
ATOM      6  C   UNL d   1      59.255  49.707  49.840  0.00  0.00     0.100 A 
ATOM      7  C   UNL d   1      60.276  49.707  50.831  0.00  0.00     0.100 C 
ENDROOT
BRANCH   1   8
ATOM      8  C   UNL d   1      57.069  49.707  50.054  0.00  0.00     0.152 C 
BRANCH   8   9
ATOM      9  C   UNL d   1      56.545  49.302  50.539  0.00  0.00     0.230 C 
ATOM     10  O   UNL d   1      56.122  49.695  51.130  0.00  0.00    -0.643 OA
ATOM     11  O   UNL d   1      56.444  48.477  50.428  0.00  0.00    -0.643 OA
ENDBRANCH   8   9
ENDBRANCH   1   8
TORSDOF 2
ENDMDL
