MODEL 1
REMARK VINA RESULT:      -8.7      0.000      0.000
REMARK  6 active torsions:
REMARK  status: ('A' for Active; 'I' for Inactive)
REMARK    1  A    between atoms: C_6  and  C_2 
REMARK    2  A    between atoms: C_7  and  C_6 
REMARK    3  A    between atoms: C_8  and  C_15 
REMARK       I    between atoms: N_9  and  C_8 
REMARK    4  A    between atoms: C_16  and  N_9 
REMARK    5  A    between atoms: O_13  and  C_12 
REMARK    6  A    between atoms: C_15  and  O_13 
ROOT
ATOM      1  C   UNL d   1      53.585  33.381  54.304  0.00  0.00     0.023 A 
ATOM      2  C   UNL d   1      53.769  32.698  53.885  0.00  0.00     0.100 A 
ATOM      3  C   UNL d   1      54.161  33.768  54.737  0.00  0.00     0.002 A 
ATOM      4  C   UNL d   1      54.534  32.400  53.899  0.00  0.00     0.025 A 
ATOM      5  C   UNL d   1      54.931  33.476  54.757  0.00  0.00     0.000 A 
ATOM      6  C   UNL d   1      55.114  32.787  54.334  0.00  0.00     0.002 A 
ENDROOT
BRANCH   2   7
ATOM      7  O   UNL d   1      53.186  32.308  53.449  0.00  0.00    -0.300 OA
BRANCH   7   8
ATOM      8  C   UNL d   1      53.219  31.484  53.374  0.00  0.00     0.185 C 
BRANCH   8   9
ATOM      9  C   UNL d   1      52.801  31.111  52.763  0.00  0.00     0.304 C 
ATOM     10  N   UNL d   1      52.630  30.305  52.822  0.00  0.00    -0.206 NA
ATOM     11  O   UNL d   1      52.560  31.541  52.106  0.00  0.00    -0.263 OA
BRANCH  10  12
ATOM     12  C   UNL d   1      52.872  29.875  53.479  0.00  0.00     0.085 A 
ATOM     13  C   UNL d   1      52.397  29.834  54.150  0.00  0.00     0.021 A 
ATOM     14  C   UNL d   1      52.640  29.401  54.813  0.00  0.00     0.031 A 
ATOM     15  C   UNL d   1      53.368  29.006  54.799  0.00  0.00     0.140 A 
ATOM     16  C   UNL d   1      53.845  29.048  54.124  0.00  0.00     0.031 A 
ATOM     17  F   UNL d   1      53.619  28.572  55.455  0.00  0.00    -0.204 F 
ATOM     18  C   UNL d   1      53.600  29.480  53.465  0.00  0.00     0.021 A 
ENDBRANCH  10  12
ENDBRANCH   8   9
ENDBRANCH   7   8
ENDBRANCH   2   7
BRANCH   1  19
ATOM     19  C   UNL d   1      52.817  33.683  54.292  0.00  0.00     0.013 C 
BRANCH  19  20
ATOM     20  C   UNL d   1      52.687  34.493  54.274  0.00  0.00     0.092 A 
ATOM     21  C   UNL d   1      52.197  34.894  53.758  0.00  0.00     0.288 A 
ATOM     22  N   UNL d   1      52.233  35.693  53.936  0.00  0.00    -0.163 NA
ATOM     23  O   UNL d   1      51.743  34.554  53.161  0.00  0.00    -0.265 OA
ATOM     24  C   UNL d   1      52.753  35.789  54.570  0.00  0.00     0.313 A 
ATOM     25  S   UNL d   1      53.035  35.044  54.780  0.00  0.00    -0.021 SA
ATOM     26  O   UNL d   1      52.956  36.505  54.932  0.00  0.00    -0.258 OA
ENDBRANCH  19  20
ENDBRANCH   1  19
TORSDOF 6
ENDMDL
MODEL 2
REMARK VINA RESULT:      -7.1      2.141      4.420
REMARK  6 active torsions:
REMARK  status: ('A' for Active; 'I' for Inactive)
REMARK    1  A    between atoms: C_6  and  C_2 
REMARK    2  A    between atoms: C_7  and  C_6 
REMARK    3  A    between atoms: C_8  and  C_15 
REMARK       I    between atoms: N_9  and  C_8 
REMARK    4  A    between atoms: C_16  and  N_9 
REMARK    5  A    between atoms: O_13  and  C_12 
REMARK    6  A    between atoms: C_15  and  O_13 
ROOT
ATOM      1  C   UNL d   1      53.828  32.271  54.137  0.00  0.00     0.023 A 
ATOM      2  C   UNL d   1      53.809  33.091  54.182  0.00  0.00     0.100 A 
ATOM      3  C   UNL d   1      53.984  31.824  54.804  0.00  0.00     0.002 A 
ATOM      4  C   UNL d   1      53.947  33.467  54.899  0.00  0.00     0.025 A 
ATOM      5  C   UNL d   1      54.124  32.193  55.527  0.00  0.00     0.000 A 
ATOM      6  C   UNL d   1      54.105  33.020  55.570  0.00  0.00     0.002 A 
ENDROOT
BRANCH   2   7
ATOM      7  O   UNL d   1      53.650  33.541  53.508  0.00  0.00    -0.300 OA
BRANCH   7   8
ATOM      8  C   UNL d   1      53.016  34.074  53.516  0.00  0.00     0.185 C 
BRANCH   8   9
ATOM      9  C   UNL d   1      53.095  34.811  53.146  0.00  0.00     0.304 C 
ATOM     10  N   UNL d   1      52.445  35.144  52.761  0.00  0.00    -0.206 NA
ATOM     11  O   UNL d   1      53.815  35.206  53.163  0.00  0.00    -0.263 OA
BRANCH  10  12
ATOM     12  C   UNL d   1      51.724  34.749  52.744  0.00  0.00     0.085 A 
ATOM     13  C   UNL d   1      51.230  34.753  53.402  0.00  0.00     0.021 A 
ATOM     14  C   UNL d   1      50.503  34.355  53.386  0.00  0.00     0.031 A 
ATOM     15  C   UNL d   1      50.274  33.950  52.700  0.00  0.00     0.140 A 
ATOM     16  C   UNL d   1      50.772  33.947  52.039  0.00  0.00     0.031 A 
ATOM     17  F   UNL d   1      49.552  33.551  52.675  0.00  0.00    -0.204 F 
ATOM     18  C   UNL d   1      51.495  34.344  52.059  0.00  0.00     0.021 A 
ENDBRANCH  10  12
ENDBRANCH   8   9
ENDBRANCH   7   8
ENDBRANCH   2   7
BRANCH   1  19
ATOM     19  C   UNL d   1      53.689  31.890  53.418  0.00  0.00     0.013 C 
BRANCH  19  20
ATOM     20  C   UNL d   1      53.406  31.120  53.402  0.00  0.00     0.092 A 
ATOM     21  C   UNL d   1      52.868  30.812  52.869  0.00  0.00     0.288 A 
ATOM     22  N   UNL d   1      52.742  30.024  53.055  0.00  0.00    -0.163 NA
ATOM     23  O   UNL d   1      52.513  31.223  52.249  0.00  0.00    -0.265 OA
ATOM     24  C   UNL d   1      53.208  29.840  53.712  0.00  0.00     0.313 A 
ATOM     25  S   UNL d   1      53.620  30.521  53.927  0.00  0.00    -0.021 SA
ATOM     26  O   UNL d   1      53.254  29.105  54.088  0.00  0.00    -0.258 OA
ENDBRANCH  19  20
ENDBRANCH   1  19
TORSDOF 6
ENDMDL
MODEL 3
REMARK VINA RESULT:      -7.1      1.630      2.332
REMARK  6 active torsions:
REMARK  status: ('A' for Active; 'I' for Inactive)
REMARK    1  A    between atoms: C_6  and  C_2 
REMARK    2  A    between atoms: C_7  and  C_6 
REMARK    3  A    between atoms: C_8  and  C_15 
REMARK       I    between atoms: N_9  and  C_8 
REMARK    4  A    between atoms: C_16  and  N_9 
REMARK    5  A    between atoms: O_13  and  C_12 
REMARK    6  A    between atoms: C_15  and  O_13 
ROOT
ATOM      1  C   UNL d   1      52.758  34.519  53.583  0.00  0.00     0.023 A 
ATOM      2  C   UNL d   1      53.360  34.026  53.846  0.00  0.00     0.100 A 
ATOM      3  C   UNL d   1      52.431  35.077  54.084  0.00  0.00     0.002 A 
ATOM      4  C   UNL d   1      53.638  34.091  54.617  0.00  0.00     0.025 A 
ATOM      5  C   UNL d   1      52.703  35.148  54.858  0.00  0.00     0.000 A 
ATOM      6  C   UNL d   1      53.311  34.650  55.122  0.00  0.00     0.002 A 
ENDROOT
BRANCH   2   7
ATOM      7  O   UNL d   1      53.689  33.464  53.339  0.00  0.00    -0.300 OA
BRANCH   7   8
ATOM      8  C   UNL d   1      53.866  32.709  53.630  0.00  0.00     0.185 C 
BRANCH   8   9
ATOM      9  C   UNL d   1      54.546  32.316  53.367  0.00  0.00     0.304 C 
ATOM     10  N   UNL d   1      54.512  31.507  53.207  0.00  0.00    -0.206 NA
ATOM     11  O   UNL d   1      55.248  32.731  53.266  0.00  0.00    -0.263 OA
BRANCH  10  12
ATOM     12  C   UNL d   1      53.810  31.092  53.308  0.00  0.00     0.085 A 
ATOM     13  C   UNL d   1      53.254  31.055  52.701  0.00  0.00     0.021 A 
ATOM     14  C   UNL d   1      52.546  30.637  52.802  0.00  0.00     0.031 A 
ATOM     15  C   UNL d   1      52.397  30.254  53.521  0.00  0.00     0.140 A 
ATOM     16  C   UNL d   1      52.956  30.292  54.131  0.00  0.00     0.031 A 
ATOM     17  F   UNL d   1      51.694  29.835  53.631  0.00  0.00    -0.204 F 
ATOM     18  C   UNL d   1      53.660  30.709  54.027  0.00  0.00     0.021 A 
ENDBRANCH  10  12
ENDBRANCH   8   9
ENDBRANCH   7   8
ENDBRANCH   2   7
BRANCH   1  19
ATOM     19  C   UNL d   1      52.477  34.457  52.810  0.00  0.00     0.013 C 
BRANCH  19  20
ATOM     20  C   UNL d   1      51.671  34.396  52.662  0.00  0.00     0.092 A 
ATOM     21  C   UNL d   1      51.320  34.274  51.934  0.00  0.00     0.288 A 
ATOM     22  N   UNL d   1      50.508  34.250  52.041  0.00  0.00    -0.163 NA
ATOM     23  O   UNL d   1      51.714  34.190  51.215  0.00  0.00    -0.265 OA
ATOM     24  C   UNL d   1      50.354  34.358  52.845  0.00  0.00     0.313 A 
ATOM     25  S   UNL d   1      51.076  34.449  53.230  0.00  0.00    -0.021 SA
ATOM     26  O   UNL d   1      49.607  34.373  53.201  0.00  0.00    -0.258 OA
ENDBRANCH  19  20
ENDBRANCH   1  19
TORSDOF 6
ENDMDL
MODEL 4
REMARK VINA RESULT:      -6.5      1.157      1.874
REMARK  6 active torsions:
REMARK  status: ('A' for Active; 'I' for Inactive)
REMARK    1  A    between atoms: C_6  and  C_2 
REMARK    2  A    between atoms: C_7  and  C_6 
REMARK    3  A    between atoms: C_8  and  C_15 
REMARK       I    between atoms: N_9  and  C_8 
REMARK    4  A    between atoms: C_16  and  N_9 
REMARK    5  A    between atoms: O_13  and  C_12 
REMARK    6  A    between atoms: C_15  and  O_13 
ROOT
ATOM      1  C   UNL d   1      52.306  33.287  53.528  0.00  0.00     0.023 A 
ATOM      2  C   UNL d   1      52.159  32.572  53.151  0.00  0.00     0.100 A 
ATOM      3  C   UNL d   1      51.688  33.780  53.736  0.00  0.00     0.002 A 
ATOM      4  C   UNL d   1      51.388  32.348  52.980  0.00  0.00     0.025 A 
ATOM      5  C   UNL d   1      50.911  33.563  53.568  0.00  0.00     0.000 A 
ATOM      6  C   UNL d   1      50.765  32.842  53.188  0.00  0.00     0.002 A 
ENDROOT
BRANCH   2   7
ATOM      7  O   UNL d   1      52.785  32.075  52.942  0.00  0.00    -0.300 OA
BRANCH   7   8
ATOM      8  C   UNL d   1      52.700  31.257  53.032  0.00  0.00     0.185 C 
BRANCH   8   9
ATOM      9  C   UNL d   1      53.011  30.746  52.458  0.00  0.00     0.304 C 
ATOM     10  N   UNL d   1      53.271  29.995  52.680  0.00  0.00    -0.206 NA
ATOM     11  O   UNL d   1      53.058  30.988  51.674  0.00  0.00    -0.263 OA
BRANCH  10  12
ATOM     12  C   UNL d   1      53.223  29.753  53.464  0.00  0.00     0.085 A 
ATOM     13  C   UNL d   1      53.831  29.922  53.992  0.00  0.00     0.021 A 
ATOM     14  C   UNL d   1      53.783  29.678  54.782  0.00  0.00     0.031 A 
ATOM     15  C   UNL d   1      53.117  29.261  55.042  0.00  0.00     0.140 A 
ATOM     16  C   UNL d   1      52.506  29.091  54.510  0.00  0.00     0.031 A 
ATOM     17  F   UNL d   1      53.061  29.014  55.828  0.00  0.00    -0.204 F 
ATOM     18  C   UNL d   1      52.556  29.335  53.723  0.00  0.00     0.021 A 
ENDBRANCH  10  12
ENDBRANCH   8   9
ENDBRANCH   7   8
ENDBRANCH   2   7
BRANCH   1  19
ATOM     19  C   UNL d   1      53.080  33.515  53.701  0.00  0.00     0.013 C 
BRANCH  19  20
ATOM     20  C   UNL d   1      53.227  34.176  54.165  0.00  0.00     0.092 A 
ATOM     21  C   UNL d   1      53.633  34.190  54.874  0.00  0.00     0.288 A 
ATOM     22  N   UNL d   1      53.649  34.963  55.147  0.00  0.00    -0.163 NA
ATOM     23  O   UNL d   1      53.970  33.540  55.251  0.00  0.00    -0.265 OA
ATOM     24  C   UNL d   1      53.248  35.434  54.600  0.00  0.00     0.313 A 
ATOM     25  S   UNL d   1      52.986  34.945  53.991  0.00  0.00    -0.021 SA
ATOM     26  O   UNL d   1      53.129  36.251  54.653  0.00  0.00    -0.258 OA
ENDBRANCH  19  20
ENDBRANCH   1  19
TORSDOF 6
ENDMDL
MODEL 5
REMARK VINA RESULT:      -6.4      2.553      4.239
REMARK  6 active torsions:
REMARK  status: ('A' for Active; 'I' for Inactive)
REMARK    1  A    between atoms: C_6  and  C_2 
REMARK    2  A    between atoms: C_7  and  C_6 
REMARK    3  A    between atoms: C_8  and  C_15 
REMARK       I    between atoms: N_9  and  C_8 
REMARK    4  A    between atoms: C_16  and  N_9 
REMARK    5  A    between atoms: O_13  and  C_12 
REMARK    6  A    between atoms: C_15  and  O_13 
ROOT
ATOM      1  C   UNL d   1      50.438  34.582  52.730  0.00  0.00     0.023 A 
ATOM      2  C   UNL d   1      51.250  34.586  52.859  0.00  0.00     0.100 A 
ATOM      3  C   UNL d   1      50.134  34.310  52.021  0.00  0.00     0.002 A 
ATOM      4  C   UNL d   1      51.761  34.315  52.275  0.00  0.00     0.025 A 
ATOM      5  C   UNL d   1      50.640  34.037  51.430  0.00  0.00     0.000 A 
ATOM      6  C   UNL d   1      51.457  34.042  51.563  0.00  0.00     0.002 A 
ENDROOT
BRANCH   2   7
ATOM      7  O   UNL d   1      51.556  34.861  53.575  0.00  0.00    -0.300 OA
BRANCH   7   8
ATOM      8  C   UNL d   1      52.331  34.661  53.788  0.00  0.00     0.185 C 
BRANCH   8   9
ATOM      9  C   UNL d   1      52.736  35.122  54.345  0.00  0.00     0.304 C 
ATOM     10  N   UNL d   1      53.402  34.813  54.721  0.00  0.00    -0.206 NA
ATOM     11  O   UNL d   1      52.474  35.881  54.519  0.00  0.00    -0.263 OA
BRANCH  10  12
ATOM     12  C   UNL d   1      53.664  34.054  54.547  0.00  0.00     0.085 A 
ATOM     13  C   UNL d   1      53.375  33.405  54.962  0.00  0.00     0.021 A 
ATOM     14  C   UNL d   1      53.638  32.640  54.787  0.00  0.00     0.031 A 
ATOM     15  C   UNL d   1      54.199  32.528  54.187  0.00  0.00     0.140 A 
ATOM     16  C   UNL d   1      54.490  33.181  53.770  0.00  0.00     0.031 A 
ATOM     17  F   UNL d   1      54.467  31.769  54.005  0.00  0.00    -0.204 F 
ATOM     18  C   UNL d   1      54.225  33.942  53.947  0.00  0.00     0.021 A 
ENDBRANCH  10  12
ENDBRANCH   8   9
ENDBRANCH   7   8
ENDBRANCH   2   7
BRANCH   1  19
ATOM     19  C   UNL d   1      49.923  34.854  53.314  0.00  0.00     0.013 C 
BRANCH  19  20
ATOM     20  C   UNL d   1      49.220  35.225  53.110  0.00  0.00     0.092 A 
ATOM     21  C   UNL d   1      48.871  35.852  53.502  0.00  0.00     0.288 A 
ATOM     22  N   UNL d   1      48.178  36.047  53.111  0.00  0.00    -0.163 NA
ATOM     23  O   UNL d   1      49.166  36.225  54.175  0.00  0.00    -0.265 OA
ATOM     24  C   UNL d   1      48.095  35.535  52.469  0.00  0.00     0.313 A 
ATOM     25  S   UNL d   1      48.742  35.025  52.468  0.00  0.00    -0.021 SA
ATOM     26  O   UNL d   1      47.474  35.533  51.922  0.00  0.00    -0.258 OA
ENDBRANCH  19  20
ENDBRANCH   1  19
TORSDOF 6
ENDMDL
MODEL 6
REMARK VINA RESULT:      -6.1      1.329      2.032
REMARK  6 active torsions:
REMARK  status: ('A' for Active; 'I' for Inactive)
REMARK    1  A    between atoms: C_6  and  C_2 
REMARK    2  A    between atoms: C_7  and  C_6 
REMARK    3  A    between atoms: C_8  and  C_15 
REMARK       I    between atoms: N_9  and  C_8 
REMARK    4  A    between atoms: C_16  and  N_9 
REMARK    5  A    between atoms: O_13  and  C_12 
REMARK    6  A    between atoms: C_15  and  O_13 
ROOT
ATOM      1  C   UNL d   1      52.358  33.687  53.822  0.00  0.00     0.023 A 
ATOM      2  C   UNL d   1      52.672  33.223  53.221  0.00  0.00     0.100 A 
ATOM      3  C   UNL d   1      51.616  34.023  53.741  0.00  0.00     0.002 A 
ATOM      4  C   UNL d   1      52.241  33.094  52.533  0.00  0.00     0.025 A 
ATOM      5  C   UNL d   1      51.178  33.898  53.055  0.00  0.00     0.000 A 
ATOM      6  C   UNL d   1      51.496  33.430  52.450  0.00  0.00     0.002 A 
ENDROOT
BRANCH   2   7
ATOM      7  O   UNL d   1      53.421  32.886  53.304  0.00  0.00    -0.300 OA
BRANCH   7   8
ATOM      8  C   UNL d   1      53.512  32.070  53.197  0.00  0.00     0.185 C 
BRANCH   8   9
ATOM      9  C   UNL d   1      54.272  31.743  53.160  0.00  0.00     0.304 C 
ATOM     10  N   UNL d   1      54.368  30.927  53.247  0.00  0.00    -0.206 NA
ATOM     11  O   UNL d   1      54.924  32.227  53.039  0.00  0.00    -0.263 OA
BRANCH  10  12
ATOM     12  C   UNL d   1      53.716  30.442  53.369  0.00  0.00     0.085 A 
ATOM     13  C   UNL d   1      53.257  30.191  52.734  0.00  0.00     0.021 A 
ATOM     14  C   UNL d   1      52.599  29.702  52.856  0.00  0.00     0.031 A 
ATOM     15  C   UNL d   1      52.404  29.464  53.625  0.00  0.00     0.140 A 
ATOM     16  C   UNL d   1      52.866  29.717  54.264  0.00  0.00     0.031 A 
ATOM     17  F   UNL d   1      51.750  28.976  53.756  0.00  0.00    -0.204 F 
ATOM     18  C   UNL d   1      53.521  30.204  54.138  0.00  0.00     0.021 A 
ENDBRANCH  10  12
ENDBRANCH   8   9
ENDBRANCH   7   8
ENDBRANCH   2   7
BRANCH   1  19
ATOM     19  C   UNL d   1      52.788  33.819  54.514  0.00  0.00     0.013 C 
BRANCH  19  20
ATOM     20  C   UNL d   1      53.015  34.579  54.726  0.00  0.00     0.092 A 
ATOM     21  C   UNL d   1      53.628  34.779  55.228  0.00  0.00     0.288 A 
ATOM     22  N   UNL d   1      53.659  35.597  55.283  0.00  0.00    -0.163 NA
ATOM     23  O   UNL d   1      54.129  34.251  55.613  0.00  0.00    -0.265 OA
ATOM     24  C   UNL d   1      53.058  35.907  54.810  0.00  0.00     0.313 A 
ATOM     25  S   UNL d   1      52.658  35.275  54.464  0.00  0.00    -0.021 SA
ATOM     26  O   UNL d   1      52.886  36.709  54.701  0.00  0.00    -0.258 OA
ENDBRANCH  19  20
ENDBRANCH   1  19
TORSDOF 6
ENDMDL
MODEL 7
REMARK VINA RESULT:      -6.0      4.681      6.887
REMARK  6 active torsions:
REMARK  status: ('A' for Active; 'I' for Inactive)
REMARK    1  A    between atoms: C_6  and  C_2 
REMARK    2  A    between atoms: C_7  and  C_6 
REMARK    3  A    between atoms: C_8  and  C_15 
REMARK       I    between atoms: N_9  and  C_8 
REMARK    4  A    between atoms: C_16  and  N_9 
REMARK    5  A    between atoms: O_13  and  C_12 
REMARK    6  A    between atoms: C_15  and  O_13 
ROOT
ATOM      1  C   UNL d   1      49.849  34.554  52.446  0.00  0.00     0.023 A 
ATOM      2  C   UNL d   1      49.141  34.973  52.440  0.00  0.00     0.100 A 
ATOM      3  C   UNL d   1      50.111  34.176  51.770  0.00  0.00     0.002 A 
ATOM      4  C   UNL d   1      48.693  35.013  51.753  0.00  0.00     0.025 A 
ATOM      5  C   UNL d   1      49.667  34.211  51.077  0.00  0.00     0.000 A 
ATOM      6  C   UNL d   1      48.955  34.633  51.073  0.00  0.00     0.002 A 
ENDROOT
BRANCH   2   7
ATOM      7  O   UNL d   1      48.878  35.355  53.123  0.00  0.00    -0.300 OA
BRANCH   7   8
ATOM      8  C   UNL d   1      48.177  35.795  53.097  0.00  0.00     0.185 C 
BRANCH   8   9
ATOM      9  C   UNL d   1      48.048  36.396  53.653  0.00  0.00     0.304 C 
ATOM     10  N   UNL d   1      47.282  36.676  53.777  0.00  0.00    -0.206 NA
ATOM     11  O   UNL d   1      48.680  36.708  54.076  0.00  0.00    -0.263 OA
BRANCH  10  12
ATOM     12  C   UNL d   1      46.651  36.364  53.355  0.00  0.00     0.085 A 
ATOM     13  C   UNL d   1      46.443  36.676  52.621  0.00  0.00     0.021 A 
ATOM     14  C   UNL d   1      45.806  36.361  52.195  0.00  0.00     0.031 A 
ATOM     15  C   UNL d   1      45.375  35.727  52.510  0.00  0.00     0.140 A 
ATOM     16  C   UNL d   1      45.585  35.415  53.247  0.00  0.00     0.031 A 
ATOM     17  F   UNL d   1      44.739  35.408  52.092  0.00  0.00    -0.204 F 
ATOM     18  C   UNL d   1      46.220  35.731  53.670  0.00  0.00     0.021 A 
ENDBRANCH  10  12
ENDBRANCH   8   9
ENDBRANCH   7   8
ENDBRANCH   2   7
BRANCH   1  19
ATOM     19  C   UNL d   1      50.301  34.512  53.135  0.00  0.00     0.013 C 
BRANCH  19  20
ATOM     20  C   UNL d   1      51.003  34.086  53.148  0.00  0.00     0.092 A 
ATOM     21  C   UNL d   1      51.752  34.389  53.265  0.00  0.00     0.288 A 
ATOM     22  N   UNL d   1      52.289  33.770  53.236  0.00  0.00    -0.163 NA
ATOM     23  O   UNL d   1      51.938  35.182  53.392  0.00  0.00    -0.265 OA
ATOM     24  C   UNL d   1      51.866  33.074  53.098  0.00  0.00     0.313 A 
ATOM     25  S   UNL d   1      51.068  33.270  53.044  0.00  0.00    -0.021 SA
ATOM     26  O   UNL d   1      52.186  32.314  53.028  0.00  0.00    -0.258 OA
ENDBRANCH  19  20
ENDBRANCH   1  19
TORSDOF 6
ENDMDL
