MODEL 1
REMARK VINA RESULT:      -6.0      0.000      0.000
REMARK  3 active torsions:
REMARK  status: ('A' for Active; 'I' for Inactive)
REMARK    1  A    between atoms: S_11  and  C_2 
REMARK    2  A    between atoms: C_7  and  C_12 
REMARK    3  A    between atoms: C_12  and  S_11 
ROOT
ATOM      1  S   UNL d   1     -48.302  12.421  22.862  0.00  0.00    -0.058 SA
ENDROOT
BRANCH   1   2
ATOM      2  C   UNL d   1     -48.986  12.055  23.159  0.00  0.00     0.164 A 
ATOM      3  S   UNL d   1     -49.738  12.394  23.214  0.00  0.00    -0.039 SA
ATOM      4  C   UNL d   1     -50.248  11.834  23.542  0.00  0.00     0.134 A 
ATOM      5  N   UNL d   1     -49.812  11.144  23.691  0.00  0.00    -0.140 NA
ATOM      6  C   UNL d   1     -51.060  11.935  23.698  0.00  0.00     0.030 C 
ATOM      7  N   UNL d   1     -49.025  11.278  23.454  0.00  0.00    -0.134 NA
ENDBRANCH   1   2
BRANCH   1   8
ATOM      8  C   UNL d   1     -47.660  12.560  23.360  0.00  0.00     0.057 C 
BRANCH   8   9
ATOM      9  C   UNL d   1     -46.990  12.958  23.078  0.00  0.00     0.095 A 
ATOM     10  N   UNL d   1     -46.336  12.623  22.738  0.00  0.00    -0.238 NA
ATOM     11  C   UNL d   1     -45.814  13.217  22.545  0.00  0.00     0.111 A 
ATOM     12  C   UNL d   1     -45.075  13.140  22.188  0.00  0.00     0.028 C 
ATOM     13  S   UNL d   1     -46.149  13.923  22.767  0.00  0.00    -0.066 SA
ATOM     14  C   UNL d   1     -46.870  13.766  23.094  0.00  0.00     0.057 A 
ENDBRANCH   8   9
ENDBRANCH   1   8
TORSDOF 3
ENDMDL
MODEL 2
REMARK VINA RESULT:      -5.9      2.205      3.516
REMARK  3 active torsions:
REMARK  status: ('A' for Active; 'I' for Inactive)
REMARK    1  A    between atoms: S_11  and  C_2 
REMARK    2  A    between atoms: C_7  and  C_12 
REMARK    3  A    between atoms: C_12  and  S_11 
ROOT
ATOM      1  S   UNL d   1     -47.830  13.108  23.023  0.00  0.00    -0.058 SA
ENDROOT
BRANCH   1   2
ATOM      2  C   UNL d   1     -47.113  12.717  23.175  0.00  0.00     0.164 A 
ATOM      3  S   UNL d   1     -47.023  11.924  23.389  0.00  0.00    -0.039 SA
ATOM      4  C   UNL d   1     -46.218  11.773  23.484  0.00  0.00     0.134 A 
ATOM      5  N   UNL d   1     -45.803  12.475  23.328  0.00  0.00    -0.140 NA
ATOM      6  C   UNL d   1     -45.871  11.047  23.698  0.00  0.00     0.030 C 
ATOM      7  N   UNL d   1     -46.358  13.067  23.135  0.00  0.00    -0.134 NA
ENDBRANCH   1   2
BRANCH   1   8
ATOM      8  C   UNL d   1     -47.831  13.913  22.847  0.00  0.00     0.057 C 
BRANCH   8   9
ATOM      9  C   UNL d   1     -48.547  14.322  22.758  0.00  0.00     0.095 A 
ATOM     10  N   UNL d   1     -48.919  14.771  23.319  0.00  0.00    -0.238 NA
ATOM     11  C   UNL d   1     -49.604  15.070  22.996  0.00  0.00     0.111 A 
ATOM     12  C   UNL d   1     -50.161  15.557  23.359  0.00  0.00     0.028 C 
ATOM     13  S   UNL d   1     -49.654  14.803  22.230  0.00  0.00    -0.066 SA
ATOM     14  C   UNL d   1     -49.006  14.344  22.083  0.00  0.00     0.057 A 
ENDBRANCH   8   9
ENDBRANCH   1   8
TORSDOF 3
ENDMDL
MODEL 3
REMARK VINA RESULT:      -5.9      0.915      3.905
REMARK  3 active torsions:
REMARK  status: ('A' for Active; 'I' for Inactive)
REMARK    1  A    between atoms: S_11  and  C_2 
REMARK    2  A    between atoms: C_7  and  C_12 
REMARK    3  A    between atoms: C_12  and  S_11 
ROOT
ATOM      1  S   UNL d   1     -47.820  12.872  23.205  0.00  0.00    -0.058 SA
ENDROOT
BRANCH   1   2
ATOM      2  C   UNL d   1     -46.995  12.876  23.110  0.00  0.00     0.164 A 
ATOM      3  S   UNL d   1     -46.576  13.215  22.483  0.00  0.00    -0.039 SA
ATOM      4  C   UNL d   1     -45.772  13.088  22.613  0.00  0.00     0.134 A 
ATOM      5  N   UNL d   1     -45.688  12.667  23.324  0.00  0.00    -0.140 NA
ATOM      6  C   UNL d   1     -45.145  13.334  22.123  0.00  0.00     0.030 C 
ATOM      7  N   UNL d   1     -46.449  12.533  23.637  0.00  0.00    -0.134 NA
ENDBRANCH   1   2
BRANCH   1   8
ATOM      8  C   UNL d   1     -48.242  12.169  23.120  0.00  0.00     0.057 C 
BRANCH   8   9
ATOM      9  C   UNL d   1     -49.066  12.163  23.198  0.00  0.00     0.095 A 
ATOM     10  N   UNL d   1     -49.593  12.631  22.798  0.00  0.00    -0.238 NA
ATOM     11  C   UNL d   1     -50.344  12.441  23.044  0.00  0.00     0.111 A 
ATOM     12  C   UNL d   1     -51.056  12.772  22.791  0.00  0.00     0.028 C 
ATOM     13  S   UNL d   1     -50.282  11.851  23.599  0.00  0.00    -0.066 SA
ATOM     14  C   UNL d   1     -49.498  11.679  23.694  0.00  0.00     0.057 A 
ENDBRANCH   8   9
ENDBRANCH   1   8
TORSDOF 3
ENDMDL
MODEL 4
REMARK VINA RESULT:      -5.7      2.419      2.564
REMARK  3 active torsions:
REMARK  status: ('A' for Active; 'I' for Inactive)
REMARK    1  A    between atoms: S_11  and  C_2 
REMARK    2  A    between atoms: C_7  and  C_12 
REMARK    3  A    between atoms: C_12  and  S_11 
ROOT
ATOM      1  S   UNL d   1     -48.594  14.094  22.814  0.00  0.00    -0.058 SA
ENDROOT
BRANCH   1   2
ATOM      2  C   UNL d   1     -49.199  14.660  22.877  0.00  0.00     0.164 A 
ATOM      3  S   UNL d   1     -49.887  14.594  23.330  0.00  0.00    -0.039 SA
ATOM      4  C   UNL d   1     -50.329  15.283  23.228  0.00  0.00     0.134 A 
ATOM      5  N   UNL d   1     -49.914  15.782  22.710  0.00  0.00    -0.140 NA
ATOM      6  C   UNL d   1     -51.063  15.458  23.579  0.00  0.00     0.030 C 
ATOM      7  N   UNL d   1     -49.208  15.397  22.489  0.00  0.00    -0.134 NA
ENDBRANCH   1   2
BRANCH   1   8
ATOM      8  C   UNL d   1     -47.815  14.303  22.983  0.00  0.00     0.057 C 
BRANCH   8   9
ATOM      9  C   UNL d   1     -47.220  13.727  22.996  0.00  0.00     0.095 A 
ATOM     10  N   UNL d   1     -47.259  13.000  23.351  0.00  0.00    -0.238 NA
ATOM     11  C   UNL d   1     -46.553  12.615  23.227  0.00  0.00     0.111 A 
ATOM     12  C   UNL d   1     -46.338  11.862  23.486  0.00  0.00     0.028 C 
ATOM     13  S   UNL d   1     -46.075  13.107  22.792  0.00  0.00    -0.066 SA
ATOM     14  C   UNL d   1     -46.483  13.790  22.650  0.00  0.00     0.057 A 
ENDBRANCH   8   9
ENDBRANCH   1   8
TORSDOF 3
ENDMDL
MODEL 5
REMARK VINA RESULT:      -4.7      8.902      9.268
REMARK  3 active torsions:
REMARK  status: ('A' for Active; 'I' for Inactive)
REMARK    1  A    between atoms: S_11  and  C_2 
REMARK    2  A    between atoms: C_7  and  C_12 
REMARK    3  A    between atoms: C_12  and  S_11 
ROOT
ATOM      1  S   UNL d   1     -39.879  14.614  19.370  0.00  0.00    -0.058 SA
ENDROOT
BRANCH   1   2
ATOM      2  C   UNL d   1     -40.285  14.631  18.646  0.00  0.00     0.164 A 
ATOM      3  S   UNL d   1     -40.284  15.251  18.099  0.00  0.00    -0.039 SA
ATOM      4  C   UNL d   1     -40.760  15.032  17.461  0.00  0.00     0.134 A 
ATOM      5  N   UNL d   1     -41.059  14.272  17.612  0.00  0.00    -0.140 NA
ATOM      6  C   UNL d   1     -40.919  15.486  16.782  0.00  0.00     0.030 C 
ATOM      7  N   UNL d   1     -40.765  14.019  18.349  0.00  0.00    -0.134 NA
ENDBRANCH   1   2
BRANCH   1   8
ATOM      8  C   UNL d   1     -40.300  14.628  20.079  0.00  0.00     0.057 C 
BRANCH   8   9
ATOM      9  C   UNL d   1     -39.902  14.588  20.804  0.00  0.00     0.095 A 
ATOM     10  N   UNL d   1     -39.711  13.917  21.214  0.00  0.00    -0.238 NA
ATOM     11  C   UNL d   1     -39.323  14.133  21.896  0.00  0.00     0.111 A 
ATOM     12  C   UNL d   1     -39.025  13.638  22.484  0.00  0.00     0.028 C 
ATOM     13  S   UNL d   1     -39.275  14.944  21.907  0.00  0.00    -0.066 SA
ATOM     14  C   UNL d   1     -39.629  15.224  21.237  0.00  0.00     0.057 A 
ENDBRANCH   8   9
ENDBRANCH   1   8
TORSDOF 3
ENDMDL
MODEL 6
REMARK VINA RESULT:      -4.2      8.918      9.414
REMARK  3 active torsions:
REMARK  status: ('A' for Active; 'I' for Inactive)
REMARK    1  A    between atoms: S_11  and  C_2 
REMARK    2  A    between atoms: C_7  and  C_12 
REMARK    3  A    between atoms: C_12  and  S_11 
ROOT
ATOM      1  S   UNL d   1     -39.963  14.836  19.478  0.00  0.00    -0.058 SA
ENDROOT
BRANCH   1   2
ATOM      2  C   UNL d   1     -39.923  14.531  20.249  0.00  0.00     0.164 A 
ATOM      3  S   UNL d   1     -39.234  14.359  20.672  0.00  0.00    -0.039 SA
ATOM      4  C   UNL d   1     -39.453  14.069  21.413  0.00  0.00     0.134 A 
ATOM      5  N   UNL d   1     -40.282  14.060  21.452  0.00  0.00    -0.140 NA
ATOM      6  C   UNL d   1     -38.940  13.825  22.021  0.00  0.00     0.030 C 
ATOM      7  N   UNL d   1     -40.579  14.348  20.728  0.00  0.00    -0.134 NA
ENDBRANCH   1   2
BRANCH   1   8
ATOM      8  C   UNL d   1     -40.423  14.456  18.908  0.00  0.00     0.057 C 
BRANCH   8   9
ATOM      9  C   UNL d   1     -40.495  14.774  18.147  0.00  0.00     0.095 A 
ATOM     10  N   UNL d   1     -41.087  15.257  17.879  0.00  0.00    -0.238 NA
ATOM     11  C   UNL d   1     -40.939  15.437  17.100  0.00  0.00     0.111 A 
ATOM     12  C   UNL d   1     -41.390  15.912  16.598  0.00  0.00     0.028 C 
ATOM     13  S   UNL d   1     -40.251  15.063  16.885  0.00  0.00    -0.066 SA
ATOM     14  C   UNL d   1     -39.977  14.655  17.526  0.00  0.00     0.057 A 
ENDBRANCH   8   9
ENDBRANCH   1   8
TORSDOF 3
ENDMDL
MODEL 7
REMARK VINA RESULT:      -4.1      8.329     10.062
REMARK  3 active torsions:
REMARK  status: ('A' for Active; 'I' for Inactive)
REMARK    1  A    between atoms: S_11  and  C_2 
REMARK    2  A    between atoms: C_7  and  C_12 
REMARK    3  A    between atoms: C_12  and  S_11 
ROOT
ATOM      1  S   UNL d   1     -39.785  14.572  18.551  0.00  0.00    -0.058 SA
ENDROOT
BRANCH   1   2
ATOM      2  C   UNL d   1     -39.433  14.079  17.982  0.00  0.00     0.164 A 
ATOM      3  S   UNL d   1     -38.983  14.325  17.333  0.00  0.00    -0.039 SA
ATOM      4  C   UNL d   1     -38.744  13.653  16.917  0.00  0.00     0.134 A 
ATOM      5  N   UNL d   1     -39.046  12.987  17.309  0.00  0.00    -0.140 NA
ATOM      6  C   UNL d   1     -38.282  13.638  16.226  0.00  0.00     0.030 C 
ATOM      7  N   UNL d   1     -39.476  13.248  17.973  0.00  0.00    -0.134 NA
ENDBRANCH   1   2
BRANCH   1   8
ATOM      8  C   UNL d   1     -39.631  14.451  19.352  0.00  0.00     0.057 C 
BRANCH   8   9
ATOM      9  C   UNL d   1     -39.936  14.970  19.920  0.00  0.00     0.095 A 
ATOM     10  N   UNL d   1     -40.717  15.072  20.111  0.00  0.00    -0.238 NA
ATOM     11  C   UNL d   1     -40.767  15.635  20.696  0.00  0.00     0.111 A 
ATOM     12  C   UNL d   1     -41.448  15.919  21.064  0.00  0.00     0.028 C 
ATOM     13  S   UNL d   1     -40.012  15.883  20.868  0.00  0.00    -0.066 SA
ATOM     14  C   UNL d   1     -39.502  15.476  20.392  0.00  0.00     0.057 A 
ENDBRANCH   8   9
ENDBRANCH   1   8
TORSDOF 3
ENDMDL
