MODEL 1
REMARK VINA RESULT:      59.7      0.000      0.000
REMARK  8 active torsions:
REMARK  status: ('A' for Active; 'I' for Inactive)
REMARK    1  A    between atoms: C_13  and  N_1 
REMARK    2  A    between atoms: C_2  and  N_6 
REMARK    3  A    between atoms: C_9  and  C_5 
REMARK       I    between atoms: N_6  and  C_9 
REMARK    4  A    between atoms: S_16  and  C_7 
REMARK    5  A    between atoms: C_14  and  C_27 
REMARK       I    between atoms: N_20  and  C_14 
REMARK    6  A    between atoms: C_15  and  C_28 
REMARK    7  A    between atoms: C_27  and  S_16 
REMARK    8  A    between atoms: C_28  and  N_20 
ROOT
ATOM      1  C   UNL d   1      14.227  16.257  -5.200  0.00  0.00     0.219 A 
ATOM      2  S   UNL d   1      13.748  15.778  -4.833  0.00  0.00    -0.019 SA
ATOM      3  C   UNL d   1      14.118  15.124  -4.708  0.00  0.00     0.165 A 
ATOM      4  N   UNL d   1      14.899  15.895  -5.303  0.00  0.00    -0.120 NA
ATOM      5  N   UNL d   1      14.831  15.181  -4.993  0.00  0.00    -0.133 NA
ENDROOT
BRANCH   1   6
ATOM      6  N   UNL d   1      14.065  16.974  -5.427  0.00  0.00    -0.181 NA
ATOM      7  C   UNL d   1      14.546  17.552  -5.256  0.00  0.00     0.283 C 
ATOM      8  O   UNL d   1      15.189  17.413  -4.857  0.00  0.00    -0.265 OA
BRANCH   7   9
ATOM      9  C   UNL d   1      14.380  18.265  -5.484  0.00  0.00     0.080 A 
ATOM     10  C   UNL d   1      14.796  18.895  -5.356  0.00  0.00     0.088 A 
ATOM     11  N   UNL d   1      14.433  19.491  -5.678  0.00  0.00    -0.273 N 
ATOM     12  C   UNL d   1      13.795  19.230  -6.005  0.00  0.00     0.265 A 
ATOM     13  C   UNL d   1      13.755  18.467  -5.888  0.00  0.00     0.067 A 
ATOM     14  O   UNL d   1      13.273  19.654  -6.389  0.00  0.00    -0.267 OA
BRANCH  11  15
ATOM     15  C   UNL d   1      14.695  20.280  -5.670  0.00  0.00     0.067 A 
ATOM     16  C   UNL d   1      14.405  20.798  -5.098  0.00  0.00     0.020 A 
ATOM     17  C   UNL d   1      14.672  21.582  -5.098  0.00  0.00     0.031 A 
ATOM     18  C   UNL d   1      15.214  21.840  -5.654  0.00  0.00     0.140 A 
ATOM     19  C   UNL d   1      15.502  21.314  -6.226  0.00  0.00     0.031 A 
ATOM     20  F   UNL d   1      15.481  22.631  -5.652  0.00  0.00    -0.204 F 
ATOM     21  C   UNL d   1      15.245  20.541  -6.234  0.00  0.00     0.020 A 
ENDBRANCH  11  15
ENDBRANCH   7   9
ENDBRANCH   1   6
BRANCH   3  22
ATOM     22  S   UNL d   1      13.258  13.903  -3.906  0.00  0.00    -0.054 SA
BRANCH  22  23
ATOM     23  C   UNL d   1      13.139  13.171  -4.270  0.00  0.00     0.100 C 
BRANCH  23  24
ATOM     24  C   UNL d   1      13.262  12.472  -3.843  0.00  0.00     0.286 C 
ATOM     25  N   UNL d   1      13.144  12.474  -3.028  0.00  0.00    -0.204 NA
ATOM     26  O   UNL d   1      13.501  11.781  -4.230  0.00  0.00    -0.265 OA
BRANCH  25  27
ATOM     27  C   UNL d   1      13.267  11.779  -2.599  0.00  0.00     0.127 C 
BRANCH  27  28
ATOM     28  C   UNL d   1      13.725  11.805  -1.908  0.00  0.00     0.119 A 
ATOM     29  O   UNL d   1      14.552  11.784  -1.865  0.00  0.00    -0.304 OA
ATOM     30  C   UNL d   1      14.764  11.824  -1.063  0.00  0.00     0.123 A 
ATOM     31  C   UNL d   1      14.075  11.869  -0.607  0.00  0.00     0.029 A 
ATOM     32  C   UNL d   1      13.428  11.858  -1.132  0.00  0.00     0.028 A 
ENDBRANCH  27  28
ENDBRANCH  25  27
ENDBRANCH  23  24
ENDBRANCH  22  23
ENDBRANCH   3  22
TORSDOF 8
ENDMDL
