MODEL 1
REMARK VINA RESULT:      67.4      0.000      0.000
REMARK  7 active torsions:
REMARK  status: ('A' for Active; 'I' for Inactive)
REMARK    1  A    between atoms: C_4  and  C_10 
REMARK    2  A    between atoms: O_17  and  C_4 
REMARK    3  A    between atoms: O_19  and  C_5 
REMARK    4  A    between atoms: O_20  and  C_7 
REMARK    5  A    between atoms: C_12  and  C_8 
REMARK    6  A    between atoms: O_15  and  C_12 
REMARK    7  A    between atoms: C_16  and  O_15 
ROOT
ATOM      1  C   UNL d   1     -54.890-100.558 -43.616  0.00  0.00     0.022 A 
ATOM      2  C   UNL d   1     -54.788-100.238 -42.865  0.00  0.00     0.028 A 
ATOM      3  C   UNL d   1     -55.021-101.378 -43.714  0.00  0.00     0.005 A 
ATOM      4  C   UNL d   1     -54.816-100.738 -42.213  0.00  0.00     0.116 A 
ATOM      5  C   UNL d   1     -55.048-101.873 -43.061  0.00  0.00     0.026 A 
ATOM      6  C   UNL d   1     -54.946-101.558 -42.311  0.00  0.00     0.116 A 
ATOM      7  C   UNL d   1     -54.862-100.059 -44.264  0.00  0.00     0.106 A 
ATOM      8  N   UNL d   1     -54.965-100.379 -45.014  0.00  0.00    -0.242 NA
ATOM      9  C   UNL d   1     -55.095-101.199 -45.112  0.00  0.00     0.099 A 
ATOM     10  C   UNL d   1     -55.122-101.694 -44.460  0.00  0.00     0.021 A 
ENDROOT
BRANCH   7  11
ATOM     11  C   UNL d   1     -54.732 -99.238 -44.166  0.00  0.00     0.142 C 
BRANCH  11  12
ATOM     12  O   UNL d   1     -55.325 -98.758 -43.866  0.00  0.00    -0.304 OA
BRANCH  12  13
ATOM     13  C   UNL d   1     -56.092 -98.791 -44.186  0.00  0.00     0.100 A 
ATOM     14  C   UNL d   1     -56.752 -98.856 -43.696  0.00  0.00     0.025 A 
ATOM     15  C   UNL d   1     -57.518 -98.889 -44.015  0.00  0.00     0.007 A 
ATOM     16  C   UNL d   1     -57.638 -98.858 -44.831  0.00  0.00     0.063 A 
ATOM     17  C   UNL d   1     -56.978 -98.793 -45.321  0.00  0.00     0.007 A 
ATOM     18  C   UNL d   1     -56.212 -98.760 -45.001  0.00  0.00     0.025 A 
BRANCH  16  19
ATOM     19  C   UNL d   1     -58.407 -98.891 -45.146  0.00  0.00     0.296 C 
ATOM     20  O   UNL d   1     -58.534 -99.053 -45.939  0.00  0.00    -0.259 OA
BRANCH  19  21
ATOM     21  O   UNL d   1     -59.066 -98.759 -44.654  0.00  0.00    -0.296 OA
ATOM     22  C   UNL d   1     -59.841 -98.949 -44.920  0.00  0.00     0.185 C 
ENDBRANCH  19  21
ENDBRANCH  16  19
ENDBRANCH  12  13
ENDBRANCH  11  12
ENDBRANCH   7  11
BRANCH   4  23
ATOM     23  O   UNL d   1     -54.712-100.420 -41.448  0.00  0.00    -0.326 OA
ATOM     24  C   UNL d   1     -55.026-100.811 -40.798  0.00  0.00     0.181 C 
ENDBRANCH   4  23
BRANCH   6  25
ATOM     25  O   UNL d   1     -54.975-102.069 -41.645  0.00  0.00    -0.326 OA
ATOM     26  C   UNL d   1     -54.866-102.879 -41.765  0.00  0.00     0.181 C 
ENDBRANCH   6  25
TORSDOF 7
ENDMDL
