MODEL 1
REMARK VINA RESULT:      -3.0      0.000      0.000
REMARK  4 active torsions:
REMARK  status: ('A' for Active; 'I' for Inactive)
REMARK    1  A    between atoms: C_12  and  C_2 
REMARK    2  A    between atoms: C_13  and  C_3 
REMARK    3  A    between atoms: N_8  and  C_6 
REMARK       I    between atoms: C_7  and  N_9 
REMARK    4  A    between atoms: N_9  and  N_8 
ROOT
ATOM      1  C   UNL d   1      59.835  -1.122  29.070  0.00  0.00     0.196 A 
ATOM      2  C   UNL d   1      59.191  -1.644  29.214  0.00  0.00     0.041 A 
ATOM      3  C   UNL d   1      59.808  -0.355  29.296  0.00  0.00     0.041 A 
ATOM      4  C   UNL d   1      58.505  -1.357  29.601  0.00  0.00     0.024 A 
ATOM      5  C   UNL d   1      59.137  -0.059  29.679  0.00  0.00     0.024 A 
ATOM      6  C   UNL d   1      58.496  -0.553  29.829  0.00  0.00     0.103 A 
ATOM      7  O   UNL d   1      60.551  -1.387  28.676  0.00  0.00    -0.287 OA
ENDROOT
BRANCH   6   8
ATOM      8  N   UNL d   1      57.802  -0.255  30.223  0.00  0.00    -0.144 NA
BRANCH   8   9
ATOM      9  N   UNL d   1      57.610  -0.455  31.011  0.00  0.00    -0.087 NA
ATOM     10  C   UNL d   1      57.024  -0.052  31.445  0.00  0.00     0.404 C 
ATOM     11  O   UNL d   1      56.612   0.575  31.083  0.00  0.00    -0.239 OA
ATOM     12  N   UNL d   1      56.852  -0.274  32.231  0.00  0.00    -0.083 N 
ENDBRANCH   8   9
ENDBRANCH   6   8
BRANCH   3  13
ATOM     13  C   UNL d   1      60.458   0.130  29.140  0.00  0.00     0.003 C 
ATOM     14  C   UNL d   1      61.082   0.151  29.649  0.00  0.00     0.000 C 
ATOM     15  C   UNL d   1      60.464   0.592  28.456  0.00  0.00     0.000 C 
ENDBRANCH   3  13
BRANCH   2  16
ATOM     16  C   UNL d   1      59.231  -2.416  28.981  0.00  0.00     0.003 C 
ATOM     17  C   UNL d   1      58.684  -2.693  28.455  0.00  0.00     0.000 C 
ATOM     18  C   UNL d   1      59.800  -2.898  29.264  0.00  0.00     0.000 C 
ENDBRANCH   2  16
TORSDOF 4
ENDMDL
MODEL 2
REMARK VINA RESULT:      -1.9      2.319      4.677
REMARK  4 active torsions:
REMARK  status: ('A' for Active; 'I' for Inactive)
REMARK    1  A    between atoms: C_12  and  C_2 
REMARK    2  A    between atoms: C_13  and  C_3 
REMARK    3  A    between atoms: N_8  and  C_6 
REMARK       I    between atoms: C_7  and  N_9 
REMARK    4  A    between atoms: N_9  and  N_8 
ROOT
ATOM      1  C   UNL d   1      56.660  -0.028  33.493  0.00  0.00     0.196 A 
ATOM      2  C   UNL d   1      56.099  -0.282  32.920  0.00  0.00     0.041 A 
ATOM      3  C   UNL d   1      57.344   0.327  33.277  0.00  0.00     0.041 A 
ATOM      4  C   UNL d   1      56.257  -0.163  32.105  0.00  0.00     0.024 A 
ATOM      5  C   UNL d   1      57.512   0.451  32.477  0.00  0.00     0.024 A 
ATOM      6  C   UNL d   1      56.977   0.210  31.900  0.00  0.00     0.103 A 
ATOM      7  O   UNL d   1      56.526  -0.137  34.335  0.00  0.00    -0.287 OA
ENDROOT
BRANCH   6   8
ATOM      8  N   UNL d   1      57.145   0.334  31.074  0.00  0.00    -0.144 NA
BRANCH   8   9
ATOM      9  N   UNL d   1      57.675  -0.145  30.644  0.00  0.00    -0.087 NA
ATOM     10  C   UNL d   1      57.871   0.004  29.848  0.00  0.00     0.404 C 
ATOM     11  O   UNL d   1      57.526   0.658  29.463  0.00  0.00    -0.239 OA
ATOM     12  N   UNL d   1      58.405  -0.492  29.443  0.00  0.00    -0.083 N 
ENDBRANCH   8   9
ENDBRANCH   6   8
BRANCH   3  13
ATOM     13  C   UNL d   1      57.872   0.564  33.866  0.00  0.00     0.003 C 
ATOM     14  C   UNL d   1      58.650   0.682  33.693  0.00  0.00     0.000 C 
ATOM     15  C   UNL d   1      57.596   0.681  34.635  0.00  0.00     0.000 C 
ENDBRANCH   3  13
BRANCH   2  16
ATOM     16  C   UNL d   1      55.413  -0.639  33.150  0.00  0.00     0.003 C 
ATOM     17  C   UNL d   1      54.803  -0.179  33.411  0.00  0.00     0.000 C 
ATOM     18  C   UNL d   1      55.337  -1.433  33.123  0.00  0.00     0.000 C 
ENDBRANCH   2  16
TORSDOF 4
ENDMDL
