MODEL 1
REMARK VINA RESULT:      10.2      0.000      0.000
REMARK  3 active torsions:
REMARK  status: ('A' for Active; 'I' for Inactive)
REMARK    1  A    between atoms: N_5  and  C_1 
REMARK    2  A    between atoms: C_9  and  C_2 
REMARK       I    between atoms: C_8  and  N_5 
REMARK    3  A    between atoms: C_13  and  C_8 
ROOT
ATOM      1  C   UNL d   1     -41.403-122.395 -52.202  0.00  0.00     0.156 A 
ATOM      2  C   UNL d   1     -41.344-121.649 -52.553  0.00  0.00     0.091 A 
ATOM      3  N   UNL d   1     -41.477-123.070 -52.678  0.00  0.00    -0.289 N 
ATOM      4  C   UNL d   1     -41.359-121.578 -53.379  0.00  0.00     0.201 A 
ATOM      5  C   UNL d   1     -41.432-122.251 -53.850  0.00  0.00     0.055 A 
ATOM      6  C   UNL d   1     -41.491-122.998 -53.499  0.00  0.00     0.069 A 
ATOM      7  O   UNL d   1     -41.299-120.832 -53.729  0.00  0.00    -0.286 OA
ATOM      8  C   UNL d   1     -41.537-123.817 -52.327  0.00  0.00     0.101 C 
ATOM      9  C   UNL d   1     -41.446-122.178 -54.671  0.00  0.00     0.005 A 
ATOM     10  C   UNL d   1     -41.565-123.671 -53.971  0.00  0.00     0.018 A 
ATOM     11  C   UNL d   1     -41.521-122.862 -55.147  0.00  0.00     0.000 A 
ATOM     12  C   UNL d   1     -41.580-123.601 -54.799  0.00  0.00     0.002 A 
ENDROOT
BRANCH   1  13
ATOM     13  N   UNL d   1     -41.390-122.476 -51.368  0.00  0.00    -0.190 NA
ATOM     14  C   UNL d   1     -41.906-122.982 -50.964  0.00  0.00     0.280 C 
ATOM     15  O   UNL d   1     -42.450-123.418 -51.405  0.00  0.00    -0.265 OA
BRANCH  14  16
ATOM     16  C   UNL d   1     -41.887-123.057 -50.143  0.00  0.00     0.058 A 
ATOM     17  C   UNL d   1     -42.528-122.789 -49.695  0.00  0.00     0.005 A 
ATOM     18  C   UNL d   1     -42.510-122.864 -48.875  0.00  0.00     0.000 A 
ATOM     19  C   UNL d   1     -41.854-123.204 -48.508  0.00  0.00     0.000 A 
ATOM     20  C   UNL d   1     -41.216-123.469 -48.963  0.00  0.00     0.000 A 
ATOM     21  C   UNL d   1     -41.235-123.394 -49.784  0.00  0.00     0.005 A 
ENDBRANCH  14  16
ENDBRANCH   1  13
BRANCH   2  22
ATOM     22  C   UNL d   1     -41.270-120.976 -52.081  0.00  0.00     0.087 A 
ATOM     23  N   UNL d   1     -41.197-121.053 -51.264  0.00  0.00    -0.244 NA
ATOM     24  C   UNL d   1     -41.123-120.373 -50.787  0.00  0.00     0.099 A 
ATOM     25  C   UNL d   1     -41.123-119.618 -51.145  0.00  0.00     0.021 A 
ATOM     26  C   UNL d   1     -41.197-119.549 -51.960  0.00  0.00     0.003 A 
ATOM     27  C   UNL d   1     -41.270-120.225 -52.429  0.00  0.00     0.019 A 
ENDBRANCH   2  22
TORSDOF 3
ENDMDL
