MODEL 1
REMARK VINA RESULT:      51.4      0.000      0.000
REMARK  5 active torsions:
REMARK  status: ('A' for Active; 'I' for Inactive)
REMARK    1  A    between atoms: C_5  and  C_1 
REMARK    2  A    between atoms: O_8  and  C_5 
REMARK    3  A    between atoms: C_15  and  O_8 
REMARK       I    between atoms: C_9  and  N_11 
REMARK    4  A    between atoms: N_11  and  C_16 
REMARK    5  A    between atoms: O_21  and  C_13 
ROOT
ATOM      1  C   UNL d   1      14.761  13.579  -0.596  0.00  0.00     0.127 A 
ATOM      2  C   UNL d   1      14.150  14.054  -0.304  0.00  0.00     0.305 A 
ATOM      3  O   UNL d   1      14.235  14.882  -0.302  0.00  0.00    -0.271 OA
ATOM      4  C   UNL d   1      15.452  13.926  -0.884  0.00  0.00     0.013 A 
ATOM      5  C   UNL d   1      14.926  15.229  -0.590  0.00  0.00     0.125 A 
ATOM      6  C   UNL d   1      15.532  14.747  -0.880  0.00  0.00     0.025 A 
ATOM      7  O   UNL d   1      13.458  13.719  -0.015  0.00  0.00    -0.259 OA
ATOM      8  C   UNL d   1      15.004  16.040  -0.586  0.00  0.00     0.117 A 
ATOM      9  C   UNL d   1      16.226  15.091  -1.170  0.00  0.00     0.002 A 
ATOM     10  C   UNL d   1      16.301  15.912  -1.164  0.00  0.00     0.002 A 
ATOM     11  C   UNL d   1      15.690  16.386  -0.872  0.00  0.00     0.026 A 
ENDROOT
BRANCH   1  12
ATOM     12  C   UNL d   1      14.672  12.760  -0.596  0.00  0.00     0.305 C 
ATOM     13  O   UNL d   1      15.088  12.306  -0.044  0.00  0.00    -0.259 OA
BRANCH  12  14
ATOM     14  O   UNL d   1      14.172  12.395  -1.143  0.00  0.00    -0.273 OA
BRANCH  14  15
ATOM     15  C   UNL d   1      13.962  12.242  -1.929  0.00  0.00     0.103 A 
ATOM     16  C   UNL d   1      13.171  12.236  -2.139  0.00  0.00     0.026 A 
ATOM     17  C   UNL d   1      12.958  12.084  -2.922  0.00  0.00     0.021 A 
ATOM     18  C   UNL d   1      13.547  11.939  -3.487  0.00  0.00     0.085 A 
ATOM     19  C   UNL d   1      14.338  11.949  -3.264  0.00  0.00     0.021 A 
ATOM     20  C   UNL d   1      14.549  12.099  -2.488  0.00  0.00     0.026 A 
BRANCH  18  21
ATOM     21  N   UNL d   1      13.334  11.788  -4.271  0.00  0.00    -0.208 NA
ATOM     22  C   UNL d   1      13.150  12.414  -4.775  0.00  0.00     0.279 C 
ATOM     23  O   UNL d   1      13.179  13.194  -4.494  0.00  0.00    -0.265 OA
ATOM     24  C   UNL d   1      12.936  12.266  -5.559  0.00  0.00     0.068 C 
ENDBRANCH  18  21
ENDBRANCH  14  15
ENDBRANCH  12  14
ENDBRANCH   1  12
BRANCH   8  25
ATOM     25  O   UNL d   1      14.398  16.507  -0.296  0.00  0.00    -0.326 OA
ATOM     26  C   UNL d   1      14.201  17.215  -0.671  0.00  0.00     0.181 C 
ENDBRANCH   8  25
TORSDOF 5
ENDMDL
