MODEL 1
REMARK VINA RESULT:      -7.5      0.000      0.000
REMARK  3 active torsions:
REMARK  status: ('A' for Active; 'I' for Inactive)
REMARK    1  A    between atoms: C_8  and  N_1 
REMARK    2  A    between atoms: C_6  and  C_2 
REMARK    3  A    between atoms: C_14  and  C_8 
ROOT
ATOM      1  N   UNL d   1     -48.885  13.538  22.828  0.00  0.00    -0.289 N 
ATOM      2  C   UNL d   1     -48.145  13.909  22.896  0.00  0.00     0.154 A 
ATOM      3  N   UNL d   1     -48.274  14.709  23.038  0.00  0.00    -0.226 NA
ATOM      4  C   UNL d   1     -49.469  14.113  22.929  0.00  0.00     0.083 A 
ATOM      5  C   UNL d   1     -49.094  14.837  23.059  0.00  0.00     0.099 A 
ATOM      6  C   UNL d   1     -50.302  14.080  22.922  0.00  0.00     0.019 A 
ATOM      7  C   UNL d   1     -49.544  15.523  23.180  0.00  0.00     0.021 A 
ATOM      8  C   UNL d   1     -50.746  14.764  23.043  0.00  0.00     0.002 A 
ATOM      9  C   UNL d   1     -50.367  15.485  23.172  0.00  0.00     0.002 A 
ENDROOT
BRANCH   2  10
ATOM     10  C   UNL d   1     -47.413  13.536  22.830  0.00  0.00     0.064 A 
ATOM     11  S   UNL d   1     -46.903  13.493  22.320  0.00  0.00    -0.083 SA
ATOM     12  C   UNL d   1     -46.309  13.107  22.447  0.00  0.00     0.035 A 
ATOM     13  C   UNL d   1     -46.217  12.765  23.070  0.00  0.00     0.008 A 
ATOM     14  C   UNL d   1     -46.726  12.808  23.579  0.00  0.00     0.010 A 
ENDBRANCH   2  10
BRANCH   1  15
ATOM     15  C   UNL d   1     -48.846  12.728  22.684  0.00  0.00     0.082 C 
BRANCH  15  16
ATOM     16  C   UNL d   1     -49.535  12.306  22.530  0.00  0.00     0.018 C 
ATOM     17  C   UNL d   1     -49.927  11.923  23.145  0.00  0.00     0.002 C 
ATOM     18  C   UNL d   1     -49.833  12.266  21.761  0.00  0.00     0.002 C 
ENDBRANCH  15  16
ENDBRANCH   1  15
TORSDOF 3
ENDMDL
MODEL 2
REMARK VINA RESULT:      -7.4      0.857      2.099
REMARK  3 active torsions:
REMARK  status: ('A' for Active; 'I' for Inactive)
REMARK    1  A    between atoms: C_8  and  N_1 
REMARK    2  A    between atoms: C_6  and  C_2 
REMARK    3  A    between atoms: C_14  and  C_8 
ROOT
ATOM      1  N   UNL d   1     -48.934  13.385  22.951  0.00  0.00    -0.289 N 
ATOM      2  C   UNL d   1     -48.270  12.886  22.970  0.00  0.00     0.154 A 
ATOM      3  N   UNL d   1     -48.519  12.143  23.219  0.00  0.00    -0.226 NA
ATOM      4  C   UNL d   1     -49.591  12.945  23.189  0.00  0.00     0.083 A 
ATOM      5  C   UNL d   1     -49.337  12.178  23.355  0.00  0.00     0.099 A 
ATOM      6  C   UNL d   1     -50.398  13.136  23.280  0.00  0.00     0.019 A 
ATOM      7  C   UNL d   1     -49.880  11.605  23.610  0.00  0.00     0.021 A 
ATOM      8  C   UNL d   1     -50.935  12.565  23.533  0.00  0.00     0.002 A 
ATOM      9  C   UNL d   1     -50.676  11.799  23.698  0.00  0.00     0.002 A 
ENDROOT
BRANCH   2  10
ATOM     10  C   UNL d   1     -47.500  13.104  22.773  0.00  0.00     0.064 A 
ATOM     11  S   UNL d   1     -47.086  13.046  22.184  0.00  0.00    -0.083 SA
ATOM     12  C   UNL d   1     -46.414  13.303  22.198  0.00  0.00     0.035 A 
ATOM     13  C   UNL d   1     -46.152  13.616  22.787  0.00  0.00     0.008 A 
ATOM     14  C   UNL d   1     -46.566  13.674  23.375  0.00  0.00     0.010 A 
ENDBRANCH   2  10
BRANCH   1  15
ATOM     15  C   UNL d   1     -48.772  14.156  22.710  0.00  0.00     0.082 C 
BRANCH  15  16
ATOM     16  C   UNL d   1     -49.384  14.704  22.653  0.00  0.00     0.018 C 
ATOM     17  C   UNL d   1     -49.563  15.186  23.296  0.00  0.00     0.002 C 
ATOM     18  C   UNL d   1     -49.816  14.770  21.953  0.00  0.00     0.002 C 
ENDBRANCH  15  16
ENDBRANCH   1  15
TORSDOF 3
ENDMDL
MODEL 3
REMARK VINA RESULT:      -7.3      1.096      3.207
REMARK  3 active torsions:
REMARK  status: ('A' for Active; 'I' for Inactive)
REMARK    1  A    between atoms: C_8  and  N_1 
REMARK    2  A    between atoms: C_6  and  C_2 
REMARK    3  A    between atoms: C_14  and  C_8 
ROOT
ATOM      1  N   UNL d   1     -48.508  13.636  22.920  0.00  0.00    -0.289 N 
ATOM      2  C   UNL d   1     -48.633  12.825  23.045  0.00  0.00     0.154 A 
ATOM      3  N   UNL d   1     -47.899  12.454  23.055  0.00  0.00    -0.226 NA
ATOM      4  C   UNL d   1     -47.695  13.762  22.853  0.00  0.00     0.083 A 
ATOM      5  C   UNL d   1     -47.317  13.034  22.937  0.00  0.00     0.099 A 
ATOM      6  C   UNL d   1     -47.237  14.448  22.727  0.00  0.00     0.019 A 
ATOM      7  C   UNL d   1     -46.489  12.987  22.895  0.00  0.00     0.021 A 
ATOM      8  C   UNL d   1     -46.415  14.397  22.686  0.00  0.00     0.002 A 
ATOM      9  C   UNL d   1     -46.042  13.666  22.770  0.00  0.00     0.002 A 
ENDROOT
BRANCH   2  10
ATOM     10  C   UNL d   1     -49.366  12.461  23.141  0.00  0.00     0.064 A 
ATOM     11  S   UNL d   1     -49.729  12.178  23.698  0.00  0.00    -0.083 SA
ATOM     12  C   UNL d   1     -50.381  11.894  23.587  0.00  0.00     0.035 A 
ATOM     13  C   UNL d   1     -50.674  11.889  22.933  0.00  0.00     0.008 A 
ATOM     14  C   UNL d   1     -50.312  12.172  22.377  0.00  0.00     0.010 A 
ENDBRANCH   2  10
BRANCH   1  15
ATOM     15  C   UNL d   1     -49.198  14.086  22.895  0.00  0.00     0.082 C 
BRANCH  15  16
ATOM     16  C   UNL d   1     -49.158  14.888  22.718  0.00  0.00     0.018 C 
ATOM     17  C   UNL d   1     -49.173  15.444  23.326  0.00  0.00     0.002 C 
ATOM     18  C   UNL d   1     -49.103  15.136  21.933  0.00  0.00     0.002 C 
ENDBRANCH  15  16
ENDBRANCH   1  15
TORSDOF 3
ENDMDL
MODEL 4
REMARK VINA RESULT:      -7.1      1.212      3.397
REMARK  3 active torsions:
REMARK  status: ('A' for Active; 'I' for Inactive)
REMARK    1  A    between atoms: C_8  and  N_1 
REMARK    2  A    between atoms: C_6  and  C_2 
REMARK    3  A    between atoms: C_14  and  C_8 
ROOT
ATOM      1  N   UNL d   1     -47.917  13.313  22.968  0.00  0.00    -0.289 N 
ATOM      2  C   UNL d   1     -48.730  13.481  22.987  0.00  0.00     0.154 A 
ATOM      3  N   UNL d   1     -49.125  12.802  23.230  0.00  0.00    -0.226 NA
ATOM      4  C   UNL d   1     -47.814  12.527  23.200  0.00  0.00     0.083 A 
ATOM      5  C   UNL d   1     -48.558  12.210  23.362  0.00  0.00     0.099 A 
ATOM      6  C   UNL d   1     -47.136  12.048  23.289  0.00  0.00     0.019 A 
ATOM      7  C   UNL d   1     -48.628  11.421  23.611  0.00  0.00     0.021 A 
ATOM      8  C   UNL d   1     -47.211  11.266  23.536  0.00  0.00     0.002 A 
ATOM      9  C   UNL d   1     -47.957  10.952  23.697  0.00  0.00     0.002 A 
ENDROOT
BRANCH   2  10
ATOM     10  C   UNL d   1     -49.076  14.204  22.794  0.00  0.00     0.064 A 
ATOM     11  S   UNL d   1     -49.290  14.524  22.183  0.00  0.00    -0.083 SA
ATOM     12  C   UNL d   1     -49.580  15.181  22.210  0.00  0.00     0.035 A 
ATOM     13  C   UNL d   1     -49.660  15.523  22.836  0.00  0.00     0.008 A 
ATOM     14  C   UNL d   1     -49.446  15.204  23.446  0.00  0.00     0.010 A 
ENDBRANCH   2  10
BRANCH   1  15
ATOM     15  C   UNL d   1     -47.446  13.946  22.732  0.00  0.00     0.082 C 
BRANCH  15  16
ATOM     16  C   UNL d   1     -46.627  13.865  22.722  0.00  0.00     0.018 C 
ATOM     17  C   UNL d   1     -46.189  14.048  23.396  0.00  0.00     0.002 C 
ATOM     18  C   UNL d   1     -46.245  13.601  22.040  0.00  0.00     0.002 C 
ENDBRANCH  15  16
ENDBRANCH   1  15
TORSDOF 3
ENDMDL
MODEL 5
REMARK VINA RESULT:      -6.9      0.977      2.987
REMARK  3 active torsions:
REMARK  status: ('A' for Active; 'I' for Inactive)
REMARK    1  A    between atoms: C_8  and  N_1 
REMARK    2  A    between atoms: C_6  and  C_2 
REMARK    3  A    between atoms: C_14  and  C_8 
ROOT
ATOM      1  N   UNL d   1     -48.401  13.459  22.939  0.00  0.00    -0.289 N 
ATOM      2  C   UNL d   1     -48.508  14.280  22.865  0.00  0.00     0.154 A 
ATOM      3  N   UNL d   1     -47.764  14.629  22.821  0.00  0.00    -0.226 NA
ATOM      4  C   UNL d   1     -47.589  13.307  22.941  0.00  0.00     0.083 A 
ATOM      5  C   UNL d   1     -47.194  14.027  22.868  0.00  0.00     0.099 A 
ATOM      6  C   UNL d   1     -47.146  12.602  22.999  0.00  0.00     0.019 A 
ATOM      7  C   UNL d   1     -46.365  14.048  22.853  0.00  0.00     0.021 A 
ATOM      8  C   UNL d   1     -46.323  12.627  22.984  0.00  0.00     0.002 A 
ATOM      9  C   UNL d   1     -45.932  13.350  22.911  0.00  0.00     0.002 A 
ENDROOT
BRANCH   2  10
ATOM     10  C   UNL d   1     -49.233  14.669  22.840  0.00  0.00     0.064 A 
ATOM     11  S   UNL d   1     -49.689  14.871  22.317  0.00  0.00    -0.083 SA
ATOM     12  C   UNL d   1     -50.297  15.214  22.492  0.00  0.00     0.035 A 
ATOM     13  C   UNL d   1     -50.456  15.357  23.176  0.00  0.00     0.008 A 
ATOM     14  C   UNL d   1     -50.001  15.156  23.698  0.00  0.00     0.010 A 
ENDBRANCH   2  10
BRANCH   1  15
ATOM     15  C   UNL d   1     -49.102  13.030  22.990  0.00  0.00     0.082 C 
BRANCH  15  16
ATOM     16  C   UNL d   1     -49.079  12.207  22.985  0.00  0.00     0.018 C 
ATOM     17  C   UNL d   1     -49.057  11.794  23.698  0.00  0.00     0.002 C 
ATOM     18  C   UNL d   1     -49.079  11.797  22.270  0.00  0.00     0.002 C 
ENDBRANCH  15  16
ENDBRANCH   1  15
TORSDOF 3
ENDMDL
MODEL 6
REMARK VINA RESULT:      -6.1      1.232      2.134
REMARK  3 active torsions:
REMARK  status: ('A' for Active; 'I' for Inactive)
REMARK    1  A    between atoms: C_8  and  N_1 
REMARK    2  A    between atoms: C_6  and  C_2 
REMARK    3  A    between atoms: C_14  and  C_8 
ROOT
ATOM      1  N   UNL d   1     -48.979  13.803  23.013  0.00  0.00    -0.289 N 
ATOM      2  C   UNL d   1     -49.277  13.041  23.152  0.00  0.00     0.154 A 
ATOM      3  N   UNL d   1     -50.047  13.116  23.430  0.00  0.00    -0.226 NA
ATOM      4  C   UNL d   1     -49.569  14.348  23.207  0.00  0.00     0.083 A 
ATOM      5  C   UNL d   1     -50.230  13.926  23.464  0.00  0.00     0.099 A 
ATOM      6  C   UNL d   1     -49.599  15.181  23.185  0.00  0.00     0.019 A 
ATOM      7  C   UNL d   1     -50.916  14.329  23.698  0.00  0.00     0.021 A 
ATOM      8  C   UNL d   1     -50.283  15.578  23.418  0.00  0.00     0.002 A 
ATOM      9  C   UNL d   1     -50.941  15.152  23.674  0.00  0.00     0.002 A 
ENDROOT
BRANCH   2  10
ATOM     10  C   UNL d   1     -48.868  12.336  23.031  0.00  0.00     0.064 A 
ATOM     11  S   UNL d   1     -48.833  11.848  22.500  0.00  0.00    -0.083 SA
ATOM     12  C   UNL d   1     -48.405  11.274  22.574  0.00  0.00     0.035 A 
ATOM     13  C   UNL d   1     -48.013  11.181  23.167  0.00  0.00     0.008 A 
ATOM     14  C   UNL d   1     -48.048  11.668  23.698  0.00  0.00     0.010 A 
ENDBRANCH   2  10
BRANCH   1  15
ATOM     15  C   UNL d   1     -48.205  13.818  22.731  0.00  0.00     0.082 C 
BRANCH  15  16
ATOM     16  C   UNL d   1     -47.881  14.525  22.462  0.00  0.00     0.018 C 
ATOM     17  C   UNL d   1     -48.070  14.802  21.709  0.00  0.00     0.002 C 
ATOM     18  C   UNL d   1     -47.368  14.956  22.944  0.00  0.00     0.002 C 
ENDBRANCH  15  16
ENDBRANCH   1  15
TORSDOF 3
ENDMDL
MODEL 7
REMARK VINA RESULT:      -5.3      8.972     10.005
REMARK  3 active torsions:
REMARK  status: ('A' for Active; 'I' for Inactive)
REMARK    1  A    between atoms: C_8  and  N_1 
REMARK    2  A    between atoms: C_6  and  C_2 
REMARK    3  A    between atoms: C_14  and  C_8 
ROOT
ATOM      1  N   UNL d   1     -39.812  14.906  18.659  0.00  0.00    -0.289 N 
ATOM      2  C   UNL d   1     -40.189  15.300  19.286  0.00  0.00     0.154 A 
ATOM      3  N   UNL d   1     -40.808  15.741  18.973  0.00  0.00    -0.226 NA
ATOM      4  C   UNL d   1     -40.202  15.108  17.960  0.00  0.00     0.083 A 
ATOM      5  C   UNL d   1     -40.817  15.623  18.151  0.00  0.00     0.099 A 
ATOM      6  C   UNL d   1     -40.083  14.892  17.163  0.00  0.00     0.019 A 
ATOM      7  C   UNL d   1     -41.311  15.922  17.555  0.00  0.00     0.021 A 
ATOM      8  C   UNL d   1     -40.575  15.191  16.574  0.00  0.00     0.002 A 
ATOM      9  C   UNL d   1     -41.189  15.706  16.770  0.00  0.00     0.002 A 
ENDROOT
BRANCH   2  10
ATOM     10  C   UNL d   1     -39.975  15.252  20.080  0.00  0.00     0.064 A 
ATOM     11  S   UNL d   1     -39.569  15.649  20.527  0.00  0.00    -0.083 SA
ATOM     12  C   UNL d   1     -39.494  15.445  21.213  0.00  0.00     0.035 A 
ATOM     13  C   UNL d   1     -39.817  14.854  21.458  0.00  0.00     0.008 A 
ATOM     14  C   UNL d   1     -40.222  14.457  21.012  0.00  0.00     0.010 A 
ENDBRANCH   2  10
BRANCH   1  15
ATOM     15  C   UNL d   1     -39.174  14.437  18.888  0.00  0.00     0.082 C 
BRANCH  15  16
ATOM     16  C   UNL d   1     -38.720  14.057  18.316  0.00  0.00     0.018 C 
ATOM     17  C   UNL d   1     -38.921  13.296  18.073  0.00  0.00     0.002 C 
ATOM     18  C   UNL d   1     -38.066  14.437  17.987  0.00  0.00     0.002 C 
ENDBRANCH  15  16
ENDBRANCH   1  15
TORSDOF 3
ENDMDL
