MODEL 1
REMARK VINA RESULT:      10.8      0.000      0.000
REMARK  7 active torsions:
REMARK  status: ('A' for Active; 'I' for Inactive)
REMARK       I    between atoms: N_2  and  C_13 
REMARK    1  A    between atoms: C_11  and  C_6 
REMARK    2  A    between atoms: C_14  and  C_7 
REMARK    3  A    between atoms: S_18  and  C_9 
REMARK    4  A    between atoms: C_13  and  C_19 
REMARK    5  A    between atoms: O_26  and  C_15 
REMARK    6  A    between atoms: C_19  and  S_18 
REMARK    7  A    between atoms: O_29  and  C_22 
ROOT
ATOM      1  N   UNL d   1      28.906  17.424 -23.899  0.00  0.00    -0.194 N 
ATOM      2  N   UNL d   1      28.120  17.377 -23.661  0.00  0.00    -0.162 NA
ATOM      3  C   UNL d   1      29.203  16.656 -23.937  0.00  0.00     0.090 A 
ATOM      4  C   UNL d   1      27.939  16.573 -23.554  0.00  0.00     0.109 A 
ATOM      5  C   UNL d   1      28.609  16.149 -23.726  0.00  0.00     0.041 A 
ATOM      6  C   UNL d   1      29.305  18.107 -24.063  0.00  0.00     0.287 C 
ATOM      7  O   UNL d   1      28.931  18.837 -23.999  0.00  0.00    -0.265 OA
ENDROOT
BRANCH   6   8
ATOM      8  C   UNL d   1      30.098  18.080 -24.297  0.00  0.00     0.100 C 
BRANCH   8   9
ATOM      9  S   UNL d   1      30.510  18.785 -24.435  0.00  0.00    -0.054 SA
BRANCH   9  10
ATOM     10  C   UNL d   1      31.056  19.069 -23.876  0.00  0.00     0.163 A 
ATOM     11  S   UNL d   1      30.982  19.781 -23.430  0.00  0.00    -0.021 SA
ATOM     12  C   UNL d   1      31.654  19.846 -22.939  0.00  0.00     0.200 A 
ATOM     13  N   UNL d   1      31.655  20.519 -22.471  0.00  0.00    -0.182 NA
ATOM     14  N   UNL d   1      32.151  19.182 -23.072  0.00  0.00    -0.204 N 
ATOM     15  C   UNL d   1      32.291  20.592 -21.999  0.00  0.00     0.281 A 
ATOM     16  O   UNL d   1      31.929  21.302 -21.745  0.00  0.00    -0.265 OA
ATOM     17  C   UNL d   1      32.999  20.129 -21.851  0.00  0.00     0.064 A 
ATOM     18  C   UNL d   1      33.226  19.380 -22.221  0.00  0.00     0.026 A 
ATOM     19  C   UNL d   1      32.790  18.960 -22.802  0.00  0.00     0.103 A 
ATOM     20  N   UNL d   1      31.780  18.699 -23.653  0.00  0.00    -0.150 NA
ENDBRANCH   9  10
ENDBRANCH   8   9
ENDBRANCH   6   8
BRANCH   3  21
ATOM     21  C   UNL d   1      29.968  16.467 -24.153  0.00  0.00     0.042 A 
ATOM     22  C   UNL d   1      30.437  16.059 -23.612  0.00  0.00     0.118 A 
ATOM     23  C   UNL d   1      31.218  15.860 -23.818  0.00  0.00     0.116 A 
ATOM     24  C   UNL d   1      31.514  16.073 -24.558  0.00  0.00     0.026 A 
ATOM     25  C   UNL d   1      31.043  16.477 -25.089  0.00  0.00     0.002 A 
ATOM     26  C   UNL d   1      30.263  16.675 -24.881  0.00  0.00     0.004 A 
BRANCH  22  27
ATOM     27  O   UNL d   1      30.144  15.846 -22.873  0.00  0.00    -0.326 OA
ATOM     28  C   UNL d   1      30.597  16.009 -22.208  0.00  0.00     0.181 C 
ENDBRANCH  22  27
BRANCH  23  29
ATOM     29  O   UNL d   1      31.685  15.453 -23.279  0.00  0.00    -0.326 OA
ATOM     30  C   UNL d   1      32.500  15.578 -23.262  0.00  0.00     0.181 C 
ENDBRANCH  23  29
ENDBRANCH   3  21
BRANCH   4  31
ATOM     31  C   UNL d   1      27.215  16.279 -23.319  0.00  0.00     0.049 A 
ATOM     32  S   UNL d   1      27.064  15.512 -23.064  0.00  0.00    -0.085 SA
ATOM     33  C   UNL d   1      26.255  15.459 -22.881  0.00  0.00     0.035 A 
ATOM     34  C   UNL d   1      25.920  16.197 -23.027  0.00  0.00     0.007 A 
ATOM     35  C   UNL d   1      26.523  16.692 -23.296  0.00  0.00     0.009 A 
ENDBRANCH   4  31
TORSDOF 7
ENDMDL
MODEL 2
REMARK VINA RESULT:      11.9      3.813      6.166
REMARK  7 active torsions:
REMARK  status: ('A' for Active; 'I' for Inactive)
REMARK       I    between atoms: N_2  and  C_13 
REMARK    1  A    between atoms: C_11  and  C_6 
REMARK    2  A    between atoms: C_14  and  C_7 
REMARK    3  A    between atoms: S_18  and  C_9 
REMARK    4  A    between atoms: C_13  and  C_19 
REMARK    5  A    between atoms: O_26  and  C_15 
REMARK    6  A    between atoms: C_19  and  S_18 
REMARK    7  A    between atoms: O_29  and  C_22 
ROOT
ATOM      1  N   UNL d   1      32.853  21.840 -22.151  0.00  0.00    -0.194 N 
ATOM      2  N   UNL d   1      32.840  22.511 -22.626  0.00  0.00    -0.162 NA
ATOM      3  C   UNL d   1      32.708  21.188 -22.635  0.00  0.00     0.090 A 
ATOM      4  C   UNL d   1      32.686  22.265 -23.404  0.00  0.00     0.109 A 
ATOM      5  C   UNL d   1      32.609  21.457 -23.391  0.00  0.00     0.041 A 
ATOM      6  C   UNL d   1      32.985  21.832 -21.354  0.00  0.00     0.287 C 
ATOM      7  O   UNL d   1      33.121  22.533 -20.946  0.00  0.00    -0.265 OA
ENDROOT
BRANCH   6   8
ATOM      8  C   UNL d   1      32.984  21.118 -20.939  0.00  0.00     0.100 C 
BRANCH   8   9
ATOM      9  S   UNL d   1      33.240  21.099 -20.151  0.00  0.00    -0.054 SA
BRANCH   9  10
ATOM     10  C   UNL d   1      32.956  21.656 -19.604  0.00  0.00     0.163 A 
ATOM     11  S   UNL d   1      33.239  21.764 -18.816  0.00  0.00    -0.021 SA
ATOM     12  C   UNL d   1      32.797  22.380 -18.467  0.00  0.00     0.200 A 
ATOM     13  N   UNL d   1      33.015  22.545 -17.695  0.00  0.00    -0.182 NA
ATOM     14  N   UNL d   1      32.238  22.662 -19.028  0.00  0.00    -0.204 N 
ATOM     15  C   UNL d   1      32.601  23.130 -17.352  0.00  0.00     0.281 A 
ATOM     16  O   UNL d   1      33.082  22.980 -16.684  0.00  0.00    -0.265 OA
ATOM     17  C   UNL d   1      31.961  23.650 -17.595  0.00  0.00     0.064 A 
ATOM     18  C   UNL d   1      31.560  23.671 -18.363  0.00  0.00     0.026 A 
ATOM     19  C   UNL d   1      31.725  23.178 -19.022  0.00  0.00     0.103 A 
ATOM     20  N   UNL d   1      32.336  22.212 -19.733  0.00  0.00    -0.150 NA
ENDBRANCH   9  10
ENDBRANCH   8   9
ENDBRANCH   6   8
BRANCH   3  21
ATOM     21  C   UNL d   1      32.676  20.416 -22.371  0.00  0.00     0.042 A 
ATOM     22  C   UNL d   1      32.644  19.812 -22.932  0.00  0.00     0.118 A 
ATOM     23  C   UNL d   1      32.611  19.021 -22.678  0.00  0.00     0.116 A 
ATOM     24  C   UNL d   1      32.611  18.848 -21.870  0.00  0.00     0.026 A 
ATOM     25  C   UNL d   1      32.643  19.452 -21.321  0.00  0.00     0.002 A 
ATOM     26  C   UNL d   1      32.676  20.242 -21.578  0.00  0.00     0.004 A 
BRANCH  22  27
ATOM     27  O   UNL d   1      32.644  19.982 -23.737  0.00  0.00    -0.326 OA
ATOM     28  C   UNL d   1      33.031  19.468 -24.247  0.00  0.00     0.181 C 
ENDBRANCH  22  27
BRANCH  23  29
ATOM     29  O   UNL d   1      32.579  18.419 -23.236  0.00  0.00    -0.326 OA
ATOM     30  C   UNL d   1      31.858  18.068 -23.425  0.00  0.00     0.181 C 
ENDBRANCH  23  29
ENDBRANCH   3  21
BRANCH   4  31
ATOM     31  C   UNL d   1      32.627  22.757 -24.053  0.00  0.00     0.049 A 
ATOM     32  S   UNL d   1      33.234  23.207 -24.376  0.00  0.00    -0.085 SA
ATOM     33  C   UNL d   1      32.926  23.621 -25.027  0.00  0.00     0.035 A 
ATOM     34  C   UNL d   1      32.131  23.417 -25.094  0.00  0.00     0.007 A 
ATOM     35  C   UNL d   1      31.961  22.884 -24.488  0.00  0.00     0.009 A 
ENDBRANCH   4  31
TORSDOF 7
ENDMDL
