MODEL 1
REMARK VINA RESULT:      60.6      0.000      0.000
REMARK  3 active torsions:
REMARK  status: ('A' for Active; 'I' for Inactive)
REMARK    1  A    between atoms: N_6  and  C_1 
REMARK       I    between atoms: C_8  and  N_6 
REMARK       I    between atoms: C_11  and  N_7 
REMARK    2  A    between atoms: C_14  and  C_8 
REMARK    3  A    between atoms: O_23  and  C_20 
ROOT
ATOM      1  C   UNL d   1     -54.729-100.897 -41.651  0.00  0.00     0.124 A 
ATOM      2  C   UNL d   1     -54.766-101.722 -41.612  0.00  0.00     0.093 A 
ATOM      3  C   UNL d   1     -54.741-101.261 -40.364  0.00  0.00     0.049 A 
ATOM      4  C   UNL d   1     -54.774-101.941 -40.804  0.00  0.00     0.021 A 
ATOM      5  S   UNL d   1     -54.714-100.607 -40.873  0.00  0.00    -0.066 SA
ATOM      6  N   UNL d   1     -54.772-102.040 -39.156  0.00  0.00    -0.272 N 
ATOM      7  C   UNL d   1     -54.740-101.304 -39.519  0.00  0.00     0.089 A 
ATOM      8  C   UNL d   1     -54.792-102.231 -42.256  0.00  0.00     0.103 C 
ATOM      9  C   UNL d   1     -54.772-102.096 -38.329  0.00  0.00     0.265 C 
ATOM     10  N   UNL d   1     -54.817-102.738 -42.895  0.00  0.00    -0.191 NA
ATOM     11  C   UNL d   1     -54.806-102.689 -40.444  0.00  0.00     0.020 A 
ATOM     12  C   UNL d   1     -54.805-102.731 -39.617  0.00  0.00     0.083 A 
ATOM     13  O   UNL d   1     -54.739-101.412 -37.873  0.00  0.00    -0.267 OA
ATOM     14  C   UNL d   1     -54.804-102.835 -37.963  0.00  0.00     0.066 C 
ENDROOT
BRANCH   1  15
ATOM     15  N   UNL d   1     -54.711-100.436 -42.343  0.00  0.00    -0.201 NA
ATOM     16  C   UNL d   1     -55.023-100.744 -43.041  0.00  0.00     0.280 C 
ATOM     17  O   UNL d   1     -55.351-101.496 -43.066  0.00  0.00    -0.265 OA
BRANCH  16  18
ATOM     18  C   UNL d   1     -55.005-100.288 -43.726  0.00  0.00     0.058 A 
ATOM     19  C   UNL d   1     -54.915-100.642 -44.454  0.00  0.00     0.007 A 
ATOM     20  C   UNL d   1     -54.897-100.181 -45.146  0.00  0.00     0.024 A 
ATOM     21  C   UNL d   1     -54.970 -99.366 -45.089  0.00  0.00     0.094 A 
ATOM     22  C   UNL d   1     -55.060 -99.005 -44.357  0.00  0.00     0.024 A 
ATOM     23  C   UNL d   1     -55.078 -99.461 -43.672  0.00  0.00     0.007 A 
BRANCH  21  24
ATOM     24  O   UNL d   1     -54.951 -98.903 -45.784  0.00  0.00    -0.328 OA
ATOM     25  C   UNL d   1     -55.645 -98.767 -46.222  0.00  0.00     0.181 C 
ENDBRANCH  21  24
ENDBRANCH  16  18
ENDBRANCH   1  15
TORSDOF 3
ENDMDL
