MODEL 1
REMARK VINA RESULT:      -4.8      0.000      0.000
REMARK  2 active torsions:
REMARK  status: ('A' for Active; 'I' for Inactive)
REMARK    1  A    between atoms: C_6  and  C_4 
REMARK    2  A    between atoms: C_7  and  C_6 
ROOT
ATOM      1  N   UNL d   1      56.636  -1.209  31.841  0.00  0.00    -0.163 NA
ATOM      2  C   UNL d   1      56.259  -1.181  32.571  0.00  0.00     0.288 A 
ATOM      3  C   UNL d   1      56.920  -0.453  31.673  0.00  0.00     0.313 A 
ATOM      4  C   UNL d   1      56.308  -0.408  32.857  0.00  0.00     0.098 A 
ATOM      5  S   UNL d   1      56.718   0.043  32.299  0.00  0.00    -0.020 SA
ATOM      6  O   UNL d   1      55.895  -1.808  32.955  0.00  0.00    -0.265 OA
ATOM      7  O   UNL d   1      57.334  -0.233  30.995  0.00  0.00    -0.258 OA
ENDROOT
BRANCH   4   8
ATOM      8  C   UNL d   1      56.164   0.182  33.420  0.00  0.00     0.075 C 
ATOM      9  C   UNL d   1      56.770   0.682  33.666  0.00  0.00     0.007 C 
BRANCH   8  10
ATOM     10  C   UNL d   1      55.408   0.273  33.739  0.00  0.00     0.211 C 
ATOM     11  O   UNL d   1      55.234  -0.047  34.479  0.00  0.00    -0.644 OA
ATOM     12  O   UNL d   1      54.826   0.680  33.325  0.00  0.00    -0.644 OA
ENDBRANCH   8  10
ENDBRANCH   4   8
TORSDOF 2
ENDMDL
MODEL 2
REMARK VINA RESULT:      -4.7      0.898      2.378
REMARK  2 active torsions:
REMARK  status: ('A' for Active; 'I' for Inactive)
REMARK    1  A    between atoms: C_6  and  C_4 
REMARK    2  A    between atoms: C_7  and  C_6 
ROOT
ATOM      1  N   UNL d   1      55.387  -0.764  33.237  0.00  0.00    -0.163 NA
ATOM      2  C   UNL d   1      56.018  -0.997  32.765  0.00  0.00     0.288 A 
ATOM      3  C   UNL d   1      55.403   0.059  33.295  0.00  0.00     0.313 A 
ATOM      4  C   UNL d   1      56.428  -0.319  32.531  0.00  0.00     0.098 A 
ATOM      5  S   UNL d   1      56.046   0.335  32.859  0.00  0.00    -0.020 SA
ATOM      6  O   UNL d   1      56.214  -1.766  32.560  0.00  0.00    -0.265 OA
ATOM      7  O   UNL d   1      54.868   0.524  33.717  0.00  0.00    -0.258 OA
ENDROOT
BRANCH   4   8
ATOM      8  C   UNL d   1      57.036   0.074  32.129  0.00  0.00     0.075 C 
ATOM      9  C   UNL d   1      57.589   0.522  32.544  0.00  0.00     0.007 C 
BRANCH   8  10
ATOM     10  C   UNL d   1      57.093   0.019  31.307  0.00  0.00     0.211 C 
ATOM     11  O   UNL d   1      56.865   0.658  30.838  0.00  0.00    -0.644 OA
ATOM     12  O   UNL d   1      57.374  -0.667  30.953  0.00  0.00    -0.644 OA
ENDBRANCH   8  10
ENDBRANCH   4   8
TORSDOF 2
ENDMDL
MODEL 3
REMARK VINA RESULT:      -4.3      1.074      1.415
REMARK  2 active torsions:
REMARK  status: ('A' for Active; 'I' for Inactive)
REMARK    1  A    between atoms: C_6  and  C_4 
REMARK    2  A    between atoms: C_7  and  C_6 
ROOT
ATOM      1  N   UNL d   1      57.704   0.388  32.093  0.00  0.00    -0.163 NA
ATOM      2  C   UNL d   1      57.361   0.332  32.839  0.00  0.00     0.288 A 
ATOM      3  C   UNL d   1      57.234  -0.040  31.566  0.00  0.00     0.313 A 
ATOM      4  C   UNL d   1      56.679  -0.130  32.775  0.00  0.00     0.098 A 
ATOM      5  S   UNL d   1      56.602  -0.360  31.985  0.00  0.00    -0.020 SA
ATOM      6  O   UNL d   1      57.642   0.673  33.529  0.00  0.00    -0.265 OA
ATOM      7  O   UNL d   1      57.376  -0.130  30.759  0.00  0.00    -0.258 OA
ENDROOT
BRANCH   4   8
ATOM      8  C   UNL d   1      56.007  -0.500  33.085  0.00  0.00     0.075 C 
ATOM      9  C   UNL d   1      55.854  -1.293  32.922  0.00  0.00     0.007 C 
BRANCH   8  10
ATOM     10  C   UNL d   1      55.483  -0.076  33.561  0.00  0.00     0.211 C 
ATOM     11  O   UNL d   1      55.577  -0.082  34.381  0.00  0.00    -0.644 OA
ATOM     12  O   UNL d   1      54.868   0.354  33.226  0.00  0.00    -0.644 OA
ENDBRANCH   8  10
ENDBRANCH   4   8
TORSDOF 2
ENDMDL
MODEL 4
REMARK VINA RESULT:      -2.7      2.180      3.855
REMARK  2 active torsions:
REMARK  status: ('A' for Active; 'I' for Inactive)
REMARK    1  A    between atoms: C_6  and  C_4 
REMARK    2  A    between atoms: C_7  and  C_6 
ROOT
ATOM      1  N   UNL d   1      57.113  -0.600  31.314  0.00  0.00    -0.163 NA
ATOM      2  C   UNL d   1      57.582  -0.840  30.683  0.00  0.00     0.288 A 
ATOM      3  C   UNL d   1      57.206   0.214  31.405  0.00  0.00     0.313 A 
ATOM      4  C   UNL d   1      57.968  -0.174  30.382  0.00  0.00     0.098 A 
ATOM      5  S   UNL d   1      57.734   0.479  30.831  0.00  0.00    -0.020 SA
ATOM      6  O   UNL d   1      57.659  -1.604  30.398  0.00  0.00    -0.265 OA
ATOM      7  O   UNL d   1      56.835   0.682  31.974  0.00  0.00    -0.258 OA
ENDROOT
BRANCH   4   8
ATOM      8  C   UNL d   1      58.480   0.207  29.855  0.00  0.00     0.075 C 
ATOM      9  C   UNL d   1      59.091   0.682  30.137  0.00  0.00     0.007 C 
BRANCH   8  10
ATOM     10  C   UNL d   1      58.381   0.113  29.041  0.00  0.00     0.211 C 
ATOM     11  O   UNL d   1      57.817   0.562  28.642  0.00  0.00    -0.644 OA
ATOM     12  O   UNL d   1      58.842  -0.426  28.625  0.00  0.00    -0.644 OA
ENDBRANCH   8  10
ENDBRANCH   4   8
TORSDOF 2
ENDMDL
MODEL 5
REMARK VINA RESULT:      -2.6      1.436      2.629
REMARK  2 active torsions:
REMARK  status: ('A' for Active; 'I' for Inactive)
REMARK    1  A    between atoms: C_6  and  C_4 
REMARK    2  A    between atoms: C_7  and  C_6 
ROOT
ATOM      1  N   UNL d   1      55.031   0.507  34.613  0.00  0.00    -0.163 NA
ATOM      2  C   UNL d   1      55.027   0.368  33.803  0.00  0.00     0.288 A 
ATOM      3  C   UNL d   1      55.811   0.455  34.876  0.00  0.00     0.313 A 
ATOM      4  C   UNL d   1      55.805   0.229  33.562  0.00  0.00     0.098 A 
ATOM      5  S   UNL d   1      56.291   0.284  34.229  0.00  0.00    -0.020 SA
ATOM      6  O   UNL d   1      54.370   0.365  33.313  0.00  0.00    -0.265 OA
ATOM      7  O   UNL d   1      56.066   0.558  35.654  0.00  0.00    -0.258 OA
ENDROOT
BRANCH   4   8
ATOM      8  C   UNL d   1      56.384   0.060  32.994  0.00  0.00     0.075 C 
ATOM      9  C   UNL d   1      57.014   0.575  32.873  0.00  0.00     0.007 C 
BRANCH   8  10
ATOM     10  C   UNL d   1      56.331  -0.631  32.544  0.00  0.00     0.211 C 
ATOM     11  O   UNL d   1      56.255  -1.361  32.921  0.00  0.00    -0.644 OA
ATOM     12  O   UNL d   1      56.354  -0.597  31.724  0.00  0.00    -0.644 OA
ENDBRANCH   8  10
ENDBRANCH   4   8
TORSDOF 2
ENDMDL
MODEL 6
REMARK VINA RESULT:      -2.4      1.842      2.449
REMARK  2 active torsions:
REMARK  status: ('A' for Active; 'I' for Inactive)
REMARK    1  A    between atoms: C_6  and  C_4 
REMARK    2  A    between atoms: C_7  and  C_6 
ROOT
ATOM      1  N   UNL d   1      58.561  -0.541  30.093  0.00  0.00    -0.163 NA
ATOM      2  C   UNL d   1      57.869  -0.853  30.407  0.00  0.00     0.288 A 
ATOM      3  C   UNL d   1      58.707   0.180  30.466  0.00  0.00     0.313 A 
ATOM      4  C   UNL d   1      57.584  -0.327  30.976  0.00  0.00     0.098 A 
ATOM      5  S   UNL d   1      58.105   0.314  31.012  0.00  0.00    -0.020 SA
ATOM      6  O   UNL d   1      57.517  -1.563  30.198  0.00  0.00    -0.265 OA
ATOM      7  O   UNL d   1      59.346   0.680  30.317  0.00  0.00    -0.258 OA
ENDROOT
BRANCH   4   8
ATOM      8  C   UNL d   1      57.040  -0.084  31.551  0.00  0.00     0.075 C 
ATOM      9  C   UNL d   1      56.735   0.681  31.541  0.00  0.00     0.007 C 
BRANCH   8  10
ATOM     10  C   UNL d   1      56.800  -0.609  32.141  0.00  0.00     0.211 C 
ATOM     11  O   UNL d   1      57.034  -0.484  32.922  0.00  0.00    -0.644 OA
ATOM     12  O   UNL d   1      56.328  -1.257  31.956  0.00  0.00    -0.644 OA
ENDBRANCH   8  10
ENDBRANCH   4   8
TORSDOF 2
ENDMDL
MODEL 7
REMARK VINA RESULT:      -2.1      4.907      5.445
REMARK  2 active torsions:
REMARK  status: ('A' for Active; 'I' for Inactive)
REMARK    1  A    between atoms: C_6  and  C_4 
REMARK    2  A    between atoms: C_7  and  C_6 
ROOT
ATOM      1  N   UNL d   1      59.913  -2.731  29.073  0.00  0.00    -0.163 NA
ATOM      2  C   UNL d   1      60.242  -1.981  29.001  0.00  0.00     0.288 A 
ATOM      3  C   UNL d   1      59.092  -2.647  29.100  0.00  0.00     0.313 A 
ATOM      4  C   UNL d   1      59.626  -1.431  28.984  0.00  0.00     0.098 A 
ATOM      5  S   UNL d   1      58.914  -1.845  29.046  0.00  0.00    -0.020 SA
ATOM      6  O   UNL d   1      61.040  -1.803  28.954  0.00  0.00    -0.265 OA
ATOM      7  O   UNL d   1      58.546  -3.261  29.171  0.00  0.00    -0.258 OA
ENDROOT
BRANCH   4   8
ATOM      8  C   UNL d   1      59.325  -0.661  28.937  0.00  0.00     0.075 C 
ATOM      9  C   UNL d   1      58.678  -0.494  28.455  0.00  0.00     0.007 C 
BRANCH   8  10
ATOM     10  C   UNL d   1      59.673  -0.053  29.373  0.00  0.00     0.211 C 
ATOM     11  O   UNL d   1      60.257   0.417  29.028  0.00  0.00    -0.644 OA
ATOM     12  O   UNL d   1      59.443   0.088  30.150  0.00  0.00    -0.644 OA
ENDBRANCH   8  10
ENDBRANCH   4   8
TORSDOF 2
ENDMDL
