MODEL 1
REMARK VINA RESULT:      -4.8      0.000      0.000
REMARK  7 active torsions:
REMARK  status: ('A' for Active; 'I' for Inactive)
REMARK    1  A    between atoms: C_9  and  N_1 
REMARK    2  A    between atoms: C_12  and  N_3 
REMARK    3  A    between atoms: N_7  and  C_11 
REMARK    4  A    between atoms: C_13  and  C_9 
REMARK    5  A    between atoms: C_21  and  C_12 
REMARK       I    between atoms: N_20  and  C_13 
REMARK    6  A    between atoms: C_23  and  N_20 
REMARK    7  A    between atoms: C_24  and  C_23 
ROOT
ATOM      1  N   UNL d   1     -46.963  12.456  22.699  0.00  0.00    -0.220 N 
ATOM      2  C   UNL d   1     -47.255  13.148  23.041  0.00  0.00     0.342 A 
ATOM      3  N   UNL d   1     -48.020  13.162  23.355  0.00  0.00    -0.258 N 
ATOM      4  C   UNL d   1     -48.197  11.794  22.984  0.00  0.00     0.102 A 
ATOM      5  C   UNL d   1     -47.436  11.779  22.671  0.00  0.00     0.276 A 
ATOM      6  C   UNL d   1     -48.489  12.486  23.326  0.00  0.00     0.079 A 
ATOM      7  S   UNL d   1     -48.783  11.218  23.035  0.00  0.00    -0.080 SA
ATOM      8  C   UNL d   1     -49.254  12.332  23.586  0.00  0.00     0.025 A 
ATOM      9  O   UNL d   1     -46.782  13.835  23.072  0.00  0.00    -0.245 OA
ATOM     10  C   UNL d   1     -49.441  11.551  23.409  0.00  0.00     0.037 A 
ATOM     11  O   UNL d   1     -47.144  11.088  22.328  0.00  0.00    -0.266 OA
ENDROOT
BRANCH   1  12
ATOM     12  C   UNL d   1     -46.195  12.445  22.384  0.00  0.00     0.150 C 
BRANCH  12  13
ATOM     13  C   UNL d   1     -45.543  12.417  22.888  0.00  0.00     0.297 C 
ATOM     14  N   UNL d   1     -44.778  12.538  22.587  0.00  0.00    -0.205 NA
ATOM     15  O   UNL d   1     -45.642  12.268  23.698  0.00  0.00    -0.264 OA
BRANCH  14  16
ATOM     16  C   UNL d   1     -44.688  12.656  21.950  0.00  0.00     0.102 C 
BRANCH  16  17
ATOM     17  C   UNL d   1     -43.924  12.868  21.686  0.00  0.00     0.019 A 
ATOM     18  C   UNL d   1     -43.793  13.647  21.430  0.00  0.00     0.002 A 
ATOM     19  C   UNL d   1     -43.035  13.870  21.164  0.00  0.00     0.000 A 
ATOM     20  C   UNL d   1     -42.433  13.319  21.159  0.00  0.00     0.000 A 
ATOM     21  C   UNL d   1     -42.564  12.539  21.415  0.00  0.00     0.000 A 
ATOM     22  C   UNL d   1     -41.673  13.551  20.890  0.00  0.00     0.000 C 
ATOM     23  C   UNL d   1     -43.312  12.314  21.679  0.00  0.00     0.002 A 
ENDBRANCH  16  17
ENDBRANCH  14  16
ENDBRANCH  12  13
ENDBRANCH   1  12
BRANCH   3  24
ATOM     24  C   UNL d   1     -48.312  13.854  23.698  0.00  0.00     0.085 C 
BRANCH  24  25
ATOM     25  C   UNL d   1     -48.681  14.421  23.230  0.00  0.00     0.019 A 
ATOM     26  C   UNL d   1     -49.481  14.589  23.338  0.00  0.00     0.025 A 
ATOM     27  C   UNL d   1     -49.851  15.157  22.870  0.00  0.00     0.127 A 
ATOM     28  C   UNL d   1     -49.419  15.559  22.291  0.00  0.00     0.024 A 
ATOM     29  C   UNL d   1     -48.619  15.392  22.183  0.00  0.00     0.002 A 
ATOM     30  C   UNL d   1     -48.250  14.824  22.651  0.00  0.00     0.002 A 
BRANCH  27  31
ATOM     31  N   UNL d   1     -50.652  15.318  22.985  0.00  0.00    -0.114 N 
ATOM     32  O   UNL d   1     -51.059  15.814  22.463  0.00  0.00    -0.532 OA
ATOM     33  O   UNL d   1     -51.052  14.983  23.627  0.00  0.00    -0.532 OA
ENDBRANCH  27  31
ENDBRANCH  24  25
ENDBRANCH   3  24
TORSDOF 7
ENDMDL
MODEL 2
REMARK VINA RESULT:      -4.7      1.337      1.756
REMARK  7 active torsions:
REMARK  status: ('A' for Active; 'I' for Inactive)
REMARK    1  A    between atoms: C_9  and  N_1 
REMARK    2  A    between atoms: C_12  and  N_3 
REMARK    3  A    between atoms: N_7  and  C_11 
REMARK    4  A    between atoms: C_13  and  C_9 
REMARK    5  A    between atoms: C_21  and  C_12 
REMARK       I    between atoms: N_20  and  C_13 
REMARK    6  A    between atoms: C_23  and  N_20 
REMARK    7  A    between atoms: C_24  and  C_23 
ROOT
ATOM      1  N   UNL d   1     -45.479  12.759  22.775  0.00  0.00    -0.220 N 
ATOM      2  C   UNL d   1     -46.034  13.340  22.960  0.00  0.00     0.342 A 
ATOM      3  N   UNL d   1     -46.770  13.124  23.268  0.00  0.00    -0.258 N 
ATOM      4  C   UNL d   1     -46.392  11.748  23.204  0.00  0.00     0.102 A 
ATOM      5  C   UNL d   1     -45.659  11.963  22.897  0.00  0.00     0.276 A 
ATOM      6  C   UNL d   1     -46.948  12.329  23.389  0.00  0.00     0.079 A 
ATOM      7  S   UNL d   1     -46.722  11.015  23.382  0.00  0.00    -0.080 SA
ATOM      8  C   UNL d   1     -47.617  11.951  23.681  0.00  0.00     0.025 A 
ATOM      9  O   UNL d   1     -45.857  14.147  22.838  0.00  0.00    -0.245 OA
ATOM     10  C   UNL d   1     -47.483  11.139  23.679  0.00  0.00     0.037 A 
ATOM     11  O   UNL d   1     -45.103  11.382  22.712  0.00  0.00    -0.266 OA
ENDROOT
BRANCH   1  12
ATOM     12  C   UNL d   1     -44.740  12.980  22.465  0.00  0.00     0.150 C 
BRANCH  12  13
ATOM     13  C   UNL d   1     -44.593  12.907  21.657  0.00  0.00     0.297 C 
ATOM     14  N   UNL d   1     -43.832  13.055  21.357  0.00  0.00    -0.205 NA
ATOM     15  O   UNL d   1     -45.200  12.688  21.136  0.00  0.00    -0.264 OA
BRANCH  14  16
ATOM     16  C   UNL d   1     -43.347  13.228  21.759  0.00  0.00     0.102 C 
BRANCH  16  17
ATOM     17  C   UNL d   1     -42.637  13.518  21.427  0.00  0.00     0.019 A 
ATOM     18  C   UNL d   1     -42.618  14.299  21.145  0.00  0.00     0.002 A 
ATOM     19  C   UNL d   1     -41.916  14.600  20.812  0.00  0.00     0.000 A 
ATOM     20  C   UNL d   1     -41.256  14.122  20.768  0.00  0.00     0.000 A 
ATOM     21  C   UNL d   1     -41.274  13.341  21.050  0.00  0.00     0.000 A 
ATOM     22  C   UNL d   1     -40.553  14.432  20.431  0.00  0.00     0.000 C 
ATOM     23  C   UNL d   1     -41.967  13.039  21.380  0.00  0.00     0.002 A 
ENDBRANCH  16  17
ENDBRANCH  14  16
ENDBRANCH  12  13
ENDBRANCH   1  12
BRANCH   3  24
ATOM     24  C   UNL d   1     -47.326  13.705  23.454  0.00  0.00     0.085 C 
BRANCH  24  25
ATOM     25  C   UNL d   1     -47.768  14.058  22.856  0.00  0.00     0.019 A 
ATOM     26  C   UNL d   1     -48.352  13.627  22.464  0.00  0.00     0.025 A 
ATOM     27  C   UNL d   1     -48.795  13.981  21.866  0.00  0.00     0.127 A 
ATOM     28  C   UNL d   1     -48.653  14.768  21.658  0.00  0.00     0.024 A 
ATOM     29  C   UNL d   1     -48.069  15.199  22.050  0.00  0.00     0.002 A 
ATOM     30  C   UNL d   1     -47.627  14.846  22.648  0.00  0.00     0.002 A 
BRANCH  27  31
ATOM     31  N   UNL d   1     -49.377  13.543  21.479  0.00  0.00    -0.114 N 
ATOM     32  O   UNL d   1     -49.168  12.933  20.961  0.00  0.00    -0.532 OA
ATOM     33  O   UNL d   1     -50.176  13.714  21.609  0.00  0.00    -0.532 OA
ENDBRANCH  27  31
ENDBRANCH  24  25
ENDBRANCH   3  24
TORSDOF 7
ENDMDL
MODEL 3
REMARK VINA RESULT:      -4.3      1.938      2.955
REMARK  7 active torsions:
REMARK  status: ('A' for Active; 'I' for Inactive)
REMARK    1  A    between atoms: C_9  and  N_1 
REMARK    2  A    between atoms: C_12  and  N_3 
REMARK    3  A    between atoms: N_7  and  C_11 
REMARK    4  A    between atoms: C_13  and  C_9 
REMARK    5  A    between atoms: C_21  and  C_12 
REMARK       I    between atoms: N_20  and  C_13 
REMARK    6  A    between atoms: C_23  and  N_20 
REMARK    7  A    between atoms: C_24  and  C_23 
ROOT
ATOM      1  N   UNL d   1     -47.050  13.816  22.934  0.00  0.00    -0.220 N 
ATOM      2  C   UNL d   1     -47.718  13.493  23.295  0.00  0.00     0.342 A 
ATOM      3  N   UNL d   1     -48.423  13.923  23.319  0.00  0.00    -0.258 N 
ATOM      4  C   UNL d   1     -47.790  14.997  22.622  0.00  0.00     0.102 A 
ATOM      5  C   UNL d   1     -47.087  14.569  22.597  0.00  0.00     0.276 A 
ATOM      6  C   UNL d   1     -48.458  14.674  22.983  0.00  0.00     0.079 A 
ATOM      7  S   UNL d   1     -47.990  15.744  22.340  0.00  0.00    -0.080 SA
ATOM      8  C   UNL d   1     -49.066  15.224  22.921  0.00  0.00     0.025 A 
ATOM      9  O   UNL d   1     -47.685  12.732  23.637  0.00  0.00    -0.245 OA
ATOM     10  C   UNL d   1     -48.783  15.887  22.525  0.00  0.00     0.037 A 
ATOM     11  O   UNL d   1     -46.420  14.892  22.237  0.00  0.00    -0.266 OA
ENDROOT
BRANCH   1  12
ATOM     12  C   UNL d   1     -46.343  13.381  22.912  0.00  0.00     0.150 C 
BRANCH  12  13
ATOM     13  C   UNL d   1     -46.238  12.793  22.342  0.00  0.00     0.297 C 
ATOM     14  N   UNL d   1     -45.744  12.144  22.500  0.00  0.00    -0.205 NA
ATOM     15  O   UNL d   1     -46.621  12.844  21.608  0.00  0.00    -0.264 OA
BRANCH  14  16
ATOM     16  C   UNL d   1     -45.437  12.094  23.075  0.00  0.00     0.102 C 
BRANCH  16  17
ATOM     17  C   UNL d   1     -44.954  11.427  23.214  0.00  0.00     0.019 A 
ATOM     18  C   UNL d   1     -44.148  11.470  23.017  0.00  0.00     0.002 A 
ATOM     19  C   UNL d   1     -43.656  10.812  23.152  0.00  0.00     0.000 A 
ATOM     20  C   UNL d   1     -43.973  10.132  23.475  0.00  0.00     0.000 A 
ATOM     21  C   UNL d   1     -44.779  10.088  23.671  0.00  0.00     0.000 A 
ATOM     22  C   UNL d   1     -43.472   9.474  23.607  0.00  0.00     0.000 C 
ATOM     23  C   UNL d   1     -45.270  10.738  23.540  0.00  0.00     0.002 A 
ENDBRANCH  16  17
ENDBRANCH  14  16
ENDBRANCH  12  13
ENDBRANCH   1  12
BRANCH   3  24
ATOM     24  C   UNL d   1     -49.091  13.600  23.680  0.00  0.00     0.085 C 
BRANCH  24  25
ATOM     25  C   UNL d   1     -49.517  13.006  23.303  0.00  0.00     0.019 A 
ATOM     26  C   UNL d   1     -49.945  13.176  22.618  0.00  0.00     0.025 A 
ATOM     27  C   UNL d   1     -50.371  12.581  22.240  0.00  0.00     0.127 A 
ATOM     28  C   UNL d   1     -50.370  11.813  22.546  0.00  0.00     0.024 A 
ATOM     29  C   UNL d   1     -49.942  11.644  23.231  0.00  0.00     0.002 A 
ATOM     30  C   UNL d   1     -49.516  12.238  23.609  0.00  0.00     0.002 A 
BRANCH  27  31
ATOM     31  N   UNL d   1     -50.796  12.759  21.555  0.00  0.00    -0.114 N 
ATOM     32  O   UNL d   1     -50.976  12.167  21.006  0.00  0.00    -0.532 OA
ATOM     33  O   UNL d   1     -51.046  13.535  21.416  0.00  0.00    -0.532 OA
ENDBRANCH  27  31
ENDBRANCH  24  25
ENDBRANCH   3  24
TORSDOF 7
ENDMDL
MODEL 4
REMARK VINA RESULT:      -4.1      5.227      9.148
REMARK  7 active torsions:
REMARK  status: ('A' for Active; 'I' for Inactive)
REMARK    1  A    between atoms: C_9  and  N_1 
REMARK    2  A    between atoms: C_12  and  N_3 
REMARK    3  A    between atoms: N_7  and  C_11 
REMARK    4  A    between atoms: C_13  and  C_9 
REMARK    5  A    between atoms: C_21  and  C_12 
REMARK       I    between atoms: N_20  and  C_13 
REMARK    6  A    between atoms: C_23  and  N_20 
REMARK    7  A    between atoms: C_24  and  C_23 
ROOT
ATOM      1  N   UNL d   1     -40.406  14.412  20.179  0.00  0.00    -0.220 N 
ATOM      2  C   UNL d   1     -40.383  14.506  19.360  0.00  0.00     0.342 A 
ATOM      3  N   UNL d   1     -39.750  14.904  19.007  0.00  0.00    -0.258 N 
ATOM      4  C   UNL d   1     -39.166  15.113  20.294  0.00  0.00     0.102 A 
ATOM      5  C   UNL d   1     -39.796  14.716  20.646  0.00  0.00     0.276 A 
ATOM      6  C   UNL d   1     -39.143  15.206  19.475  0.00  0.00     0.079 A 
ATOM      7  S   UNL d   1     -38.493  15.467  20.609  0.00  0.00    -0.080 SA
ATOM      8  C   UNL d   1     -38.456  15.618  19.289  0.00  0.00     0.025 A 
ATOM      9  O   UNL d   1     -40.997  14.200  18.884  0.00  0.00    -0.245 OA
ATOM     10  C   UNL d   1     -38.051  15.782  19.986  0.00  0.00     0.037 A 
ATOM     11  O   UNL d   1     -39.819  14.623  21.465  0.00  0.00    -0.266 OA
ENDROOT
BRANCH   1  12
ATOM     12  C   UNL d   1     -41.043  14.012  20.530  0.00  0.00     0.150 C 
BRANCH  12  13
ATOM     13  C   UNL d   1     -41.686  14.437  20.824  0.00  0.00     0.297 C 
ATOM     14  N   UNL d   1     -42.361  14.037  21.096  0.00  0.00    -0.205 NA
ATOM     15  O   UNL d   1     -41.667  15.266  20.851  0.00  0.00    -0.264 OA
BRANCH  14  16
ATOM     16  C   UNL d   1     -42.388  13.384  21.079  0.00  0.00     0.102 C 
BRANCH  16  17
ATOM     17  C   UNL d   1     -43.017  12.998  21.470  0.00  0.00     0.019 A 
ATOM     18  C   UNL d   1     -42.857  12.300  21.891  0.00  0.00     0.002 A 
ATOM     19  C   UNL d   1     -43.477  11.906  22.285  0.00  0.00     0.000 A 
ATOM     20  C   UNL d   1     -44.232  12.212  22.252  0.00  0.00     0.000 A 
ATOM     21  C   UNL d   1     -44.393  12.911  21.832  0.00  0.00     0.000 A 
ATOM     22  C   UNL d   1     -44.851  11.811  22.651  0.00  0.00     0.000 C 
ATOM     23  C   UNL d   1     -43.782  13.304  21.440  0.00  0.00     0.002 A 
ENDBRANCH  16  17
ENDBRANCH  14  16
ENDBRANCH  12  13
ENDBRANCH   1  12
BRANCH   3  24
ATOM     24  C   UNL d   1     -39.727  14.997  18.188  0.00  0.00     0.085 C 
BRANCH  24  25
ATOM     25  C   UNL d   1     -39.364  14.428  17.718  0.00  0.00     0.019 A 
ATOM     26  C   UNL d   1     -38.948  14.653  17.043  0.00  0.00     0.025 A 
ATOM     27  C   UNL d   1     -38.584  14.083  16.572  0.00  0.00     0.127 A 
ATOM     28  C   UNL d   1     -38.638  13.284  16.777  0.00  0.00     0.024 A 
ATOM     29  C   UNL d   1     -39.054  13.058  17.452  0.00  0.00     0.002 A 
ATOM     30  C   UNL d   1     -39.417  13.628  17.922  0.00  0.00     0.002 A 
BRANCH  27  31
ATOM     31  N   UNL d   1     -38.169  14.317  15.898  0.00  0.00    -0.114 N 
ATOM     32  O   UNL d   1     -37.940  13.760  15.332  0.00  0.00    -0.532 OA
ATOM     33  O   UNL d   1     -37.981  15.115  15.787  0.00  0.00    -0.532 OA
ENDBRANCH  27  31
ENDBRANCH  24  25
ENDBRANCH   3  24
TORSDOF 7
ENDMDL
MODEL 5
REMARK VINA RESULT:      -3.6      1.539      2.482
REMARK  7 active torsions:
REMARK  status: ('A' for Active; 'I' for Inactive)
REMARK    1  A    between atoms: C_9  and  N_1 
REMARK    2  A    between atoms: C_12  and  N_3 
REMARK    3  A    between atoms: N_7  and  C_11 
REMARK    4  A    between atoms: C_13  and  C_9 
REMARK    5  A    between atoms: C_21  and  C_12 
REMARK       I    between atoms: N_20  and  C_13 
REMARK    6  A    between atoms: C_23  and  N_20 
REMARK    7  A    between atoms: C_24  and  C_23 
ROOT
ATOM      1  N   UNL d   1     -47.092  14.014  22.814  0.00  0.00    -0.220 N 
ATOM      2  C   UNL d   1     -47.673  13.566  23.190  0.00  0.00     0.342 A 
ATOM      3  N   UNL d   1     -48.423  13.888  23.322  0.00  0.00    -0.258 N 
ATOM      4  C   UNL d   1     -48.007  15.106  22.701  0.00  0.00     0.102 A 
ATOM      5  C   UNL d   1     -47.260  14.785  22.570  0.00  0.00     0.276 A 
ATOM      6  C   UNL d   1     -48.588  14.658  23.077  0.00  0.00     0.079 A 
ATOM      7  S   UNL d   1     -48.329  15.843  22.524  0.00  0.00    -0.080 SA
ATOM      8  C   UNL d   1     -49.266  15.120  23.130  0.00  0.00     0.025 A 
ATOM      9  O   UNL d   1     -47.508  12.786  23.439  0.00  0.00    -0.245 OA
ATOM     10  C   UNL d   1     -49.111  15.853  22.790  0.00  0.00     0.037 A 
ATOM     11  O   UNL d   1     -46.678  15.234  22.194  0.00  0.00    -0.266 OA
ENDROOT
BRANCH   1  12
ATOM     12  C   UNL d   1     -46.340  13.687  22.683  0.00  0.00     0.150 C 
BRANCH  12  13
ATOM     13  C   UNL d   1     -46.194  13.248  22.000  0.00  0.00     0.297 C 
ATOM     14  N   UNL d   1     -45.416  13.033  21.801  0.00  0.00    -0.205 NA
ATOM     15  O   UNL d   1     -46.818  13.017  21.506  0.00  0.00    -0.264 OA
BRANCH  14  16
ATOM     16  C   UNL d   1     -44.916  13.210  22.183  0.00  0.00     0.102 C 
BRANCH  16  17
ATOM     17  C   UNL d   1     -44.139  13.135  21.886  0.00  0.00     0.019 A 
ATOM     18  C   UNL d   1     -43.801  13.779  21.486  0.00  0.00     0.002 A 
ATOM     19  C   UNL d   1     -43.026  13.717  21.186  0.00  0.00     0.000 A 
ATOM     20  C   UNL d   1     -42.611  13.022  21.289  0.00  0.00     0.000 A 
ATOM     21  C   UNL d   1     -42.948  12.377  21.689  0.00  0.00     0.000 A 
ATOM     22  C   UNL d   1     -41.832  12.965  20.984  0.00  0.00     0.000 C 
ATOM     23  C   UNL d   1     -43.715  12.435  21.988  0.00  0.00     0.002 A 
ENDBRANCH  16  17
ENDBRANCH  14  16
ENDBRANCH  12  13
ENDBRANCH   1  12
BRANCH   3  24
ATOM     24  C   UNL d   1     -49.004  13.440  23.698  0.00  0.00     0.085 C 
BRANCH  24  25
ATOM     25  C   UNL d   1     -49.391  12.841  23.288  0.00  0.00     0.019 A 
ATOM     26  C   UNL d   1     -49.753  13.002  22.565  0.00  0.00     0.025 A 
ATOM     27  C   UNL d   1     -50.141  12.401  22.154  0.00  0.00     0.127 A 
ATOM     28  C   UNL d   1     -50.167  11.637  22.468  0.00  0.00     0.024 A 
ATOM     29  C   UNL d   1     -49.805  11.476  23.192  0.00  0.00     0.002 A 
ATOM     30  C   UNL d   1     -49.418  12.076  23.602  0.00  0.00     0.002 A 
BRANCH  27  31
ATOM     31  N   UNL d   1     -50.500  12.571  21.431  0.00  0.00    -0.114 N 
ATOM     32  O   UNL d   1     -51.064  13.173  21.374  0.00  0.00    -0.532 OA
ATOM     33  O   UNL d   1     -50.296  12.136  20.758  0.00  0.00    -0.532 OA
ENDBRANCH  27  31
ENDBRANCH  24  25
ENDBRANCH   3  24
TORSDOF 7
ENDMDL
MODEL 6
REMARK VINA RESULT:      -2.2      1.777      3.401
REMARK  7 active torsions:
REMARK  status: ('A' for Active; 'I' for Inactive)
REMARK    1  A    between atoms: C_9  and  N_1 
REMARK    2  A    between atoms: C_12  and  N_3 
REMARK    3  A    between atoms: N_7  and  C_11 
REMARK    4  A    between atoms: C_13  and  C_9 
REMARK    5  A    between atoms: C_21  and  C_12 
REMARK       I    between atoms: N_20  and  C_13 
REMARK    6  A    between atoms: C_23  and  N_20 
REMARK    7  A    between atoms: C_24  and  C_23 
ROOT
ATOM      1  N   UNL d   1     -48.564  14.604  22.971  0.00  0.00    -0.220 N 
ATOM      2  C   UNL d   1     -49.009  13.969  22.690  0.00  0.00     0.342 A 
ATOM      3  N   UNL d   1     -49.835  14.014  22.683  0.00  0.00    -0.258 N 
ATOM      4  C   UNL d   1     -49.767  15.329  23.238  0.00  0.00     0.102 A 
ATOM      5  C   UNL d   1     -48.944  15.285  23.246  0.00  0.00     0.276 A 
ATOM      6  C   UNL d   1     -50.212  14.694  22.956  0.00  0.00     0.079 A 
ATOM      7  S   UNL d   1     -50.289  15.921  23.471  0.00  0.00    -0.080 SA
ATOM      8  C   UNL d   1     -51.006  14.898  23.017  0.00  0.00     0.025 A 
ATOM      9  O   UNL d   1     -48.630  13.280  22.412  0.00  0.00    -0.245 OA
ATOM     10  C   UNL d   1     -51.059  15.655  23.334  0.00  0.00     0.037 A 
ATOM     11  O   UNL d   1     -48.499  15.920  23.527  0.00  0.00    -0.266 OA
ENDROOT
BRANCH   1  12
ATOM     12  C   UNL d   1     -47.735  14.556  22.977  0.00  0.00     0.150 C 
BRANCH  12  13
ATOM     13  C   UNL d   1     -47.299  14.867  22.350  0.00  0.00     0.297 C 
ATOM     14  N   UNL d   1     -46.522  14.607  22.214  0.00  0.00    -0.205 NA
ATOM     15  O   UNL d   1     -47.629  15.442  21.851  0.00  0.00    -0.264 OA
BRANCH  14  16
ATOM     16  C   UNL d   1     -46.252  14.155  22.601  0.00  0.00     0.102 C 
BRANCH  16  17
ATOM     17  C   UNL d   1     -45.569  13.755  22.334  0.00  0.00     0.019 A 
ATOM     18  C   UNL d   1     -44.936  14.203  22.035  0.00  0.00     0.002 A 
ATOM     19  C   UNL d   1     -44.249  13.815  21.765  0.00  0.00     0.000 A 
ATOM     20  C   UNL d   1     -44.208  13.001  21.800  0.00  0.00     0.000 A 
ATOM     21  C   UNL d   1     -44.840  12.553  22.099  0.00  0.00     0.000 A 
ATOM     22  C   UNL d   1     -43.513  12.618  21.527  0.00  0.00     0.000 C 
ATOM     23  C   UNL d   1     -45.522  12.932  22.366  0.00  0.00     0.002 A 
ENDBRANCH  16  17
ENDBRANCH  14  16
ENDBRANCH  12  13
ENDBRANCH   1  12
BRANCH   3  24
ATOM     24  C   UNL d   1     -50.280  13.379  22.401  0.00  0.00     0.085 C 
BRANCH  24  25
ATOM     25  C   UNL d   1     -50.275  12.662  22.804  0.00  0.00     0.019 A 
ATOM     26  C   UNL d   1     -49.638  12.145  22.718  0.00  0.00     0.025 A 
ATOM     27  C   UNL d   1     -49.632  11.426  23.122  0.00  0.00     0.127 A 
ATOM     28  C   UNL d   1     -50.266  11.224  23.612  0.00  0.00     0.024 A 
ATOM     29  C   UNL d   1     -50.903  11.741  23.698  0.00  0.00     0.002 A 
ATOM     30  C   UNL d   1     -50.908  12.458  23.295  0.00  0.00     0.002 A 
BRANCH  27  31
ATOM     31  N   UNL d   1     -48.991  10.915  23.031  0.00  0.00    -0.114 N 
ATOM     32  O   UNL d   1     -48.548  10.676  23.687  0.00  0.00    -0.532 OA
ATOM     33  O   UNL d   1     -48.789  10.638  22.278  0.00  0.00    -0.532 OA
ENDBRANCH  27  31
ENDBRANCH  24  25
ENDBRANCH   3  24
TORSDOF 7
ENDMDL
MODEL 7
REMARK VINA RESULT:      -2.2      4.461      8.145
REMARK  7 active torsions:
REMARK  status: ('A' for Active; 'I' for Inactive)
REMARK    1  A    between atoms: C_9  and  N_1 
REMARK    2  A    between atoms: C_12  and  N_3 
REMARK    3  A    between atoms: N_7  and  C_11 
REMARK    4  A    between atoms: C_13  and  C_9 
REMARK    5  A    between atoms: C_21  and  C_12 
REMARK       I    between atoms: N_20  and  C_13 
REMARK    6  A    between atoms: C_23  and  N_20 
REMARK    7  A    between atoms: C_24  and  C_23 
ROOT
ATOM      1  N   UNL d   1     -41.416  14.287  20.390  0.00  0.00    -0.220 N 
ATOM      2  C   UNL d   1     -40.889  14.716  20.857  0.00  0.00     0.342 A 
ATOM      3  N   UNL d   1     -40.169  14.970  20.541  0.00  0.00    -0.258 N 
ATOM      4  C   UNL d   1     -40.505  14.365  19.291  0.00  0.00     0.102 A 
ATOM      5  C   UNL d   1     -41.223  14.112  19.606  0.00  0.00     0.276 A 
ATOM      6  C   UNL d   1     -39.978  14.795  19.759  0.00  0.00     0.079 A 
ATOM      7  S   UNL d   1     -40.169  14.276  18.546  0.00  0.00    -0.080 SA
ATOM      8  C   UNL d   1     -39.320  14.967  19.299  0.00  0.00     0.025 A 
ATOM      9  O   UNL d   1     -41.080  14.896  21.650  0.00  0.00    -0.245 OA
ATOM     10  C   UNL d   1     -39.431  14.650  18.549  0.00  0.00     0.037 A 
ATOM     11  O   UNL d   1     -41.750  13.682  19.138  0.00  0.00    -0.266 OA
ENDROOT
BRANCH   1  12
ATOM     12  C   UNL d   1     -42.139  14.033  20.710  0.00  0.00     0.150 C 
BRANCH  12  13
ATOM     13  C   UNL d   1     -42.189  13.300  21.085  0.00  0.00     0.297 C 
ATOM     14  N   UNL d   1     -42.908  13.052  21.421  0.00  0.00    -0.205 NA
ATOM     15  O   UNL d   1     -41.527  12.804  21.132  0.00  0.00    -0.264 OA
BRANCH  14  16
ATOM     16  C   UNL d   1     -43.437  13.435  21.390  0.00  0.00     0.102 C 
BRANCH  16  17
ATOM     17  C   UNL d   1     -44.135  13.185  21.773  0.00  0.00     0.019 A 
ATOM     18  C   UNL d   1     -44.153  12.430  22.117  0.00  0.00     0.002 A 
ATOM     19  C   UNL d   1     -44.845  12.169  22.503  0.00  0.00     0.000 A 
ATOM     20  C   UNL d   1     -45.495  12.661  22.536  0.00  0.00     0.000 A 
ATOM     21  C   UNL d   1     -45.478  13.417  22.192  0.00  0.00     0.000 A 
ATOM     22  C   UNL d   1     -46.187  12.392  22.925  0.00  0.00     0.000 C 
ATOM     23  C   UNL d   1     -44.796  13.679  21.810  0.00  0.00     0.002 A 
ENDBRANCH  16  17
ENDBRANCH  14  16
ENDBRANCH  12  13
ENDBRANCH   1  12
BRANCH   3  24
ATOM     24  C   UNL d   1     -39.642  15.400  21.009  0.00  0.00     0.085 C 
BRANCH  24  25
ATOM     25  C   UNL d   1     -39.290  15.047  21.663  0.00  0.00     0.019 A 
ATOM     26  C   UNL d   1     -38.916  14.316  21.587  0.00  0.00     0.025 A 
ATOM     27  C   UNL d   1     -38.563  13.962  22.242  0.00  0.00     0.127 A 
ATOM     28  C   UNL d   1     -38.585  14.340  22.977  0.00  0.00     0.024 A 
ATOM     29  C   UNL d   1     -38.959  15.071  23.053  0.00  0.00     0.002 A 
ATOM     30  C   UNL d   1     -39.311  15.424  22.399  0.00  0.00     0.002 A 
BRANCH  27  31
ATOM     31  N   UNL d   1     -38.191  13.231  22.157  0.00  0.00    -0.114 N 
ATOM     32  O   UNL d   1     -38.065  12.745  22.815  0.00  0.00    -0.532 OA
ATOM     33  O   UNL d   1     -37.941  12.980  21.409  0.00  0.00    -0.532 OA
ENDBRANCH  27  31
ENDBRANCH  24  25
ENDBRANCH   3  24
TORSDOF 7
ENDMDL
