MODEL 1
REMARK VINA RESULT:      -5.4      0.000      0.000
REMARK  0 active torsions:
REMARK  status: ('A' for Active; 'I' for Inactive)
ROOT
ATOM      1  C   UNL d   1      56.993  -0.731  31.445  0.00  0.00     0.286 A 
ATOM      2  N   UNL d   1      57.226  -0.000  31.241  0.00  0.00    -0.170 NA
ATOM      3  C   UNL d   1      56.505  -0.667  32.104  0.00  0.00     0.066 A 
ATOM      4  S   UNL d   1      56.909   0.556  31.741  0.00  0.00     0.017 SA
ATOM      5  C   UNL d   1      56.452   0.153  32.292  0.00  0.00     0.052 A 
ATOM      6  O   UNL d   1      57.197  -1.430  31.074  0.00  0.00    -0.265 OA
ATOM      7  C   UNL d   1      56.105  -1.224  32.555  0.00  0.00     0.005 A 
ATOM      8  C   UNL d   1      56.000   0.404  32.929  0.00  0.00     0.008 A 
ATOM      9  C   UNL d   1      55.648  -0.975  33.200  0.00  0.00     0.000 A 
ATOM     10  C   UNL d   1      55.594  -0.155  33.388  0.00  0.00     0.001 A 
ENDROOT
TORSDOF 0
ENDMDL
MODEL 2
REMARK VINA RESULT:      -5.2      1.420      1.900
REMARK  0 active torsions:
REMARK  status: ('A' for Active; 'I' for Inactive)
ROOT
ATOM      1  C   UNL d   1      55.887  -1.188  32.941  0.00  0.00     0.286 A 
ATOM      2  N   UNL d   1      55.486  -0.700  33.421  0.00  0.00    -0.170 NA
ATOM      3  C   UNL d   1      56.311  -0.728  32.408  0.00  0.00     0.066 A 
ATOM      4  S   UNL d   1      55.626   0.076  33.228  0.00  0.00     0.017 SA
ATOM      5  C   UNL d   1      56.145   0.077  32.591  0.00  0.00     0.052 A 
ATOM      6  O   UNL d   1      55.886  -2.005  32.964  0.00  0.00    -0.265 OA
ATOM      7  C   UNL d   1      56.818  -0.918  31.791  0.00  0.00     0.005 A 
ATOM      8  C   UNL d   1      56.488   0.682  32.154  0.00  0.00     0.008 A 
ATOM      9  C   UNL d   1      57.166  -0.311  31.347  0.00  0.00     0.000 A 
ATOM     10  C   UNL d   1      57.000   0.495  31.530  0.00  0.00     0.001 A 
ENDROOT
TORSDOF 0
ENDMDL
MODEL 3
REMARK VINA RESULT:      -4.0      8.399      8.839
REMARK  0 active torsions:
REMARK  status: ('A' for Active; 'I' for Inactive)
ROOT
ATOM      1  C   UNL d   1      60.098  -6.376  35.967  0.00  0.00     0.286 A 
ATOM      2  N   UNL d   1      60.889  -6.435  35.932  0.00  0.00    -0.170 NA
ATOM      3  C   UNL d   1      59.792  -7.130  36.082  0.00  0.00     0.066 A 
ATOM      4  S   UNL d   1      61.126  -7.207  36.021  0.00  0.00     0.017 SA
ATOM      5  C   UNL d   1      60.446  -7.659  36.117  0.00  0.00     0.052 A 
ATOM      6  O   UNL d   1      59.657  -5.691  35.900  0.00  0.00    -0.265 OA
ATOM      7  C   UNL d   1      59.025  -7.412  36.160  0.00  0.00     0.005 A 
ATOM      8  C   UNL d   1      60.325  -8.463  36.229  0.00  0.00     0.008 A 
ATOM      9  C   UNL d   1      58.897  -8.223  36.274  0.00  0.00     0.000 A 
ATOM     10  C   UNL d   1      59.552  -8.752  36.308  0.00  0.00     0.001 A 
ENDROOT
TORSDOF 0
ENDMDL
MODEL 4
REMARK VINA RESULT:      -3.6      1.802      2.128
REMARK  0 active torsions:
REMARK  status: ('A' for Active; 'I' for Inactive)
ROOT
ATOM      1  C   UNL d   1      57.012   0.427  33.728  0.00  0.00     0.286 A 
ATOM      2  N   UNL d   1      56.489   0.682  34.268  0.00  0.00    -0.170 NA
ATOM      3  C   UNL d   1      56.643  -0.145  33.267  0.00  0.00     0.066 A 
ATOM      4  S   UNL d   1      55.777   0.299  34.186  0.00  0.00     0.017 SA
ATOM      5  C   UNL d   1      55.856  -0.227  33.559  0.00  0.00     0.052 A 
ATOM      6  O   UNL d   1      57.783   0.682  33.637  0.00  0.00    -0.265 OA
ATOM      7  C   UNL d   1      56.900  -0.599  32.633  0.00  0.00     0.005 A 
ATOM      8  C   UNL d   1      55.339  -0.761  33.213  0.00  0.00     0.008 A 
ATOM      9  C   UNL d   1      56.380  -1.140  32.281  0.00  0.00     0.000 A 
ATOM     10  C   UNL d   1      55.594  -1.222  32.573  0.00  0.00     0.001 A 
ENDROOT
TORSDOF 0
ENDMDL
MODEL 5
REMARK VINA RESULT:      -3.5      9.024      9.427
REMARK  0 active torsions:
REMARK  status: ('A' for Active; 'I' for Inactive)
ROOT
ATOM      1  C   UNL d   1      59.573  -8.882  36.041  0.00  0.00     0.286 A 
ATOM      2  N   UNL d   1      60.239  -9.285  36.193  0.00  0.00    -0.170 NA
ATOM      3  C   UNL d   1      59.747  -8.080  36.075  0.00  0.00     0.066 A 
ATOM      4  S   UNL d   1      60.860  -8.778  36.327  0.00  0.00     0.017 SA
ATOM      5  C   UNL d   1      60.567  -8.013  36.256  0.00  0.00     0.052 A 
ATOM      6  O   UNL d   1      58.837  -9.200  35.880  0.00  0.00    -0.265 OA
ATOM      7  C   UNL d   1      59.290  -7.407  35.968  0.00  0.00     0.005 A 
ATOM      8  C   UNL d   1      60.918  -7.275  36.329  0.00  0.00     0.008 A 
ATOM      9  C   UNL d   1      59.640  -6.659  36.041  0.00  0.00     0.000 A 
ATOM     10  C   UNL d   1      60.460  -6.593  36.222  0.00  0.00     0.001 A 
ENDROOT
TORSDOF 0
ENDMDL
MODEL 6
REMARK VINA RESULT:      -2.8      1.401      2.541
REMARK  0 active torsions:
REMARK  status: ('A' for Active; 'I' for Inactive)
ROOT
ATOM      1  C   UNL d   1      56.935  -0.654  31.602  0.00  0.00     0.286 A 
ATOM      2  N   UNL d   1      56.646   0.041  31.853  0.00  0.00    -0.170 NA
ATOM      3  C   UNL d   1      57.442  -0.507  30.973  0.00  0.00     0.066 A 
ATOM      4  S   UNL d   1      56.944   0.655  31.412  0.00  0.00     0.017 SA
ATOM      5  C   UNL d   1      57.448   0.328  30.852  0.00  0.00     0.052 A 
ATOM      6  O   UNL d   1      56.764  -1.393  31.908  0.00  0.00    -0.265 OA
ATOM      7  C   UNL d   1      57.895  -0.998  30.497  0.00  0.00     0.005 A 
ATOM      8  C   UNL d   1      57.906   0.657  30.256  0.00  0.00     0.008 A 
ATOM      9  C   UNL d   1      58.360  -0.669  29.894  0.00  0.00     0.000 A 
ATOM     10  C   UNL d   1      58.365   0.165  29.773  0.00  0.00     0.001 A 
ENDROOT
TORSDOF 0
ENDMDL
MODEL 7
REMARK VINA RESULT:      -2.6      9.447      9.688
REMARK  0 active torsions:
REMARK  status: ('A' for Active; 'I' for Inactive)
ROOT
ATOM      1  C   UNL d   1      59.620  -9.442  33.420  0.00  0.00     0.286 A 
ATOM      2  N   UNL d   1      60.265  -9.656  33.011  0.00  0.00    -0.170 NA
ATOM      3  C   UNL d   1      59.868  -9.071  34.111  0.00  0.00     0.066 A 
ATOM      4  S   UNL d   1      60.943  -9.440  33.403  0.00  0.00     0.017 SA
ATOM      5  C   UNL d   1      60.711  -9.070  34.100  0.00  0.00     0.052 A 
ATOM      6  O   UNL d   1      58.841  -9.565  33.204  0.00  0.00    -0.265 OA
ATOM      7  C   UNL d   1      59.461  -8.738  34.740  0.00  0.00     0.005 A 
ATOM      8  C   UNL d   1      61.133  -8.735  34.719  0.00  0.00     0.008 A 
ATOM      9  C   UNL d   1      59.883  -8.400  35.367  0.00  0.00     0.000 A 
ATOM     10  C   UNL d   1      60.726  -8.398  35.356  0.00  0.00     0.001 A 
ENDROOT
TORSDOF 0
ENDMDL
