MODEL 1
REMARK VINA RESULT:      -7.4      0.000      0.000
REMARK  4 active torsions:
REMARK  status: ('A' for Active; 'I' for Inactive)
REMARK    1  A    between atoms: N_6  and  C_2 
REMARK    2  A    between atoms: C_7  and  C_3 
REMARK    3  A    between atoms: C_10  and  N_6 
REMARK    4  A    between atoms: O_14  and  C_11 
ROOT
ATOM      1  N   UNL d   1     -48.816  12.743  23.588  0.00  0.00    -0.221 NA
ATOM      2  C   UNL d   1     -49.619  12.580  23.651  0.00  0.00     0.194 A 
ATOM      3  C   UNL d   1     -48.422  12.029  23.597  0.00  0.00     0.090 A 
ATOM      4  S   UNL d   1     -49.696  11.769  23.697  0.00  0.00    -0.046 SA
ATOM      5  C   UNL d   1     -48.966  11.422  23.665  0.00  0.00     0.058 A 
ENDROOT
BRANCH   3   6
ATOM      6  C   UNL d   1     -47.616  11.859  23.551  0.00  0.00     0.018 A 
ATOM      7  C   UNL d   1     -47.338  11.139  23.698  0.00  0.00     0.004 A 
ATOM      8  C   UNL d   1     -46.520  10.984  23.647  0.00  0.00     0.024 A 
ATOM      9  C   UNL d   1     -46.032  11.564  23.450  0.00  0.00     0.094 A 
ATOM     10  C   UNL d   1     -46.296  12.317  23.293  0.00  0.00     0.024 A 
ATOM     11  C   UNL d   1     -47.101  12.487  23.340  0.00  0.00     0.004 A 
BRANCH   9  12
ATOM     12  O   UNL d   1     -45.198  11.393  23.401  0.00  0.00    -0.328 OA
ATOM     13  C   UNL d   1     -44.932  10.663  23.691  0.00  0.00     0.181 C 
ENDBRANCH   9  12
ENDBRANCH   3   6
BRANCH   2  14
ATOM     14  N   UNL d   1     -50.220  13.149  23.663  0.00  0.00    -0.221 NA
BRANCH  14  15
ATOM     15  C   UNL d   1     -50.397  13.568  22.985  0.00  0.00     0.084 A 
ATOM     16  C   UNL d   1     -50.124  14.349  22.879  0.00  0.00     0.019 A 
ATOM     17  C   UNL d   1     -50.299  14.790  22.187  0.00  0.00     0.002 A 
ATOM     18  C   UNL d   1     -50.755  14.439  21.593  0.00  0.00     0.000 A 
ATOM     19  C   UNL d   1     -51.038  13.633  21.699  0.00  0.00     0.002 A 
ATOM     20  C   UNL d   1     -50.862  13.210  22.380  0.00  0.00     0.019 A 
ENDBRANCH  14  15
ENDBRANCH   2  14
TORSDOF 4
ENDMDL
MODEL 2
REMARK VINA RESULT:      -7.2      1.016      1.389
REMARK  4 active torsions:
REMARK  status: ('A' for Active; 'I' for Inactive)
REMARK    1  A    between atoms: N_6  and  C_2 
REMARK    2  A    between atoms: C_7  and  C_3 
REMARK    3  A    between atoms: C_10  and  N_6 
REMARK    4  A    between atoms: O_14  and  C_11 
ROOT
ATOM      1  N   UNL d   1     -48.866  13.000  23.200  0.00  0.00    -0.221 NA
ATOM      2  C   UNL d   1     -49.580  12.602  23.119  0.00  0.00     0.194 A 
ATOM      3  C   UNL d   1     -48.284  12.518  22.895  0.00  0.00     0.090 A 
ATOM      4  S   UNL d   1     -49.416  11.885  22.766  0.00  0.00    -0.046 SA
ATOM      5  C   UNL d   1     -48.621  11.825  22.624  0.00  0.00     0.058 A 
ENDROOT
BRANCH   3   6
ATOM      6  C   UNL d   1     -47.469  12.634  22.832  0.00  0.00     0.018 A 
ATOM      7  C   UNL d   1     -46.964  12.283  23.322  0.00  0.00     0.004 A 
ATOM      8  C   UNL d   1     -46.144  12.411  23.245  0.00  0.00     0.024 A 
ATOM      9  C   UNL d   1     -45.882  12.885  22.679  0.00  0.00     0.094 A 
ATOM     10  C   UNL d   1     -46.384  13.259  22.161  0.00  0.00     0.024 A 
ATOM     11  C   UNL d   1     -47.197  13.143  22.223  0.00  0.00     0.004 A 
BRANCH   9  12
ATOM     12  O   UNL d   1     -45.041  13.007  22.610  0.00  0.00    -0.328 OA
ATOM     13  C   UNL d   1     -44.696  12.935  21.859  0.00  0.00     0.181 C 
ENDBRANCH   9  12
ENDBRANCH   3   6
BRANCH   2  14
ATOM     14  N   UNL d   1     -50.318  12.892  23.359  0.00  0.00    -0.221 NA
BRANCH  14  15
ATOM     15  C   UNL d   1     -50.549  13.643  23.138  0.00  0.00     0.084 A 
ATOM     16  C   UNL d   1     -50.824  13.800  22.366  0.00  0.00     0.019 A 
ATOM     17  C   UNL d   1     -51.064  14.567  22.128  0.00  0.00     0.002 A 
ATOM     18  C   UNL d   1     -51.028  15.187  22.676  0.00  0.00     0.000 A 
ATOM     19  C   UNL d   1     -50.745  15.028  23.473  0.00  0.00     0.002 A 
ATOM     20  C   UNL d   1     -50.512  14.274  23.696  0.00  0.00     0.019 A 
ENDBRANCH  14  15
ENDBRANCH   2  14
TORSDOF 4
ENDMDL
MODEL 3
REMARK VINA RESULT:      -5.9      9.589     10.490
REMARK  4 active torsions:
REMARK  status: ('A' for Active; 'I' for Inactive)
REMARK    1  A    between atoms: N_6  and  C_2 
REMARK    2  A    between atoms: C_7  and  C_3 
REMARK    3  A    between atoms: C_10  and  N_6 
REMARK    4  A    between atoms: O_14  and  C_11 
ROOT
ATOM      1  N   UNL d   1     -39.925  14.257  19.385  0.00  0.00    -0.221 NA
ATOM      2  C   UNL d   1     -40.245  14.420  18.646  0.00  0.00     0.194 A 
ATOM      3  C   UNL d   1     -40.032  14.920  19.847  0.00  0.00     0.090 A 
ATOM      4  S   UNL d   1     -40.541  15.180  18.676  0.00  0.00    -0.046 SA
ATOM      5  C   UNL d   1     -40.415  15.495  19.411  0.00  0.00     0.058 A 
ENDROOT
BRANCH   3   6
ATOM      6  C   UNL d   1     -39.821  15.067  20.631  0.00  0.00     0.018 A 
ATOM      7  C   UNL d   1     -39.862  15.789  20.940  0.00  0.00     0.004 A 
ATOM      8  C   UNL d   1     -39.645  15.921  21.734  0.00  0.00     0.024 A 
ATOM      9  C   UNL d   1     -39.399  15.318  22.169  0.00  0.00     0.094 A 
ATOM     10  C   UNL d   1     -39.348  14.563  21.873  0.00  0.00     0.024 A 
ATOM     11  C   UNL d   1     -39.559  14.415  21.090  0.00  0.00     0.004 A 
BRANCH   9  12
ATOM     12  O   UNL d   1     -39.180  15.466  22.980  0.00  0.00    -0.328 OA
ATOM     13  C   UNL d   1     -38.390  15.661  23.141  0.00  0.00     0.181 C 
ENDBRANCH   9  12
ENDBRANCH   3   6
BRANCH   2  14
ATOM     14  N   UNL d   1     -40.256  13.897  18.005  0.00  0.00    -0.221 NA
BRANCH  14  15
ATOM     15  C   UNL d   1     -39.591  13.813  17.538  0.00  0.00     0.084 A 
ATOM     16  C   UNL d   1     -39.051  13.190  17.668  0.00  0.00     0.019 A 
ATOM     17  C   UNL d   1     -38.365  13.093  17.195  0.00  0.00     0.002 A 
ATOM     18  C   UNL d   1     -38.220  13.632  16.583  0.00  0.00     0.000 A 
ATOM     19  C   UNL d   1     -38.775  14.275  16.448  0.00  0.00     0.002 A 
ATOM     20  C   UNL d   1     -39.444  14.361  16.915  0.00  0.00     0.019 A 
ENDBRANCH  14  15
ENDBRANCH   2  14
TORSDOF 4
ENDMDL
MODEL 4
REMARK VINA RESULT:      -5.7      9.309     10.501
REMARK  4 active torsions:
REMARK  status: ('A' for Active; 'I' for Inactive)
REMARK    1  A    between atoms: N_6  and  C_2 
REMARK    2  A    between atoms: C_7  and  C_3 
REMARK    3  A    between atoms: C_10  and  N_6 
REMARK    4  A    between atoms: O_14  and  C_11 
ROOT
ATOM      1  N   UNL d   1     -40.155  14.767  19.570  0.00  0.00    -0.221 NA
ATOM      2  C   UNL d   1     -40.562  15.248  20.097  0.00  0.00     0.194 A 
ATOM      3  C   UNL d   1     -40.132  15.156  18.854  0.00  0.00     0.090 A 
ATOM      4  S   UNL d   1     -40.778  15.921  19.689  0.00  0.00    -0.046 SA
ATOM      5  C   UNL d   1     -40.518  15.873  18.924  0.00  0.00     0.058 A 
ENDROOT
BRANCH   3   6
ATOM      6  C   UNL d   1     -39.798  14.934  18.133  0.00  0.00     0.018 A 
ATOM      7  C   UNL d   1     -40.072  14.323  17.723  0.00  0.00     0.004 A 
ATOM      8  C   UNL d   1     -39.723  14.112  16.996  0.00  0.00     0.024 A 
ATOM      9  C   UNL d   1     -39.118  14.530  16.726  0.00  0.00     0.094 A 
ATOM     10  C   UNL d   1     -38.816  15.166  17.132  0.00  0.00     0.024 A 
ATOM     11  C   UNL d   1     -39.150  15.387  17.852  0.00  0.00     0.004 A 
BRANCH   9  12
ATOM     12  O   UNL d   1     -38.769  14.304  15.981  0.00  0.00    -0.328 OA
ATOM     13  C   UNL d   1     -38.157  13.745  15.991  0.00  0.00     0.181 C 
ENDBRANCH   9  12
ENDBRANCH   3   6
BRANCH   2  14
ATOM     14  N   UNL d   1     -40.713  15.065  20.890  0.00  0.00    -0.221 NA
BRANCH  14  15
ATOM     15  C   UNL d   1     -40.105  15.080  21.434  0.00  0.00     0.084 A 
ATOM     16  C   UNL d   1     -39.840  15.799  21.765  0.00  0.00     0.019 A 
ATOM     17  C   UNL d   1     -39.216  15.827  22.324  0.00  0.00     0.002 A 
ATOM     18  C   UNL d   1     -38.851  15.120  22.553  0.00  0.00     0.000 A 
ATOM     19  C   UNL d   1     -39.122  14.377  22.214  0.00  0.00     0.002 A 
ATOM     20  C   UNL d   1     -39.734  14.360  21.668  0.00  0.00     0.019 A 
ENDBRANCH  14  15
ENDBRANCH   2  14
TORSDOF 4
ENDMDL
MODEL 5
REMARK VINA RESULT:      -5.4      9.785     10.495
REMARK  4 active torsions:
REMARK  status: ('A' for Active; 'I' for Inactive)
REMARK    1  A    between atoms: N_6  and  C_2 
REMARK    2  A    between atoms: C_7  and  C_3 
REMARK    3  A    between atoms: C_10  and  N_6 
REMARK    4  A    between atoms: O_14  and  C_11 
ROOT
ATOM      1  N   UNL d   1     -39.037  13.790  19.418  0.00  0.00    -0.221 NA
ATOM      2  C   UNL d   1     -38.707  14.120  18.742  0.00  0.00     0.194 A 
ATOM      3  C   UNL d   1     -38.562  14.001  20.047  0.00  0.00     0.090 A 
ATOM      4  S   UNL d   1     -38.037  14.524  18.975  0.00  0.00    -0.046 SA
ATOM      5  C   UNL d   1     -37.940  14.456  19.775  0.00  0.00     0.058 A 
ENDROOT
BRANCH   3   6
ATOM      6  C   UNL d   1     -38.627  13.825  20.851  0.00  0.00     0.018 A 
ATOM      7  C   UNL d   1     -39.209  14.117  21.290  0.00  0.00     0.004 A 
ATOM      8  C   UNL d   1     -39.261  13.931  22.101  0.00  0.00     0.024 A 
ATOM      9  C   UNL d   1     -38.721  13.461  22.420  0.00  0.00     0.094 A 
ATOM     10  C   UNL d   1     -38.110  13.147  21.987  0.00  0.00     0.024 A 
ATOM     11  C   UNL d   1     -38.045  13.321  21.184  0.00  0.00     0.004 A 
BRANCH   9  12
ATOM     12  O   UNL d   1     -38.785  13.277  23.251  0.00  0.00    -0.328 OA
ATOM     13  C   UNL d   1     -38.087  13.117  23.669  0.00  0.00     0.181 C 
ENDBRANCH   9  12
ENDBRANCH   3   6
BRANCH   2  14
ATOM     14  N   UNL d   1     -39.013  14.043  17.976  0.00  0.00    -0.221 NA
BRANCH  14  15
ATOM     15  C   UNL d   1     -39.553  14.589  17.699  0.00  0.00     0.084 A 
ATOM     16  C   UNL d   1     -39.301  15.314  17.369  0.00  0.00     0.019 A 
ATOM     17  C   UNL d   1     -39.846  15.882  17.081  0.00  0.00     0.002 A 
ATOM     18  C   UNL d   1     -40.657  15.719  17.124  0.00  0.00     0.000 A 
ATOM     19  C   UNL d   1     -40.918  14.973  17.463  0.00  0.00     0.002 A 
ATOM     20  C   UNL d   1     -40.378  14.423  17.743  0.00  0.00     0.019 A 
ENDBRANCH  14  15
ENDBRANCH   2  14
TORSDOF 4
ENDMDL
