MODEL 1
REMARK VINA RESULT:      -9.0      0.000      0.000
REMARK  2 active torsions:
REMARK  status: ('A' for Active; 'I' for Inactive)
REMARK    1  A    between atoms: C_6  and  C_1 
REMARK       I    between atoms: N_12  and  C_6 
REMARK    2  A    between atoms: O_15  and  C_13 
ROOT
ATOM      1  C   UNL d   1      52.046  33.609  52.938  0.00  0.00     0.101 A 
ATOM      2  C   UNL d   1      52.637  34.000  53.352  0.00  0.00     0.208 A 
ATOM      3  C   UNL d   1      52.093  32.791  52.838  0.00  0.00     0.011 A 
ATOM      4  O   UNL d   1      53.282  33.581  53.670  0.00  0.00    -0.288 OA
ATOM      5  C   UNL d   1      52.740  32.375  53.158  0.00  0.00     0.025 A 
ATOM      6  C   UNL d   1      53.315  32.760  53.561  0.00  0.00     0.102 A 
ATOM      7  N   UNL d   1      52.577  34.804  53.443  0.00  0.00    -0.121 N 
ATOM      8  C   UNL d   1      52.766  31.553  53.044  0.00  0.00     0.026 A 
ATOM      9  C   UNL d   1      53.968  32.360  53.887  0.00  0.00     0.027 A 
ATOM     10  C   UNL d   1      53.421  31.151  53.371  0.00  0.00     0.094 A 
ATOM     11  C   UNL d   1      53.999  31.537  53.776  0.00  0.00     0.026 A 
ENDROOT
BRANCH   1  12
ATOM     12  C   UNL d   1      51.413  34.035  52.628  0.00  0.00     0.283 C 
ATOM     13  O   UNL d   1      51.495  34.440  51.976  0.00  0.00    -0.265 OA
ATOM     14  N   UNL d   1      50.676  34.052  52.985  0.00  0.00    -0.205 NA
ATOM     15  C   UNL d   1      50.058  34.479  52.665  0.00  0.00     0.123 C 
ENDBRANCH   1  12
BRANCH  10  16
ATOM     16  O   UNL d   1      53.518  30.376  53.307  0.00  0.00    -0.328 OA
ATOM     17  C   UNL d   1      53.205  29.760  53.802  0.00  0.00     0.181 C 
ENDBRANCH  10  16
TORSDOF 2
ENDMDL
MODEL 2
REMARK VINA RESULT:      -8.9      1.668      2.623
REMARK  2 active torsions:
REMARK  status: ('A' for Active; 'I' for Inactive)
REMARK    1  A    between atoms: C_6  and  C_1 
REMARK       I    between atoms: N_12  and  C_6 
REMARK    2  A    between atoms: O_15  and  C_13 
ROOT
ATOM      1  C   UNL d   1      53.783  32.780  54.171  0.00  0.00     0.101 A 
ATOM      2  C   UNL d   1      53.373  32.994  53.495  0.00  0.00     0.208 A 
ATOM      3  C   UNL d   1      53.838  31.982  54.377  0.00  0.00     0.011 A 
ATOM      4  O   UNL d   1      53.013  32.418  53.014  0.00  0.00    -0.288 OA
ATOM      5  C   UNL d   1      53.477  31.408  53.894  0.00  0.00     0.025 A 
ATOM      6  C   UNL d   1      53.077  31.621  53.234  0.00  0.00     0.102 A 
ATOM      7  N   UNL d   1      53.326  33.782  53.305  0.00  0.00    -0.121 N 
ATOM      8  C   UNL d   1      53.546  30.612  54.121  0.00  0.00     0.026 A 
ATOM      9  C   UNL d   1      52.710  31.061  52.740  0.00  0.00     0.027 A 
ATOM     10  C   UNL d   1      53.178  30.049  53.626  0.00  0.00     0.094 A 
ATOM     11  C   UNL d   1      52.777  30.263  52.963  0.00  0.00     0.026 A 
ENDROOT
BRANCH   1  12
ATOM     12  C   UNL d   1      54.134  33.360  54.639  0.00  0.00     0.283 C 
ATOM     13  O   UNL d   1      53.702  33.892  54.994  0.00  0.00    -0.265 OA
ATOM     14  N   UNL d   1      54.945  33.404  54.750  0.00  0.00    -0.205 NA
ATOM     15  C   UNL d   1      55.278  33.985  55.216  0.00  0.00     0.123 C 
ENDBRANCH   1  12
BRANCH  10  16
ATOM     16  O   UNL d   1      53.198  29.279  53.771  0.00  0.00    -0.328 OA
ATOM     17  C   UNL d   1      53.271  28.883  54.519  0.00  0.00     0.181 C 
ENDBRANCH  10  16
TORSDOF 2
ENDMDL
MODEL 3
REMARK VINA RESULT:      -8.4      1.745      3.203
REMARK  2 active torsions:
REMARK  status: ('A' for Active; 'I' for Inactive)
REMARK    1  A    between atoms: C_6  and  C_1 
REMARK       I    between atoms: N_12  and  C_6 
REMARK    2  A    between atoms: O_15  and  C_13 
ROOT
ATOM      1  C   UNL d   1      52.998  31.804  53.349  0.00  0.00     0.101 A 
ATOM      2  C   UNL d   1      52.397  32.351  53.239  0.00  0.00     0.208 A 
ATOM      3  C   UNL d   1      53.654  32.009  53.806  0.00  0.00     0.011 A 
ATOM      4  O   UNL d   1      52.442  33.108  53.581  0.00  0.00    -0.288 OA
ATOM      5  C   UNL d   1      53.696  32.768  54.147  0.00  0.00     0.025 A 
ATOM      6  C   UNL d   1      53.108  33.299  54.037  0.00  0.00     0.102 A 
ATOM      7  N   UNL d   1      51.757  32.136  52.788  0.00  0.00    -0.121 N 
ATOM      8  C   UNL d   1      54.366  32.951  54.602  0.00  0.00     0.026 A 
ATOM      9  C   UNL d   1      53.133  34.061  54.370  0.00  0.00     0.027 A 
ATOM     10  C   UNL d   1      54.393  33.715  54.937  0.00  0.00     0.094 A 
ATOM     11  C   UNL d   1      53.802  34.249  54.827  0.00  0.00     0.026 A 
ENDROOT
BRANCH   1  12
ATOM     12  C   UNL d   1      52.941  31.058  53.005  0.00  0.00     0.283 C 
ATOM     13  O   UNL d   1      52.920  30.982  52.237  0.00  0.00    -0.265 OA
ATOM     14  N   UNL d   1      52.905  30.370  53.448  0.00  0.00    -0.205 NA
ATOM     15  C   UNL d   1      52.850  29.638  53.091  0.00  0.00     0.123 C 
ENDBRANCH   1  12
BRANCH  10  16
ATOM     16  O   UNL d   1      54.991  33.964  55.379  0.00  0.00    -0.328 OA
ATOM     17  C   UNL d   1      55.797  34.105  55.149  0.00  0.00     0.181 C 
ENDBRANCH  10  16
TORSDOF 2
ENDMDL
MODEL 4
REMARK VINA RESULT:      -8.3      1.364      3.432
REMARK  2 active torsions:
REMARK  status: ('A' for Active; 'I' for Inactive)
REMARK    1  A    between atoms: C_6  and  C_1 
REMARK       I    between atoms: N_12  and  C_6 
REMARK    2  A    between atoms: O_15  and  C_13 
ROOT
ATOM      1  C   UNL d   1      53.342  32.204  53.542  0.00  0.00     0.101 A 
ATOM      2  C   UNL d   1      53.729  32.762  54.001  0.00  0.00     0.208 A 
ATOM      3  C   UNL d   1      52.672  32.425  53.112  0.00  0.00     0.011 A 
ATOM      4  O   UNL d   1      53.454  33.547  54.039  0.00  0.00    -0.288 OA
ATOM      5  C   UNL d   1      52.400  33.212  53.153  0.00  0.00     0.025 A 
ATOM      6  C   UNL d   1      52.780  33.754  53.602  0.00  0.00     0.102 A 
ATOM      7  N   UNL d   1      54.385  32.531  54.418  0.00  0.00    -0.121 N 
ATOM      8  C   UNL d   1      51.725  33.411  52.712  0.00  0.00     0.026 A 
ATOM      9  C   UNL d   1      52.523  34.544  53.653  0.00  0.00     0.027 A 
ATOM     10  C   UNL d   1      51.465  34.203  52.763  0.00  0.00     0.094 A 
ATOM     11  C   UNL d   1      51.847  34.748  53.214  0.00  0.00     0.026 A 
ENDROOT
BRANCH   1  12
ATOM     12  C   UNL d   1      53.623  31.431  53.513  0.00  0.00     0.283 C 
ATOM     13  O   UNL d   1      54.352  31.287  53.303  0.00  0.00    -0.265 OA
ATOM     14  N   UNL d   1      53.156  30.785  53.701  0.00  0.00    -0.205 NA
ATOM     15  C   UNL d   1      53.450  30.024  53.667  0.00  0.00     0.123 C 
ENDBRANCH   1  12
BRANCH  10  16
ATOM     16  O   UNL d   1      50.837  34.469  52.378  0.00  0.00    -0.328 OA
ATOM     17  C   UNL d   1      50.025  34.474  52.627  0.00  0.00     0.181 C 
ENDBRANCH  10  16
TORSDOF 2
ENDMDL
MODEL 5
REMARK VINA RESULT:      -8.1      1.675      3.629
REMARK  2 active torsions:
REMARK  status: ('A' for Active; 'I' for Inactive)
REMARK    1  A    between atoms: C_6  and  C_1 
REMARK       I    between atoms: N_12  and  C_6 
REMARK    2  A    between atoms: O_15  and  C_13 
ROOT
ATOM      1  C   UNL d   1      53.586  33.135  54.267  0.00  0.00     0.101 A 
ATOM      2  C   UNL d   1      53.569  32.501  53.747  0.00  0.00     0.208 A 
ATOM      3  C   UNL d   1      53.013  33.726  54.204  0.00  0.00     0.011 A 
ATOM      4  O   UNL d   1      52.983  32.448  53.158  0.00  0.00    -0.288 OA
ATOM      5  C   UNL d   1      52.428  33.670  53.614  0.00  0.00     0.025 A 
ATOM      6  C   UNL d   1      52.415  33.050  53.108  0.00  0.00     0.102 A 
ATOM      7  N   UNL d   1      54.138  31.927  53.820  0.00  0.00    -0.121 N 
ATOM      8  C   UNL d   1      51.863  34.277  53.570  0.00  0.00     0.026 A 
ATOM      9  C   UNL d   1      51.838  32.978  52.513  0.00  0.00     0.027 A 
ATOM     10  C   UNL d   1      51.283  34.206  52.973  0.00  0.00     0.094 A 
ATOM     11  C   UNL d   1      51.270  33.583  52.465  0.00  0.00     0.026 A 
ENDROOT
BRANCH   1  12
ATOM     12  C   UNL d   1      54.171  33.176  54.845  0.00  0.00     0.283 C 
ATOM     13  O   UNL d   1      54.167  32.685  55.441  0.00  0.00    -0.265 OA
ATOM     14  N   UNL d   1      54.776  33.727  54.821  0.00  0.00    -0.205 NA
ATOM     15  C   UNL d   1      55.349  33.754  55.401  0.00  0.00     0.123 C 
ENDBRANCH   1  12
BRANCH  10  16
ATOM     16  O   UNL d   1      50.716  34.736  52.867  0.00  0.00    -0.328 OA
ATOM     17  C   UNL d   1      49.876  34.613  52.827  0.00  0.00     0.181 C 
ENDBRANCH  10  16
TORSDOF 2
ENDMDL
MODEL 6
REMARK VINA RESULT:      -8.0      1.250      2.228
REMARK  2 active torsions:
REMARK  status: ('A' for Active; 'I' for Inactive)
REMARK    1  A    between atoms: C_6  and  C_1 
REMARK       I    between atoms: N_12  and  C_6 
REMARK    2  A    between atoms: O_15  and  C_13 
ROOT
ATOM      1  C   UNL d   1      52.012  33.604  53.140  0.00  0.00     0.101 A 
ATOM      2  C   UNL d   1      52.123  32.796  53.059  0.00  0.00     0.208 A 
ATOM      3  C   UNL d   1      52.522  34.037  53.624  0.00  0.00     0.011 A 
ATOM      4  O   UNL d   1      52.742  32.408  53.458  0.00  0.00    -0.288 OA
ATOM      5  C   UNL d   1      53.141  33.646  54.022  0.00  0.00     0.025 A 
ATOM      6  C   UNL d   1      53.246  32.857  53.940  0.00  0.00     0.102 A 
ATOM      7  N   UNL d   1      51.614  32.383  52.580  0.00  0.00    -0.121 N 
ATOM      8  C   UNL d   1      53.640  34.102  54.503  0.00  0.00     0.026 A 
ATOM      9  C   UNL d   1      53.858  32.450  54.330  0.00  0.00     0.027 A 
ATOM     10  C   UNL d   1      54.256  33.695  54.896  0.00  0.00     0.094 A 
ATOM     11  C   UNL d   1      54.361  32.902  54.813  0.00  0.00     0.026 A 
ENDROOT
BRANCH   1  12
ATOM     12  C   UNL d   1      51.396  33.976  52.740  0.00  0.00     0.283 C 
ATOM     13  O   UNL d   1      51.477  34.181  52.000  0.00  0.00    -0.265 OA
ATOM     14  N   UNL d   1      50.678  34.146  53.096  0.00  0.00    -0.205 NA
ATOM     15  C   UNL d   1      50.078  34.515  52.685  0.00  0.00     0.123 C 
ENDBRANCH   1  12
BRANCH  10  16
ATOM     16  O   UNL d   1      54.769  34.054  55.367  0.00  0.00    -0.328 OA
ATOM     17  C   UNL d   1      55.617  34.065  55.316  0.00  0.00     0.181 C 
ENDBRANCH  10  16
TORSDOF 2
ENDMDL
MODEL 7
REMARK VINA RESULT:      -7.1      1.450      2.658
REMARK  2 active torsions:
REMARK  status: ('A' for Active; 'I' for Inactive)
REMARK    1  A    between atoms: C_6  and  C_1 
REMARK       I    between atoms: N_12  and  C_6 
REMARK    2  A    between atoms: O_15  and  C_13 
ROOT
ATOM      1  C   UNL d   1      53.837  33.631  54.415  0.00  0.00     0.101 A 
ATOM      2  C   UNL d   1      53.279  34.045  53.979  0.00  0.00     0.208 A 
ATOM      3  C   UNL d   1      53.900  32.813  54.322  0.00  0.00     0.011 A 
ATOM      4  O   UNL d   1      52.778  33.650  53.445  0.00  0.00    -0.288 OA
ATOM      5  C   UNL d   1      53.396  32.421  53.786  0.00  0.00     0.025 A 
ATOM      6  C   UNL d   1      52.853  32.828  53.362  0.00  0.00     0.102 A 
ATOM      7  N   UNL d   1      53.228  34.848  54.080  0.00  0.00    -0.121 N 
ATOM      8  C   UNL d   1      53.478  31.598  53.710  0.00  0.00     0.026 A 
ATOM      9  C   UNL d   1      52.343  32.453  52.823  0.00  0.00     0.027 A 
ATOM     10  C   UNL d   1      52.966  31.220  53.169  0.00  0.00     0.094 A 
ATOM     11  C   UNL d   1      52.421  31.629  52.743  0.00  0.00     0.026 A 
ENDROOT
BRANCH   1  12
ATOM     12  C   UNL d   1      54.327  34.033  54.940  0.00  0.00     0.283 C 
ATOM     13  O   UNL d   1      54.067  34.650  55.324  0.00  0.00    -0.265 OA
ATOM     14  N   UNL d   1      55.101  33.807  55.082  0.00  0.00    -0.205 NA
ATOM     15  C   UNL d   1      55.574  34.216  55.606  0.00  0.00     0.123 C 
ENDBRANCH   1  12
BRANCH  10  16
ATOM     16  O   UNL d   1      52.981  30.447  53.040  0.00  0.00    -0.328 OA
ATOM     17  C   UNL d   1      52.867  30.030  52.309  0.00  0.00     0.181 C 
ENDBRANCH  10  16
TORSDOF 2
ENDMDL
