MODEL 1
REMARK VINA RESULT:      -4.3      0.000      0.000
REMARK  4 active torsions:
REMARK  status: ('A' for Active; 'I' for Inactive)
REMARK    1  A    between atoms: O_2  and  C_1 
REMARK       I    between atoms: N_6  and  C_1 
REMARK    2  A    between atoms: C_3  and  O_2 
REMARK    3  A    between atoms: C_14  and  N_6 
REMARK    4  A    between atoms: C_15  and  N_6 
ROOT
ATOM      1  C   UNL d   1      57.982  -0.359  30.298  0.00  0.00     0.105 A 
ATOM      2  C   UNL d   1      58.355  -0.911  29.810  0.00  0.00     0.024 A 
ATOM      3  C   UNL d   1      58.841  -0.676  29.206  0.00  0.00     0.013 A 
ATOM      4  C   UNL d   1      58.969   0.118  29.071  0.00  0.00     0.058 A 
ATOM      5  C   UNL d   1      58.121   0.447  30.150  0.00  0.00     0.026 A 
ATOM      6  C   UNL d   1      58.607   0.682  29.546  0.00  0.00     0.013 A 
ATOM      7 CL   UNL d   1      59.465   0.366  28.456  0.00  0.00    -0.082 Cl
ATOM      8  C   UNL d   1      58.216  -1.716  29.958  0.00  0.00     0.002 A 
ATOM      9  C   UNL d   1      59.203  -1.239  28.732  0.00  0.00     0.001 A 
ATOM     10  C   UNL d   1      59.078  -2.053  28.862  0.00  0.00     0.000 A 
ATOM     11  C   UNL d   1      58.592  -2.288  29.466  0.00  0.00     0.000 A 
ENDROOT
BRANCH   1  12
ATOM     12  O   UNL d   1      57.491  -0.588  30.909  0.00  0.00    -0.259 OA
BRANCH  12  13
ATOM     13  C   UNL d   1      57.346  -0.067  31.540  0.00  0.00     0.377 C 
ATOM     14  N   UNL d   1      56.758  -0.271  32.121  0.00  0.00    -0.252 N 
ATOM     15  O   UNL d   1      57.752   0.639  31.620  0.00  0.00    -0.237 OA
BRANCH  14  16
ATOM     16  C   UNL d   1      56.612   0.243  32.747  0.00  0.00     0.085 C 
ATOM     17  C   UNL d   1      55.836   0.511  32.884  0.00  0.00     0.021 C 
ENDBRANCH  14  16
BRANCH  14  18
ATOM     18  C   UNL d   1      56.348  -0.968  32.054  0.00  0.00     0.085 C 
ATOM     19  C   UNL d   1      56.088  -1.364  32.738  0.00  0.00     0.021 C 
ENDBRANCH  14  18
ENDBRANCH  12  13
ENDBRANCH   1  12
TORSDOF 4
ENDMDL
MODEL 2
REMARK VINA RESULT:      -3.6      1.935      4.240
REMARK  4 active torsions:
REMARK  status: ('A' for Active; 'I' for Inactive)
REMARK    1  A    between atoms: O_2  and  C_1 
REMARK       I    between atoms: N_6  and  C_1 
REMARK    2  A    between atoms: C_3  and  O_2 
REMARK    3  A    between atoms: C_14  and  N_6 
REMARK    4  A    between atoms: C_15  and  N_6 
ROOT
ATOM      1  C   UNL d   1      57.058  -0.467  32.061  0.00  0.00     0.105 A 
ATOM      2  C   UNL d   1      56.862  -0.218  32.823  0.00  0.00     0.024 A 
ATOM      3  C   UNL d   1      56.275  -0.583  33.245  0.00  0.00     0.013 A 
ATOM      4  C   UNL d   1      55.866  -1.208  32.919  0.00  0.00     0.058 A 
ATOM      5  C   UNL d   1      56.634  -1.105  31.739  0.00  0.00     0.026 A 
ATOM      6  C   UNL d   1      56.047  -1.470  32.161  0.00  0.00     0.013 A 
ATOM      7 CL   UNL d   1      55.264  -1.586  33.344  0.00  0.00    -0.082 Cl
ATOM      8  C   UNL d   1      57.286   0.419  33.144  0.00  0.00     0.002 A 
ATOM      9  C   UNL d   1      56.094  -0.322  34.002  0.00  0.00     0.001 A 
ATOM     10  C   UNL d   1      56.507   0.317  34.344  0.00  0.00     0.000 A 
ATOM     11  C   UNL d   1      57.094   0.681  33.922  0.00  0.00     0.000 A 
ENDROOT
BRANCH   1  12
ATOM     12  O   UNL d   1      57.649  -0.104  31.629  0.00  0.00    -0.259 OA
BRANCH  12  13
ATOM     13  C   UNL d   1      57.800  -0.349  30.849  0.00  0.00     0.377 C 
ATOM     14  N   UNL d   1      58.402   0.049  30.398  0.00  0.00    -0.252 N 
ATOM     15  O   UNL d   1      57.386  -0.963  30.501  0.00  0.00    -0.237 OA
BRANCH  14  16
ATOM     16  C   UNL d   1      58.555  -0.191  29.625  0.00  0.00     0.085 C 
ATOM     17  C   UNL d   1      58.577   0.376  29.017  0.00  0.00     0.021 C 
ENDBRANCH  14  16
BRANCH  14  18
ATOM     18  C   UNL d   1      58.821   0.659  30.731  0.00  0.00     0.085 C 
ATOM     19  C   UNL d   1      59.649   0.682  30.660  0.00  0.00     0.021 C 
ENDBRANCH  14  18
ENDBRANCH  12  13
ENDBRANCH   1  12
TORSDOF 4
ENDMDL
MODEL 3
REMARK VINA RESULT:      -3.2      1.282      1.888
REMARK  4 active torsions:
REMARK  status: ('A' for Active; 'I' for Inactive)
REMARK    1  A    between atoms: O_2  and  C_1 
REMARK       I    between atoms: N_6  and  C_1 
REMARK    2  A    between atoms: C_3  and  O_2 
REMARK    3  A    between atoms: C_14  and  N_6 
REMARK    4  A    between atoms: C_15  and  N_6 
ROOT
ATOM      1  C   UNL d   1      58.192   0.494  30.790  0.00  0.00     0.105 A 
ATOM      2  C   UNL d   1      59.013   0.557  30.740  0.00  0.00     0.024 A 
ATOM      3  C   UNL d   1      59.387   0.612  30.023  0.00  0.00     0.013 A 
ATOM      4  C   UNL d   1      58.951   0.604  29.334  0.00  0.00     0.058 A 
ATOM      5  C   UNL d   1      57.758   0.488  30.081  0.00  0.00     0.026 A 
ATOM      6  C   UNL d   1      58.132   0.542  29.364  0.00  0.00     0.013 A 
ATOM      7 CL   UNL d   1      59.325   0.660  28.598  0.00  0.00    -0.082 Cl
ATOM      8  C   UNL d   1      59.446   0.563  31.448  0.00  0.00     0.002 A 
ATOM      9  C   UNL d   1      60.204   0.674  29.993  0.00  0.00     0.001 A 
ATOM     10  C   UNL d   1      60.659   0.682  30.692  0.00  0.00     0.000 A 
ATOM     11  C   UNL d   1      60.285   0.628  31.408  0.00  0.00     0.000 A 
ENDROOT
BRANCH   1  12
ATOM     12  O   UNL d   1      57.808   0.439  31.509  0.00  0.00    -0.259 OA
BRANCH  12  13
ATOM     13  C   UNL d   1      57.234  -0.150  31.626  0.00  0.00     0.377 C 
ATOM     14  N   UNL d   1      56.677  -0.066  32.264  0.00  0.00    -0.252 N 
ATOM     15  O   UNL d   1      57.187  -0.811  31.146  0.00  0.00    -0.237 OA
BRANCH  14  16
ATOM     16  C   UNL d   1      56.106  -0.648  32.383  0.00  0.00     0.085 C 
ATOM     17  C   UNL d   1      56.223  -1.220  32.976  0.00  0.00     0.021 C 
ENDBRANCH  14  16
BRANCH  14  18
ATOM     18  C   UNL d   1      56.711   0.583  32.749  0.00  0.00     0.085 C 
ATOM     19  C   UNL d   1      56.158   0.672  33.365  0.00  0.00     0.021 C 
ENDBRANCH  14  18
ENDBRANCH  12  13
ENDBRANCH   1  12
TORSDOF 4
ENDMDL
MODEL 4
REMARK VINA RESULT:      -1.8      2.481      3.671
REMARK  4 active torsions:
REMARK  status: ('A' for Active; 'I' for Inactive)
REMARK    1  A    between atoms: O_2  and  C_1 
REMARK       I    between atoms: N_6  and  C_1 
REMARK    2  A    between atoms: C_3  and  O_2 
REMARK    3  A    between atoms: C_14  and  N_6 
REMARK    4  A    between atoms: C_15  and  N_6 
ROOT
ATOM      1  C   UNL d   1      59.205  -2.338  28.731  0.00  0.00     0.105 A 
ATOM      2  C   UNL d   1      59.757  -2.945  28.640  0.00  0.00     0.024 A 
ATOM      3  C   UNL d   1      59.522  -3.715  28.549  0.00  0.00     0.013 A 
ATOM      4  C   UNL d   1      58.728  -3.902  28.547  0.00  0.00     0.058 A 
ATOM      5  C   UNL d   1      58.399  -2.541  28.727  0.00  0.00     0.026 A 
ATOM      6  C   UNL d   1      58.164  -3.311  28.637  0.00  0.00     0.013 A 
ATOM      7 CL   UNL d   1      58.481  -4.687  28.455  0.00  0.00    -0.082 Cl
ATOM      8  C   UNL d   1      60.561  -2.741  28.644  0.00  0.00     0.002 A 
ATOM      9  C   UNL d   1      60.085  -4.305  28.460  0.00  0.00     0.001 A 
ATOM     10  C   UNL d   1      60.899  -4.123  28.461  0.00  0.00     0.000 A 
ATOM     11  C   UNL d   1      61.133  -3.353  28.551  0.00  0.00     0.000 A 
ENDROOT
BRANCH   1  12
ATOM     12  O   UNL d   1      59.433  -1.559  28.823  0.00  0.00    -0.259 OA
BRANCH  12  13
ATOM     13  C   UNL d   1      59.045  -1.077  29.377  0.00  0.00     0.377 C 
ATOM     14  N   UNL d   1      59.189  -0.238  29.371  0.00  0.00    -0.252 N 
ATOM     15  O   UNL d   1      58.526  -1.385  29.930  0.00  0.00    -0.237 OA
BRANCH  14  16
ATOM     16  C   UNL d   1      58.805   0.242  29.920  0.00  0.00     0.085 C 
ATOM     17  C   UNL d   1      58.128   0.666  29.688  0.00  0.00     0.021 C 
ENDBRANCH  14  16
BRANCH  14  18
ATOM     18  C   UNL d   1      59.701   0.081  28.829  0.00  0.00     0.085 C 
ATOM     19  C   UNL d   1      60.380   0.487  29.088  0.00  0.00     0.021 C 
ENDBRANCH  14  18
ENDBRANCH  12  13
ENDBRANCH   1  12
TORSDOF 4
ENDMDL
MODEL 5
REMARK VINA RESULT:      -1.8      3.072      4.036
REMARK  4 active torsions:
REMARK  status: ('A' for Active; 'I' for Inactive)
REMARK    1  A    between atoms: O_2  and  C_1 
REMARK       I    between atoms: N_6  and  C_1 
REMARK    2  A    between atoms: C_3  and  O_2 
REMARK    3  A    between atoms: C_14  and  N_6 
REMARK    4  A    between atoms: C_15  and  N_6 
ROOT
ATOM      1  C   UNL d   1      59.960  -2.561  28.624  0.00  0.00     0.105 A 
ATOM      2  C   UNL d   1      59.506  -3.248  28.569  0.00  0.00     0.024 A 
ATOM      3  C   UNL d   1      59.852  -3.980  28.563  0.00  0.00     0.013 A 
ATOM      4  C   UNL d   1      60.663  -4.048  28.613  0.00  0.00     0.058 A 
ATOM      5  C   UNL d   1      60.786  -2.644  28.674  0.00  0.00     0.026 A 
ATOM      6  C   UNL d   1      61.132  -3.376  28.668  0.00  0.00     0.013 A 
ATOM      7 CL   UNL d   1      61.024  -4.794  28.608  0.00  0.00    -0.082 Cl
ATOM      8  C   UNL d   1      58.681  -3.165  28.519  0.00  0.00     0.002 A 
ATOM      9  C   UNL d   1      59.384  -4.652  28.508  0.00  0.00     0.001 A 
ATOM     10  C   UNL d   1      58.554  -4.592  28.457  0.00  0.00     0.000 A 
ATOM     11  C   UNL d   1      58.208  -3.860  28.462  0.00  0.00     0.000 A 
ENDROOT
BRANCH   1  12
ATOM     12  O   UNL d   1      59.618  -1.819  28.630  0.00  0.00    -0.259 OA
BRANCH  12  13
ATOM     13  C   UNL d   1      60.079  -1.154  28.819  0.00  0.00     0.377 C 
ATOM     14  N   UNL d   1      59.691  -0.420  29.007  0.00  0.00    -0.252 N 
ATOM     15  O   UNL d   1      60.897  -1.183  28.831  0.00  0.00    -0.237 OA
BRANCH  14  16
ATOM     16  C   UNL d   1      60.145   0.241  29.195  0.00  0.00     0.085 C 
ATOM     17  C   UNL d   1      60.173   0.508  29.982  0.00  0.00     0.021 C 
ENDBRANCH  14  16
BRANCH  14  18
ATOM     18  C   UNL d   1      58.881  -0.376  28.999  0.00  0.00     0.085 C 
ATOM     19  C   UNL d   1      58.506   0.358  28.884  0.00  0.00     0.021 C 
ENDBRANCH  14  18
ENDBRANCH  12  13
ENDBRANCH   1  12
TORSDOF 4
ENDMDL
