MODEL 1
REMARK VINA RESULT:      -8.2      0.000      0.000
REMARK  3 active torsions:
REMARK  status: ('A' for Active; 'I' for Inactive)
REMARK    1  A    between atoms: C_5  and  C_4 
REMARK    2  A    between atoms: C_6  and  C_5 
REMARK       I    between atoms: N_9  and  C_6 
REMARK    3  A    between atoms: C_12  and  N_9 
ROOT
ATOM      1  N   UNL d   1     -45.729  13.182  22.883  0.00  0.00    -0.205 NA
ATOM      2  C   UNL d   1     -46.272  13.801  22.819  0.00  0.00     0.297 A 
ATOM      3  N   UNL d   1     -47.337  12.957  23.297  0.00  0.00    -0.239 NA
ATOM      4  C   UNL d   1     -47.063  13.690  23.023  0.00  0.00     0.144 A 
ATOM      5  C   UNL d   1     -45.996  12.446  23.156  0.00  0.00     0.102 A 
ATOM      6  C   UNL d   1     -46.787  12.335  23.360  0.00  0.00     0.099 A 
ATOM      7  O   UNL d   1     -46.004  14.532  22.547  0.00  0.00    -0.264 OA
ATOM      8  C   UNL d   1     -45.450  11.817  23.222  0.00  0.00     0.021 A 
ATOM      9  C   UNL d   1     -47.059  11.592  23.636  0.00  0.00     0.021 A 
ATOM     10  C   UNL d   1     -45.719  11.085  23.494  0.00  0.00     0.002 A 
ATOM     11  C   UNL d   1     -46.510  10.975  23.698  0.00  0.00     0.002 A 
ENDROOT
BRANCH   4  12
ATOM     12  C   UNL d   1     -47.612  14.307  22.961  0.00  0.00     0.086 C 
BRANCH  12  13
ATOM     13  C   UNL d   1     -48.407  14.130  22.818  0.00  0.00     0.281 C 
ATOM     14  N   UNL d   1     -48.711  14.282  22.091  0.00  0.00    -0.208 NA
ATOM     15  O   UNL d   1     -48.876  13.807  23.399  0.00  0.00    -0.265 OA
BRANCH  14  16
ATOM     16  C   UNL d   1     -49.517  14.109  21.926  0.00  0.00     0.085 A 
ATOM     17  C   UNL d   1     -50.107  14.537  22.264  0.00  0.00     0.019 A 
ATOM     18  C   UNL d   1     -50.902  14.362  22.097  0.00  0.00     0.002 A 
ATOM     19  C   UNL d   1     -51.064  13.749  21.587  0.00  0.00     0.000 A 
ATOM     20  C   UNL d   1     -50.481  13.317  21.245  0.00  0.00     0.002 A 
ATOM     21  C   UNL d   1     -49.707  13.497  21.415  0.00  0.00     0.019 A 
ENDBRANCH  14  16
ENDBRANCH  12  13
ENDBRANCH   4  12
TORSDOF 3
ENDMDL
MODEL 2
REMARK VINA RESULT:      -7.6      1.351      4.397
REMARK  3 active torsions:
REMARK  status: ('A' for Active; 'I' for Inactive)
REMARK    1  A    between atoms: C_5  and  C_4 
REMARK    2  A    between atoms: C_6  and  C_5 
REMARK       I    between atoms: N_9  and  C_6 
REMARK    3  A    between atoms: C_12  and  N_9 
ROOT
ATOM      1  N   UNL d   1     -50.410  12.699  22.742  0.00  0.00    -0.205 NA
ATOM      2  C   UNL d   1     -49.734  12.291  22.982  0.00  0.00     0.297 A 
ATOM      3  N   UNL d   1     -49.013  13.524  23.163  0.00  0.00    -0.239 NA
ATOM      4  C   UNL d   1     -49.047  12.697  23.189  0.00  0.00     0.144 A 
ATOM      5  C   UNL d   1     -50.383  13.528  22.714  0.00  0.00     0.102 A 
ATOM      6  C   UNL d   1     -49.696  13.934  22.921  0.00  0.00     0.099 A 
ATOM      7  O   UNL d   1     -49.762  11.467  23.010  0.00  0.00    -0.264 OA
ATOM      8  C   UNL d   1     -51.064  13.946  22.472  0.00  0.00     0.021 A 
ATOM      9  C   UNL d   1     -49.667  14.771  22.893  0.00  0.00     0.021 A 
ATOM     10  C   UNL d   1     -51.036  14.771  22.444  0.00  0.00     0.002 A 
ATOM     11  C   UNL d   1     -50.349  15.176  22.651  0.00  0.00     0.002 A 
ENDROOT
BRANCH   4  12
ATOM     12  C   UNL d   1     -48.365  12.291  23.431  0.00  0.00     0.086 C 
BRANCH  12  13
ATOM     13  C   UNL d   1     -47.661  12.396  23.010  0.00  0.00     0.281 C 
ATOM     14  N   UNL d   1     -47.004  12.627  23.409  0.00  0.00    -0.208 NA
ATOM     15  O   UNL d   1     -47.629  12.268  22.207  0.00  0.00    -0.265 OA
BRANCH  14  16
ATOM     16  C   UNL d   1     -46.279  12.739  22.999  0.00  0.00     0.085 A 
ATOM     17  C   UNL d   1     -46.124  13.430  22.619  0.00  0.00     0.019 A 
ATOM     18  C   UNL d   1     -45.405  13.535  22.216  0.00  0.00     0.002 A 
ATOM     19  C   UNL d   1     -44.868  12.924  22.216  0.00  0.00     0.000 A 
ATOM     20  C   UNL d   1     -45.016  12.231  22.593  0.00  0.00     0.002 A 
ATOM     21  C   UNL d   1     -45.721  12.138  22.984  0.00  0.00     0.019 A 
ENDBRANCH  14  16
ENDBRANCH  12  13
ENDBRANCH   4  12
TORSDOF 3
ENDMDL
MODEL 3
REMARK VINA RESULT:      -6.8      8.431      9.819
REMARK  3 active torsions:
REMARK  status: ('A' for Active; 'I' for Inactive)
REMARK    1  A    between atoms: C_5  and  C_4 
REMARK    2  A    between atoms: C_6  and  C_5 
REMARK       I    between atoms: N_9  and  C_6 
REMARK    3  A    between atoms: C_12  and  N_9 
ROOT
ATOM      1  N   UNL d   1     -39.754  14.870  16.616  0.00  0.00    -0.205 NA
ATOM      2  C   UNL d   1     -40.226  14.968  17.286  0.00  0.00     0.297 A 
ATOM      3  N   UNL d   1     -39.497  13.946  17.991  0.00  0.00    -0.239 NA
ATOM      4  C   UNL d   1     -40.100  14.514  17.962  0.00  0.00     0.144 A 
ATOM      5  C   UNL d   1     -39.148  14.303  16.638  0.00  0.00     0.102 A 
ATOM      6  C   UNL d   1     -39.022  13.849  17.313  0.00  0.00     0.099 A 
ATOM      7  O   UNL d   1     -40.828  15.533  17.263  0.00  0.00    -0.264 OA
ATOM      8  C   UNL d   1     -38.668  14.200  15.962  0.00  0.00     0.021 A 
ATOM      9  C   UNL d   1     -38.411  13.276  17.337  0.00  0.00     0.021 A 
ATOM     10  C   UNL d   1     -38.066  13.635  15.986  0.00  0.00     0.002 A 
ATOM     11  C   UNL d   1     -37.940  13.181  16.662  0.00  0.00     0.002 A 
ENDROOT
BRANCH   4  12
ATOM     12  C   UNL d   1     -40.571  14.609  18.637  0.00  0.00     0.086 C 
BRANCH  12  13
ATOM     13  C   UNL d   1     -40.226  14.885  19.336  0.00  0.00     0.281 C 
ATOM     14  N   UNL d   1     -40.538  14.652  20.038  0.00  0.00    -0.208 NA
ATOM     15  O   UNL d   1     -39.584  15.384  19.318  0.00  0.00    -0.265 OA
BRANCH  14  16
ATOM     16  C   UNL d   1     -40.202  14.923  20.760  0.00  0.00     0.085 A 
ATOM     17  C   UNL d   1     -40.363  15.659  21.037  0.00  0.00     0.019 A 
ATOM     18  C   UNL d   1     -40.029  15.922  21.751  0.00  0.00     0.002 A 
ATOM     19  C   UNL d   1     -39.538  15.416  22.158  0.00  0.00     0.000 A 
ATOM     20  C   UNL d   1     -39.373  14.679  21.887  0.00  0.00     0.002 A 
ATOM     21  C   UNL d   1     -39.705  14.432  21.188  0.00  0.00     0.019 A 
ENDBRANCH  14  16
ENDBRANCH  12  13
ENDBRANCH   4  12
TORSDOF 3
ENDMDL
MODEL 4
REMARK VINA RESULT:      -6.7      1.529      2.148
REMARK  3 active torsions:
REMARK  status: ('A' for Active; 'I' for Inactive)
REMARK    1  A    between atoms: C_5  and  C_4 
REMARK    2  A    between atoms: C_6  and  C_5 
REMARK       I    between atoms: N_9  and  C_6 
REMARK    3  A    between atoms: C_12  and  N_9 
ROOT
ATOM      1  N   UNL d   1     -45.751  11.618  23.088  0.00  0.00    -0.205 NA
ATOM      2  C   UNL d   1     -46.494  11.425  23.393  0.00  0.00     0.297 A 
ATOM      3  N   UNL d   1     -46.997  12.739  23.088  0.00  0.00    -0.239 NA
ATOM      4  C   UNL d   1     -47.106  11.976  23.393  0.00  0.00     0.144 A 
ATOM      5  C   UNL d   1     -45.635  12.380  22.781  0.00  0.00     0.102 A 
ATOM      6  C   UNL d   1     -46.247  12.931  22.781  0.00  0.00     0.099 A 
ATOM      7  O   UNL d   1     -46.607  10.666  23.698  0.00  0.00    -0.264 OA
ATOM      8  C   UNL d   1     -44.886  12.580  22.471  0.00  0.00     0.021 A 
ATOM      9  C   UNL d   1     -46.132  13.701  22.471  0.00  0.00     0.021 A 
ATOM     10  C   UNL d   1     -44.772  13.339  22.166  0.00  0.00     0.002 A 
ATOM     11  C   UNL d   1     -45.385  13.890  22.166  0.00  0.00     0.002 A 
ENDROOT
BRANCH   4  12
ATOM     12  C   UNL d   1     -47.853  11.787  23.698  0.00  0.00     0.086 C 
BRANCH  12  13
ATOM     13  C   UNL d   1     -48.523  11.890  23.223  0.00  0.00     0.281 C 
ATOM     14  N   UNL d   1     -48.975  12.544  23.331  0.00  0.00    -0.208 NA
ATOM     15  O   UNL d   1     -48.724  11.342  22.657  0.00  0.00    -0.265 OA
BRANCH  14  16
ATOM     16  C   UNL d   1     -49.659  12.667  22.859  0.00  0.00     0.085 A 
ATOM     17  C   UNL d   1     -49.611  13.062  22.161  0.00  0.00     0.019 A 
ATOM     18  C   UNL d   1     -50.290  13.181  21.697  0.00  0.00     0.002 A 
ATOM     19  C   UNL d   1     -51.000  12.889  21.969  0.00  0.00     0.000 A 
ATOM     20  C   UNL d   1     -51.056  12.494  22.666  0.00  0.00     0.002 A 
ATOM     21  C   UNL d   1     -50.386  12.383  23.111  0.00  0.00     0.019 A 
ENDBRANCH  14  16
ENDBRANCH  12  13
ENDBRANCH   4  12
TORSDOF 3
ENDMDL
MODEL 5
REMARK VINA RESULT:      -6.4      8.289      9.600
REMARK  3 active torsions:
REMARK  status: ('A' for Active; 'I' for Inactive)
REMARK    1  A    between atoms: C_5  and  C_4 
REMARK    2  A    between atoms: C_6  and  C_5 
REMARK       I    between atoms: N_9  and  C_6 
REMARK    3  A    between atoms: C_12  and  N_9 
ROOT
ATOM      1  N   UNL d   1     -40.361  15.589  20.995  0.00  0.00    -0.205 NA
ATOM      2  C   UNL d   1     -40.572  15.384  20.223  0.00  0.00     0.297 A 
ATOM      3  N   UNL d   1     -39.710  14.231  20.259  0.00  0.00    -0.239 NA
ATOM      4  C   UNL d   1     -40.252  14.716  19.862  0.00  0.00     0.144 A 
ATOM      5  C   UNL d   1     -39.819  15.108  21.399  0.00  0.00     0.102 A 
ATOM      6  C   UNL d   1     -39.499  14.440  21.037  0.00  0.00     0.099 A 
ATOM      7  O   UNL d   1     -41.111  15.864  19.823  0.00  0.00    -0.264 OA
ATOM      8  C   UNL d   1     -39.603  15.311  22.179  0.00  0.00     0.021 A 
ATOM      9  C   UNL d   1     -38.952  13.953  21.444  0.00  0.00     0.021 A 
ATOM     10  C   UNL d   1     -39.063  14.831  22.579  0.00  0.00     0.002 A 
ATOM     11  C   UNL d   1     -38.743  14.163  22.218  0.00  0.00     0.002 A 
ENDROOT
BRANCH   4  12
ATOM     12  C   UNL d   1     -40.460  14.506  19.088  0.00  0.00     0.086 C 
BRANCH  12  13
ATOM     13  C   UNL d   1     -39.869  14.430  18.515  0.00  0.00     0.281 C 
ATOM     14  N   UNL d   1     -39.875  13.785  18.037  0.00  0.00    -0.208 NA
ATOM     15  O   UNL d   1     -39.289  14.994  18.434  0.00  0.00    -0.265 OA
BRANCH  14  16
ATOM     16  C   UNL d   1     -39.282  13.689  17.449  0.00  0.00     0.085 A 
ATOM     17  C   UNL d   1     -39.277  14.153  16.793  0.00  0.00     0.019 A 
ATOM     18  C   UNL d   1     -38.689  14.054  16.214  0.00  0.00     0.002 A 
ATOM     19  C   UNL d   1     -38.124  13.479  16.330  0.00  0.00     0.000 A 
ATOM     20  C   UNL d   1     -38.123  13.013  16.983  0.00  0.00     0.002 A 
ATOM     21  C   UNL d   1     -38.703  13.117  17.542  0.00  0.00     0.019 A 
ENDBRANCH  14  16
ENDBRANCH  12  13
ENDBRANCH   4  12
TORSDOF 3
ENDMDL
MODEL 6
REMARK VINA RESULT:      -6.3      8.402      9.924
REMARK  3 active torsions:
REMARK  status: ('A' for Active; 'I' for Inactive)
REMARK    1  A    between atoms: C_5  and  C_4 
REMARK    2  A    between atoms: C_6  and  C_5 
REMARK       I    between atoms: N_9  and  C_6 
REMARK    3  A    between atoms: C_12  and  N_9 
ROOT
ATOM      1  N   UNL d   1     -40.092  14.371  17.339  0.00  0.00    -0.205 NA
ATOM      2  C   UNL d   1     -40.415  14.306  18.097  0.00  0.00     0.297 A 
ATOM      3  N   UNL d   1     -39.476  15.266  18.615  0.00  0.00    -0.239 NA
ATOM      4  C   UNL d   1     -40.112  14.746  18.724  0.00  0.00     0.144 A 
ATOM      5  C   UNL d   1     -39.455  14.890  17.223  0.00  0.00     0.102 A 
ATOM      6  C   UNL d   1     -39.152  15.330  17.851  0.00  0.00     0.099 A 
ATOM      7  O   UNL d   1     -41.049  13.789  18.210  0.00  0.00    -0.264 OA
ATOM      8  C   UNL d   1     -39.125  14.960  16.459  0.00  0.00     0.021 A 
ATOM      9  C   UNL d   1     -38.508  15.855  17.735  0.00  0.00     0.021 A 
ATOM     10  C   UNL d   1     -38.491  15.476  16.346  0.00  0.00     0.002 A 
ATOM     11  C   UNL d   1     -38.188  15.916  16.974  0.00  0.00     0.002 A 
ENDROOT
BRANCH   4  12
ATOM     12  C   UNL d   1     -40.432  14.684  19.486  0.00  0.00     0.086 C 
BRANCH  12  13
ATOM     13  C   UNL d   1     -39.935  14.500  20.121  0.00  0.00     0.281 C 
ATOM     14  N   UNL d   1     -40.136  14.756  20.854  0.00  0.00    -0.208 NA
ATOM     15  O   UNL d   1     -39.256  14.067  20.009  0.00  0.00    -0.265 OA
BRANCH  14  16
ATOM     16  C   UNL d   1     -39.644  14.579  21.512  0.00  0.00     0.085 A 
ATOM     17  C   UNL d   1     -39.602  13.831  21.804  0.00  0.00     0.019 A 
ATOM     18  C   UNL d   1     -39.115  13.661  22.455  0.00  0.00     0.002 A 
ATOM     19  C   UNL d   1     -38.685  14.268  22.786  0.00  0.00     0.000 A 
ATOM     20  C   UNL d   1     -38.722  15.017  22.500  0.00  0.00     0.002 A 
ATOM     21  C   UNL d   1     -39.201  15.172  21.863  0.00  0.00     0.019 A 
ENDBRANCH  14  16
ENDBRANCH  12  13
ENDBRANCH   4  12
TORSDOF 3
ENDMDL
MODEL 7
REMARK VINA RESULT:      -6.2      8.463     10.139
REMARK  3 active torsions:
REMARK  status: ('A' for Active; 'I' for Inactive)
REMARK    1  A    between atoms: C_5  and  C_4 
REMARK    2  A    between atoms: C_6  and  C_5 
REMARK       I    between atoms: N_9  and  C_6 
REMARK    3  A    between atoms: C_12  and  N_9 
ROOT
ATOM      1  N   UNL d   1     -38.504  13.226  16.639  0.00  0.00    -0.205 NA
ATOM      2  C   UNL d   1     -38.668  13.108  17.439  0.00  0.00     0.297 A 
ATOM      3  N   UNL d   1     -38.727  14.528  17.670  0.00  0.00    -0.239 NA
ATOM      4  C   UNL d   1     -38.778  13.749  17.946  0.00  0.00     0.144 A 
ATOM      5  C   UNL d   1     -38.451  14.004  16.355  0.00  0.00     0.102 A 
ATOM      6  C   UNL d   1     -38.561  14.644  16.862  0.00  0.00     0.099 A 
ATOM      7  O   UNL d   1     -38.720  12.333  17.719  0.00  0.00    -0.264 OA
ATOM      8  C   UNL d   1     -38.285  14.128  15.546  0.00  0.00     0.021 A 
ATOM      9  C   UNL d   1     -38.508  15.431  16.577  0.00  0.00     0.021 A 
ATOM     10  C   UNL d   1     -38.233  14.903  15.266  0.00  0.00     0.002 A 
ATOM     11  C   UNL d   1     -38.343  15.544  15.773  0.00  0.00     0.002 A 
ENDROOT
BRANCH   4  12
ATOM     12  C   UNL d   1     -38.943  13.636  18.750  0.00  0.00     0.086 C 
BRANCH  12  13
ATOM     13  C   UNL d   1     -39.596  14.016  19.087  0.00  0.00     0.281 C 
ATOM     14  N   UNL d   1     -39.511  14.364  19.805  0.00  0.00    -0.208 NA
ATOM     15  O   UNL d   1     -40.312  14.038  18.702  0.00  0.00    -0.265 OA
BRANCH  14  16
ATOM     16  C   UNL d   1     -40.163  14.755  20.164  0.00  0.00     0.085 A 
ATOM     17  C   UNL d   1     -40.288  15.540  20.043  0.00  0.00     0.019 A 
ATOM     18  C   UNL d   1     -40.934  15.922  20.400  0.00  0.00     0.002 A 
ATOM     19  C   UNL d   1     -41.431  15.483  20.872  0.00  0.00     0.000 A 
ATOM     20  C   UNL d   1     -41.312  14.699  20.997  0.00  0.00     0.002 A 
ATOM     21  C   UNL d   1     -40.678  14.335  20.643  0.00  0.00     0.019 A 
ENDBRANCH  14  16
ENDBRANCH  12  13
ENDBRANCH   4  12
TORSDOF 3
ENDMDL
MODEL 8
REMARK VINA RESULT:      -5.8      8.712      9.814
REMARK  3 active torsions:
REMARK  status: ('A' for Active; 'I' for Inactive)
REMARK    1  A    between atoms: C_5  and  C_4 
REMARK    2  A    between atoms: C_6  and  C_5 
REMARK       I    between atoms: N_9  and  C_6 
REMARK    3  A    between atoms: C_12  and  N_9 
ROOT
ATOM      1  N   UNL d   1     -39.445  14.284  17.266  0.00  0.00    -0.205 NA
ATOM      2  C   UNL d   1     -39.203  13.961  17.986  0.00  0.00     0.297 A 
ATOM      3  N   UNL d   1     -40.196  14.723  18.698  0.00  0.00    -0.239 NA
ATOM      4  C   UNL d   1     -39.573  14.177  18.691  0.00  0.00     0.144 A 
ATOM      5  C   UNL d   1     -40.068  14.832  17.266  0.00  0.00     0.102 A 
ATOM      6  C   UNL d   1     -40.438  15.048  17.970  0.00  0.00     0.099 A 
ATOM      7  O   UNL d   1     -38.583  13.417  17.984  0.00  0.00    -0.264 OA
ATOM      8  C   UNL d   1     -40.316  15.162  16.540  0.00  0.00     0.021 A 
ATOM      9  C   UNL d   1     -41.068  15.600  17.972  0.00  0.00     0.021 A 
ATOM     10  C   UNL d   1     -40.937  15.706  16.542  0.00  0.00     0.002 A 
ATOM     11  C   UNL d   1     -41.306  15.922  17.247  0.00  0.00     0.002 A 
ENDROOT
BRANCH   4  12
ATOM     12  C   UNL d   1     -39.335  13.855  19.416  0.00  0.00     0.086 C 
BRANCH  12  13
ATOM     13  C   UNL d   1     -39.152  14.362  20.044  0.00  0.00     0.281 C 
ATOM     14  N   UNL d   1     -39.495  14.232  20.757  0.00  0.00    -0.208 NA
ATOM     15  O   UNL d   1     -38.634  14.982  19.945  0.00  0.00    -0.265 OA
BRANCH  14  16
ATOM     16  C   UNL d   1     -39.322  14.736  21.407  0.00  0.00     0.085 A 
ATOM     17  C   UNL d   1     -38.681  14.601  21.872  0.00  0.00     0.019 A 
ATOM     18  C   UNL d   1     -38.514  15.102  22.514  0.00  0.00     0.002 A 
ATOM     19  C   UNL d   1     -39.015  15.727  22.656  0.00  0.00     0.000 A 
ATOM     20  C   UNL d   1     -39.657  15.869  22.197  0.00  0.00     0.002 A 
ATOM     21  C   UNL d   1     -39.811  15.373  21.572  0.00  0.00     0.019 A 
ENDBRANCH  14  16
ENDBRANCH  12  13
ENDBRANCH   4  12
TORSDOF 3
ENDMDL
