MODEL 1
REMARK VINA RESULT:      -2.7      0.000      0.000
REMARK  4 active torsions:
REMARK  status: ('A' for Active; 'I' for Inactive)
REMARK    1  A    between atoms: C_15  and  N_5 
REMARK    2  A    between atoms: N_13  and  C_7 
REMARK    3  A    between atoms: C_18  and  N_13 
REMARK    4  A    between atoms: C_16  and  C_15 
ROOT
ATOM      1  N   UNL d   1      33.212  20.606 -22.626  0.00  0.00     0.039 N 
ATOM      2  C   UNL d   1      33.197  20.745 -21.815  0.00  0.00     0.755 A 
ATOM      3  C   UNL d   1      33.217  21.222 -23.162  0.00  0.00     0.134 A 
ATOM      4  C   UNL d   1      33.206  22.004 -22.891  0.00  0.00     0.081 A 
ATOM      5  N   UNL d   1      33.186  21.530 -21.541  0.00  0.00    -0.103 N 
ATOM      6  C   UNL d   1      33.191  22.158 -22.080  0.00  0.00     0.281 A 
ATOM      7  C   UNL d   1      33.220  19.791 -22.732  0.00  0.00     0.768 A 
ATOM      8  N   UNL d   1      33.195  20.025 -21.430  0.00  0.00     0.060 NA
ATOM      9  S   UNL d   1      33.232  21.243 -23.983  0.00  0.00    -0.068 SA
ATOM     10  N   UNL d   1      33.210  19.433 -21.996  0.00  0.00     0.061 NA
ATOM     11  C   UNL d   1      33.214  22.506 -23.545  0.00  0.00     0.013 A 
ATOM     12  C   UNL d   1      33.230  22.035 -24.221  0.00  0.00     0.031 A 
ATOM     13  O   UNL d   1      33.180  22.940 -21.810  0.00  0.00    -0.266 OA
ATOM     14  C   UNL d   1      33.209  23.325 -23.614  0.00  0.00     0.001 A 
ATOM     15  C   UNL d   1      33.241  22.378 -24.972  0.00  0.00     0.006 A 
ATOM     16  C   UNL d   1      33.220  23.673 -24.359  0.00  0.00     0.000 A 
ATOM     17  C   UNL d   1      33.236  23.198 -25.041  0.00  0.00     0.001 A 
ENDROOT
BRANCH   7  18
ATOM     18  N   UNL d   1      33.237  19.399 -23.463  0.00  0.00    -0.059 NA
BRANCH  18  19
ATOM     19  C   UNL d   1      32.870  18.658 -23.549  0.00  0.00     0.100 A 
ATOM     20  C   UNL d   1      33.196  17.997 -23.170  0.00  0.00     0.020 A 
ATOM     21  C   UNL d   1      32.836  17.256 -23.251  0.00  0.00     0.002 A 
ATOM     22  C   UNL d   1      32.151  17.184 -23.712  0.00  0.00     0.000 A 
ATOM     23  C   UNL d   1      31.825  17.850 -24.091  0.00  0.00     0.002 A 
ATOM     24  C   UNL d   1      32.192  18.590 -24.005  0.00  0.00     0.020 A 
ENDBRANCH  18  19
ENDBRANCH   7  18
BRANCH   5  25
ATOM     25  C   UNL d   1      33.170  21.682 -20.734  0.00  0.00     0.101 C 
BRANCH  25  26
ATOM     26  C   UNL d   1      32.487  21.975 -20.380  0.00  0.00     0.020 C 
ATOM     27  C   UNL d   1      32.466  22.124 -19.570  0.00  0.00     0.002 C 
ENDBRANCH  25  26
ENDBRANCH   5  25
TORSDOF 4
ENDMDL
MODEL 2
REMARK VINA RESULT:      -2.3      0.995      2.731
REMARK  4 active torsions:
REMARK  status: ('A' for Active; 'I' for Inactive)
REMARK    1  A    between atoms: C_15  and  N_5 
REMARK    2  A    between atoms: N_13  and  C_7 
REMARK    3  A    between atoms: C_18  and  N_13 
REMARK    4  A    between atoms: C_16  and  C_15 
ROOT
ATOM      1  N   UNL d   1      33.233  20.571 -23.244  0.00  0.00     0.039 N 
ATOM      2  C   UNL d   1      33.236  21.136 -23.843  0.00  0.00     0.755 A 
ATOM      3  C   UNL d   1      33.232  20.788 -22.458  0.00  0.00     0.134 A 
ATOM      4  C   UNL d   1      33.234  21.590 -22.251  0.00  0.00     0.081 A 
ATOM      5  N   UNL d   1      33.238  21.941 -23.637  0.00  0.00    -0.103 N 
ATOM      6  C   UNL d   1      33.237  22.167 -22.841  0.00  0.00     0.281 A 
ATOM      7  C   UNL d   1      33.231  19.833 -23.606  0.00  0.00     0.768 A 
ATOM      8  N   UNL d   1      33.236  20.748 -24.562  0.00  0.00     0.060 NA
ATOM      9  S   UNL d   1      33.230  20.351 -21.762  0.00  0.00    -0.068 SA
ATOM     10  N   UNL d   1      33.233  19.942 -24.418  0.00  0.00     0.061 NA
ATOM     11  C   UNL d   1      33.233  21.646 -21.428  0.00  0.00     0.013 A 
ATOM     12  C   UNL d   1      33.230  20.880 -21.125  0.00  0.00     0.031 A 
ATOM     13  O   UNL d   1      33.239  22.968 -22.633  0.00  0.00    -0.266 OA
ATOM     14  C   UNL d   1      33.234  22.290 -20.918  0.00  0.00     0.001 A 
ATOM     15  C   UNL d   1      33.228  20.750 -20.310  0.00  0.00     0.006 A 
ATOM     16  C   UNL d   1      33.232  22.168 -20.104  0.00  0.00     0.000 A 
ATOM     17  C   UNL d   1      33.229  21.395 -19.799  0.00  0.00     0.001 A 
ENDROOT
BRANCH   7  18
ATOM     18  N   UNL d   1      33.228  19.102 -23.215  0.00  0.00    -0.059 NA
BRANCH  18  19
ATOM     19  C   UNL d   1      32.878  18.438 -23.570  0.00  0.00     0.100 A 
ATOM     20  C   UNL d   1      33.241  18.091 -24.230  0.00  0.00     0.020 A 
ATOM     21  C   UNL d   1      32.897  17.430 -24.588  0.00  0.00     0.002 A 
ATOM     22  C   UNL d   1      32.191  17.120 -24.283  0.00  0.00     0.000 A 
ATOM     23  C   UNL d   1      31.829  17.470 -23.620  0.00  0.00     0.002 A 
ATOM     24  C   UNL d   1      32.180  18.134 -23.265  0.00  0.00     0.020 A 
ENDBRANCH  18  19
ENDBRANCH   7  18
BRANCH   5  25
ATOM     25  C   UNL d   1      33.241  22.514 -24.226  0.00  0.00     0.101 C 
BRANCH  25  26
ATOM     26  C   UNL d   1      32.535  22.859 -24.473  0.00  0.00     0.020 C 
ATOM     27  C   UNL d   1      32.537  23.463 -25.033  0.00  0.00     0.002 C 
ENDBRANCH  25  26
ENDBRANCH   5  25
TORSDOF 4
ENDMDL
MODEL 3
REMARK VINA RESULT:      -1.1      1.539      4.519
REMARK  4 active torsions:
REMARK  status: ('A' for Active; 'I' for Inactive)
REMARK    1  A    between atoms: C_15  and  N_5 
REMARK    2  A    between atoms: N_13  and  C_7 
REMARK    3  A    between atoms: C_18  and  N_13 
REMARK    4  A    between atoms: C_16  and  C_15 
ROOT
ATOM      1  N   UNL d   1      32.867  22.091 -21.651  0.00  0.00     0.039 N 
ATOM      2  C   UNL d   1      32.851  22.665 -22.241  0.00  0.00     0.755 A 
ATOM      3  C   UNL d   1      32.949  21.300 -21.832  0.00  0.00     0.134 A 
ATOM      4  C   UNL d   1      33.018  21.062 -22.622  0.00  0.00     0.081 A 
ATOM      5  N   UNL d   1      32.920  22.428 -23.035  0.00  0.00    -0.103 N 
ATOM      6  C   UNL d   1      33.004  21.626 -23.224  0.00  0.00     0.281 A 
ATOM      7  C   UNL d   1      32.788  22.482 -20.932  0.00  0.00     0.768 A 
ATOM      8  N   UNL d   1      32.764  23.396 -21.888  0.00  0.00     0.060 NA
ATOM      9  S   UNL d   1      32.981  20.625 -21.364  0.00  0.00    -0.068 SA
ATOM     10  N   UNL d   1      32.725  23.285 -21.077  0.00  0.00     0.061 NA
ATOM     11  C   UNL d   1      33.093  20.241 -22.640  0.00  0.00     0.013 A 
ATOM     12  C   UNL d   1      33.070  19.971 -21.862  0.00  0.00     0.031 A 
ATOM     13  O   UNL d   1      33.073  21.388 -24.013  0.00  0.00    -0.266 OA
ATOM     14  C   UNL d   1      33.178  19.708 -23.260  0.00  0.00     0.001 A 
ATOM     15  C   UNL d   1      33.133  19.164 -21.696  0.00  0.00     0.006 A 
ATOM     16  C   UNL d   1      33.241  18.903 -23.101  0.00  0.00     0.000 A 
ATOM     17  C   UNL d   1      33.218  18.630 -22.315  0.00  0.00     0.001 A 
ENDROOT
BRANCH   7  18
ATOM     18  N   UNL d   1      32.775  22.121 -20.185  0.00  0.00    -0.059 NA
BRANCH  18  19
ATOM     19  C   UNL d   1      32.638  22.575 -19.503  0.00  0.00     0.100 A 
ATOM     20  C   UNL d   1      31.970  23.066 -19.470  0.00  0.00     0.020 A 
ATOM     21  C   UNL d   1      31.828  23.521 -18.794  0.00  0.00     0.002 A 
ATOM     22  C   UNL d   1      32.355  23.480 -18.155  0.00  0.00     0.000 A 
ATOM     23  C   UNL d   1      33.024  22.987 -18.192  0.00  0.00     0.002 A 
ATOM     24  C   UNL d   1      33.161  22.533 -18.874  0.00  0.00     0.020 A 
ENDBRANCH  18  19
ENDBRANCH   7  18
BRANCH   5  25
ATOM     25  C   UNL d   1      32.906  22.991 -23.634  0.00  0.00     0.101 C 
BRANCH  25  26
ATOM     26  C   UNL d   1      32.242  23.069 -24.115  0.00  0.00     0.020 C 
ATOM     27  C   UNL d   1      32.188  23.685 -24.658  0.00  0.00     0.002 C 
ENDBRANCH  25  26
ENDBRANCH   5  25
TORSDOF 4
ENDMDL
