MODEL 1
REMARK VINA RESULT:      -7.6      0.000      0.000
REMARK  5 active torsions:
REMARK  status: ('A' for Active; 'I' for Inactive)
REMARK    1  A    between atoms: C_8  and  C_1 
REMARK    2  A    between atoms: C_9  and  C_2 
REMARK    3  A    between atoms: S_6  and  C_4 
REMARK    4  A    between atoms: C_11  and  S_6 
REMARK    5  A    between atoms: C_7  and  C_11 
ROOT
ATOM      1  C   UNL d   1     -48.445  13.965  22.962  0.00  0.00     0.107 A 
ATOM      2  C   UNL d   1     -48.513  13.144  22.965  0.00  0.00     0.120 A 
ATOM      3  N   UNL d   1     -47.641  14.144  22.956  0.00  0.00    -0.214 NA
ATOM      4  C   UNL d   1     -47.227  13.433  22.956  0.00  0.00     0.215 A 
ATOM      5  O   UNL d   1     -47.775  12.818  22.962  0.00  0.00    -0.283 OA
ENDROOT
BRANCH   1   6
ATOM      6  C   UNL d   1     -49.040  14.540  22.964  0.00  0.00     0.020 A 
ATOM      7  C   UNL d   1     -49.340  14.817  23.698  0.00  0.00     0.002 A 
ATOM      8  C   UNL d   1     -49.948  15.404  23.692  0.00  0.00     0.000 A 
ATOM      9  C   UNL d   1     -50.231  15.690  22.981  0.00  0.00     0.000 A 
ATOM     10  C   UNL d   1     -49.929  15.410  22.261  0.00  0.00     0.000 A 
ATOM     11  C   UNL d   1     -49.334  14.836  22.249  0.00  0.00     0.002 A 
ENDBRANCH   1   6
BRANCH   2  12
ATOM     12  C   UNL d   1     -49.204  12.698  22.971  0.00  0.00     0.024 A 
ATOM     13  C   UNL d   1     -49.531  12.436  23.683  0.00  0.00     0.002 A 
ATOM     14  C   UNL d   1     -50.225  11.987  23.698  0.00  0.00     0.000 A 
ATOM     15  C   UNL d   1     -50.588  11.804  22.992  0.00  0.00     0.000 A 
ATOM     16  C   UNL d   1     -50.269  12.061  22.277  0.00  0.00     0.000 A 
ATOM     17  C   UNL d   1     -49.578  12.507  22.271  0.00  0.00     0.002 A 
ENDBRANCH   2  12
BRANCH   4  18
ATOM     18  S   UNL d   1     -46.398  13.376  22.951  0.00  0.00    -0.037 SA
BRANCH  18  19
ATOM     19  C   UNL d   1     -46.014  13.075  22.269  0.00  0.00     0.103 C 
BRANCH  19  20
ATOM     20  C   UNL d   1     -45.221  12.906  22.300  0.00  0.00     0.303 C 
ATOM     21  O   UNL d   1     -44.934  12.314  22.824  0.00  0.00    -0.263 OA
ATOM     22  N   UNL d   1     -44.689  13.315  21.814  0.00  0.00    -0.102 N 
ENDBRANCH  19  20
ENDBRANCH  18  19
ENDBRANCH   4  18
TORSDOF 5
ENDMDL
MODEL 2
REMARK VINA RESULT:      -7.6      0.420      2.247
REMARK  5 active torsions:
REMARK  status: ('A' for Active; 'I' for Inactive)
REMARK    1  A    between atoms: C_8  and  C_1 
REMARK    2  A    between atoms: C_9  and  C_2 
REMARK    3  A    between atoms: S_6  and  C_4 
REMARK    4  A    between atoms: C_11  and  S_6 
REMARK    5  A    between atoms: C_7  and  C_11 
ROOT
ATOM      1  C   UNL d   1     -48.410  13.126  22.955  0.00  0.00     0.107 A 
ATOM      2  C   UNL d   1     -48.318  13.945  22.946  0.00  0.00     0.120 A 
ATOM      3  N   UNL d   1     -47.657  12.794  22.955  0.00  0.00    -0.214 NA
ATOM      4  C   UNL d   1     -47.113  13.410  22.947  0.00  0.00     0.215 A 
ATOM      5  O   UNL d   1     -47.530  14.120  22.941  0.00  0.00    -0.283 OA
ENDROOT
BRANCH   1   6
ATOM      6  C   UNL d   1     -49.107  12.678  22.962  0.00  0.00     0.020 A 
ATOM      7  C   UNL d   1     -49.429  12.432  23.698  0.00  0.00     0.002 A 
ATOM      8  C   UNL d   1     -50.139  11.975  23.698  0.00  0.00     0.000 A 
ATOM      9  C   UNL d   1     -50.498  11.782  22.990  0.00  0.00     0.000 A 
ATOM     10  C   UNL d   1     -50.173  12.029  22.268  0.00  0.00     0.000 A 
ATOM     11  C   UNL d   1     -49.478  12.477  22.251  0.00  0.00     0.002 A 
ENDBRANCH   1   6
BRANCH   2  12
ATOM     12  C   UNL d   1     -48.908  14.517  22.943  0.00  0.00     0.024 A 
ATOM     13  C   UNL d   1     -49.223  14.802  23.652  0.00  0.00     0.002 A 
ATOM     14  C   UNL d   1     -49.817  15.377  23.658  0.00  0.00     0.000 A 
ATOM     15  C   UNL d   1     -50.092  15.663  22.946  0.00  0.00     0.000 A 
ATOM     16  C   UNL d   1     -49.784  15.384  22.235  0.00  0.00     0.000 A 
ATOM     17  C   UNL d   1     -49.193  14.812  22.238  0.00  0.00     0.002 A 
ENDBRANCH   2  12
BRANCH   4  18
ATOM     18  S   UNL d   1     -46.289  13.304  22.944  0.00  0.00    -0.037 SA
BRANCH  18  19
ATOM     19  C   UNL d   1     -45.904  13.107  22.225  0.00  0.00     0.103 C 
BRANCH  19  20
ATOM     20  C   UNL d   1     -45.111  12.934  22.230  0.00  0.00     0.303 C 
ATOM     21  O   UNL d   1     -44.814  12.318  22.719  0.00  0.00    -0.263 OA
ATOM     22  N   UNL d   1     -44.589  13.365  21.754  0.00  0.00    -0.102 N 
ENDBRANCH  19  20
ENDBRANCH  18  19
ENDBRANCH   4  18
TORSDOF 5
ENDMDL
MODEL 3
REMARK VINA RESULT:      -5.0      8.028      9.828
REMARK  5 active torsions:
REMARK  status: ('A' for Active; 'I' for Inactive)
REMARK    1  A    between atoms: C_8  and  C_1 
REMARK    2  A    between atoms: C_9  and  C_2 
REMARK    3  A    between atoms: S_6  and  C_4 
REMARK    4  A    between atoms: C_11  and  S_6 
REMARK    5  A    between atoms: C_7  and  C_11 
ROOT
ATOM      1  C   UNL d   1     -38.931  14.243  20.525  0.00  0.00     0.107 A 
ATOM      2  C   UNL d   1     -39.598  14.460  20.094  0.00  0.00     0.120 A 
ATOM      3  N   UNL d   1     -38.380  13.945  19.992  0.00  0.00    -0.214 NA
ATOM      4  C   UNL d   1     -38.714  13.982  19.241  0.00  0.00     0.215 A 
ATOM      5  O   UNL d   1     -39.469  14.303  19.313  0.00  0.00    -0.283 OA
ENDROOT
BRANCH   1   6
ATOM      6  C   UNL d   1     -38.794  14.295  21.341  0.00  0.00     0.020 A 
ATOM      7  C   UNL d   1     -38.448  14.994  21.654  0.00  0.00     0.002 A 
ATOM      8  C   UNL d   1     -38.312  15.040  22.487  0.00  0.00     0.000 A 
ATOM      9  C   UNL d   1     -38.516  14.413  22.968  0.00  0.00     0.000 A 
ATOM     10  C   UNL d   1     -38.858  13.727  22.649  0.00  0.00     0.000 A 
ATOM     11  C   UNL d   1     -38.998  13.666  21.837  0.00  0.00     0.002 A 
ENDBRANCH   1   6
BRANCH   2  12
ATOM     12  C   UNL d   1     -40.297  14.786  20.380  0.00  0.00     0.024 A 
ATOM     13  C   UNL d   1     -40.920  14.301  20.624  0.00  0.00     0.002 A 
ATOM     14  C   UNL d   1     -41.625  14.620  20.913  0.00  0.00     0.000 A 
ATOM     15  C   UNL d   1     -41.701  15.430  20.955  0.00  0.00     0.000 A 
ATOM     16  C   UNL d   1     -41.085  15.921  20.714  0.00  0.00     0.000 A 
ATOM     17  C   UNL d   1     -40.386  15.596  20.427  0.00  0.00     0.002 A 
ENDBRANCH   2  12
BRANCH   4  18
ATOM     18  S   UNL d   1     -38.331  13.733  18.547  0.00  0.00    -0.037 SA
BRANCH  18  19
ATOM     19  C   UNL d   1     -38.747  13.246  18.004  0.00  0.00     0.103 C 
BRANCH  19  20
ATOM     20  C   UNL d   1     -38.353  12.929  17.369  0.00  0.00     0.303 C 
ATOM     21  O   UNL d   1     -38.122  12.120  17.375  0.00  0.00    -0.263 OA
ATOM     22  N   UNL d   1     -38.176  13.400  16.712  0.00  0.00    -0.102 N 
ENDBRANCH  19  20
ENDBRANCH  18  19
ENDBRANCH   4  18
TORSDOF 5
ENDMDL
MODEL 4
REMARK VINA RESULT:      -4.9      9.499     10.628
REMARK  5 active torsions:
REMARK  status: ('A' for Active; 'I' for Inactive)
REMARK    1  A    between atoms: C_8  and  C_1 
REMARK    2  A    between atoms: C_9  and  C_2 
REMARK    3  A    between atoms: S_6  and  C_4 
REMARK    4  A    between atoms: C_11  and  S_6 
REMARK    5  A    between atoms: C_7  and  C_11 
ROOT
ATOM      1  C   UNL d   1     -38.964  14.728  18.620  0.00  0.00     0.107 A 
ATOM      2  C   UNL d   1     -39.548  15.299  18.513  0.00  0.00     0.120 A 
ATOM      3  N   UNL d   1     -38.622  14.862  19.356  0.00  0.00    -0.214 NA
ATOM      4  C   UNL d   1     -38.999  15.511  19.692  0.00  0.00     0.215 A 
ATOM      5  O   UNL d   1     -39.571  15.776  19.163  0.00  0.00    -0.283 OA
ENDROOT
BRANCH   1   6
ATOM      6  C   UNL d   1     -38.730  14.116  18.113  0.00  0.00     0.020 A 
ATOM      7  C   UNL d   1     -39.071  13.354  18.205  0.00  0.00     0.002 A 
ATOM      8  C   UNL d   1     -38.828  12.735  17.684  0.00  0.00     0.000 A 
ATOM      9  C   UNL d   1     -38.272  12.885  17.105  0.00  0.00     0.000 A 
ATOM     10  C   UNL d   1     -37.940  13.642  17.021  0.00  0.00     0.000 A 
ATOM     11  C   UNL d   1     -38.168  14.258  17.523  0.00  0.00     0.002 A 
ENDBRANCH   1   6
BRANCH   2  12
ATOM     12  C   UNL d   1     -40.044  15.394  17.863  0.00  0.00     0.024 A 
ATOM     13  C   UNL d   1     -40.798  15.057  17.854  0.00  0.00     0.002 A 
ATOM     14  C   UNL d   1     -41.302  15.149  17.206  0.00  0.00     0.000 A 
ATOM     15  C   UNL d   1     -41.043  15.581  16.566  0.00  0.00     0.000 A 
ATOM     16  C   UNL d   1     -40.292  15.921  16.566  0.00  0.00     0.000 A 
ATOM     17  C   UNL d   1     -39.797  15.825  17.216  0.00  0.00     0.002 A 
ENDBRANCH   2  12
BRANCH   4  18
ATOM     18  S   UNL d   1     -38.812  15.824  20.438  0.00  0.00    -0.037 SA
BRANCH  18  19
ATOM     19  C   UNL d   1     -38.738  15.304  21.093  0.00  0.00     0.103 C 
BRANCH  19  20
ATOM     20  C   UNL d   1     -38.778  15.602  21.847  0.00  0.00     0.303 C 
ATOM     21  O   UNL d   1     -39.508  15.603  22.264  0.00  0.00    -0.263 OA
ATOM     22  N   UNL d   1     -38.099  15.908  22.210  0.00  0.00    -0.102 N 
ENDBRANCH  19  20
ENDBRANCH  18  19
ENDBRANCH   4  18
TORSDOF 5
ENDMDL
