MODEL 1
REMARK VINA RESULT:      -7.9      0.000      0.000
REMARK  6 active torsions:
REMARK  status: ('A' for Active; 'I' for Inactive)
REMARK       I    between atoms: C_2  and  N_1 
REMARK    1  A    between atoms: O_20  and  C_2 
REMARK       I    between atoms: C_5  and  N_3 
REMARK    2  A    between atoms: C_15  and  C_5 
REMARK    3  A    between atoms: C_7  and  S_13 
REMARK    4  A    between atoms: C_18  and  C_8 
REMARK    5  A    between atoms: S_13  and  C_15 
REMARK    6  A    between atoms: C_26  and  O_20 
ROOT
ATOM      1  C   UNL d   1      50.105  34.539  52.429  0.00  0.00     0.098 C 
ENDROOT
BRANCH   1   2
ATOM      2  S   UNL d   1      50.749  34.100  52.173  0.00  0.00    -0.061 SA
BRANCH   2   3
ATOM      3  C   UNL d   1      51.394  33.975  52.672  0.00  0.00     0.133 A 
ATOM      4  N   UNL d   1      51.362  33.407  53.262  0.00  0.00    -0.141 NA
ATOM      5  N   UNL d   1      52.007  33.283  53.761  0.00  0.00    -0.148 NA
ATOM      6  C   UNL d   1      52.696  33.735  53.670  0.00  0.00     0.103 A 
ATOM      7  C   UNL d   1      52.732  34.309  53.075  0.00  0.00     0.023 A 
ATOM      8  C   UNL d   1      52.087  34.430  52.579  0.00  0.00     0.029 A 
BRANCH   6   9
ATOM      9  C   UNL d   1      53.341  33.610  54.169  0.00  0.00     0.022 A 
ATOM     10  C   UNL d   1      53.890  33.016  53.980  0.00  0.00     0.022 A 
ATOM     11  C   UNL d   1      54.532  32.899  54.485  0.00  0.00     0.099 A 
ATOM     12  N   UNL d   1      54.625  33.357  55.156  0.00  0.00    -0.242 NA
ATOM     13  C   UNL d   1      54.067  33.949  55.334  0.00  0.00     0.099 A 
ATOM     14  C   UNL d   1      53.429  34.069  54.836  0.00  0.00     0.022 A 
ENDBRANCH   6   9
ENDBRANCH   2   3
ENDBRANCH   1   2
BRANCH   1  15
ATOM     15  C   UNL d   1      49.462  34.654  51.921  0.00  0.00     0.272 C 
ATOM     16  N   UNL d   1      48.811  35.087  52.177  0.00  0.00    -0.269 N 
ATOM     17  C   UNL d   1      48.176  35.201  51.675  0.00  0.00     0.102 A 
ATOM     18  C   UNL d   1      48.806  35.406  52.943  0.00  0.00     0.102 A 
ATOM     19  C   UNL d   1      47.521  35.635  51.928  0.00  0.00     0.104 A 
ATOM     20  N   UNL d   1      47.513  35.954  52.691  0.00  0.00    -0.249 N 
ATOM     21  C   UNL d   1      46.859  36.384  52.935  0.00  0.00     0.378 C 
ATOM     22  C   UNL d   1      48.156  35.835  53.189  0.00  0.00     0.104 A 
ATOM     23  O   UNL d   1      46.851  36.703  53.699  0.00  0.00    -0.237 OA
ATOM     24  O   UNL d   1      49.469  34.341  51.169  0.00  0.00    -0.266 OA
BRANCH  21  25
ATOM     25  O   UNL d   1      46.220  36.498  52.431  0.00  0.00    -0.257 OA
BRANCH  25  26
ATOM     26  C   UNL d   1      45.490  36.709  52.730  0.00  0.00     0.128 C 
ATOM     27  C   UNL d   1      44.831  36.704  52.251  0.00  0.00     0.029 C 
ENDBRANCH  25  26
ENDBRANCH  21  25
ENDBRANCH   1  15
TORSDOF 6
ENDMDL
MODEL 2
REMARK VINA RESULT:      -6.6      1.410      1.781
REMARK  6 active torsions:
REMARK  status: ('A' for Active; 'I' for Inactive)
REMARK       I    between atoms: C_2  and  N_1 
REMARK    1  A    between atoms: O_20  and  C_2 
REMARK       I    between atoms: C_5  and  N_3 
REMARK    2  A    between atoms: C_15  and  C_5 
REMARK    3  A    between atoms: C_7  and  S_13 
REMARK    4  A    between atoms: C_18  and  C_8 
REMARK    5  A    between atoms: S_13  and  C_15 
REMARK    6  A    between atoms: C_26  and  O_20 
ROOT
ATOM      1  C   UNL d   1      49.765  34.709  52.763  0.00  0.00     0.098 C 
ENDROOT
BRANCH   1   2
ATOM      2  S   UNL d   1      50.556  34.812  52.956  0.00  0.00    -0.061 SA
BRANCH   2   3
ATOM      3  C   UNL d   1      51.058  34.161  53.020  0.00  0.00     0.133 A 
ATOM      4  N   UNL d   1      50.789  33.456  53.339  0.00  0.00    -0.141 NA
ATOM      5  N   UNL d   1      51.291  32.805  53.404  0.00  0.00    -0.148 NA
ATOM      6  C   UNL d   1      52.077  32.859  53.145  0.00  0.00     0.103 A 
ATOM      7  C   UNL d   1      52.352  33.569  52.822  0.00  0.00     0.023 A 
ATOM      8  C   UNL d   1      51.848  34.217  52.759  0.00  0.00     0.029 A 
BRANCH   6   9
ATOM      9  C   UNL d   1      52.579  32.208  53.209  0.00  0.00     0.022 A 
ATOM     10  C   UNL d   1      52.391  31.510  52.799  0.00  0.00     0.022 A 
ATOM     11  C   UNL d   1      52.900  30.864  52.869  0.00  0.00     0.099 A 
ATOM     12  N   UNL d   1      53.572  30.909  53.333  0.00  0.00    -0.242 NA
ATOM     13  C   UNL d   1      53.748  31.614  53.739  0.00  0.00     0.099 A 
ATOM     14  C   UNL d   1      53.247  32.258  53.672  0.00  0.00     0.022 A 
ENDBRANCH   6   9
ENDBRANCH   2   3
ENDBRANCH   1   2
BRANCH   1  15
ATOM     15  C   UNL d   1      49.209  35.269  53.008  0.00  0.00     0.272 C 
ATOM     16  N   UNL d   1      48.507  35.360  52.588  0.00  0.00    -0.269 N 
ATOM     17  C   UNL d   1      47.957  35.914  52.831  0.00  0.00     0.102 A 
ATOM     18  C   UNL d   1      48.364  34.887  51.922  0.00  0.00     0.102 A 
ATOM     19  C   UNL d   1      47.251  36.008  52.413  0.00  0.00     0.104 A 
ATOM     20  N   UNL d   1      47.106  35.538  51.747  0.00  0.00    -0.249 N 
ATOM     21  C   UNL d   1      46.403  35.638  51.337  0.00  0.00     0.378 C 
ATOM     22  C   UNL d   1      47.664  34.984  51.510  0.00  0.00     0.104 A 
ATOM     23  O   UNL d   1      46.258  35.168  50.672  0.00  0.00    -0.237 OA
ATOM     24  O   UNL d   1      49.350  35.732  53.663  0.00  0.00    -0.266 OA
BRANCH  21  25
ATOM     25  O   UNL d   1      45.850  36.195  51.581  0.00  0.00    -0.257 OA
BRANCH  25  26
ATOM     26  C   UNL d   1      45.127  36.250  51.206  0.00  0.00     0.128 C 
ATOM     27  C   UNL d   1      44.523  36.686  51.537  0.00  0.00     0.029 C 
ENDBRANCH  25  26
ENDBRANCH  21  25
ENDBRANCH   1  15
TORSDOF 6
ENDMDL
MODEL 3
REMARK VINA RESULT:      -6.6      2.798      6.655
REMARK  6 active torsions:
REMARK  status: ('A' for Active; 'I' for Inactive)
REMARK       I    between atoms: C_2  and  N_1 
REMARK    1  A    between atoms: O_20  and  C_2 
REMARK       I    between atoms: C_5  and  N_3 
REMARK    2  A    between atoms: C_15  and  C_5 
REMARK    3  A    between atoms: C_7  and  S_13 
REMARK    4  A    between atoms: C_18  and  C_8 
REMARK    5  A    between atoms: S_13  and  C_15 
REMARK    6  A    between atoms: C_26  and  O_20 
ROOT
ATOM      1  C   UNL d   1      52.348  33.312  52.748  0.00  0.00     0.098 C 
ENDROOT
BRANCH   1   2
ATOM      2  S   UNL d   1      52.005  34.038  52.918  0.00  0.00    -0.061 SA
BRANCH   2   3
ATOM      3  C   UNL d   1      51.263  34.232  52.612  0.00  0.00     0.133 A 
ATOM      4  N   UNL d   1      51.140  34.260  51.803  0.00  0.00    -0.141 NA
ATOM      5  N   UNL d   1      50.398  34.453  51.498  0.00  0.00    -0.148 NA
ATOM      6  C   UNL d   1      49.769  34.621  52.011  0.00  0.00     0.103 A 
ATOM      7  C   UNL d   1      49.890  34.593  52.828  0.00  0.00     0.023 A 
ATOM      8  C   UNL d   1      50.631  34.400  53.130  0.00  0.00     0.029 A 
BRANCH   6   9
ATOM      9  C   UNL d   1      49.027  34.814  51.706  0.00  0.00     0.022 A 
ATOM     10  C   UNL d   1      48.800  34.503  50.970  0.00  0.00     0.022 A 
ATOM     11  C   UNL d   1      48.056  34.702  50.672  0.00  0.00     0.099 A 
ATOM     12  N   UNL d   1      47.555  35.193  51.093  0.00  0.00    -0.242 NA
ATOM     13  C   UNL d   1      47.796  35.498  51.829  0.00  0.00     0.099 A 
ATOM     14  C   UNL d   1      48.532  35.303  52.128  0.00  0.00     0.022 A 
ENDBRANCH   6   9
ENDBRANCH   2   3
ENDBRANCH   1   2
BRANCH   1  15
ATOM     15  C   UNL d   1      52.902  32.990  53.270  0.00  0.00     0.272 C 
ATOM     16  N   UNL d   1      52.946  32.174  53.368  0.00  0.00    -0.269 N 
ATOM     17  C   UNL d   1      53.493  31.856  53.885  0.00  0.00     0.102 A 
ATOM     18  C   UNL d   1      52.433  31.682  52.941  0.00  0.00     0.102 A 
ATOM     19  C   UNL d   1      53.541  31.038  53.986  0.00  0.00     0.104 A 
ATOM     20  N   UNL d   1      53.031  30.544  53.561  0.00  0.00    -0.249 N 
ATOM     21  C   UNL d   1      53.084  29.733  53.667  0.00  0.00     0.378 C 
ATOM     22  C   UNL d   1      52.483  30.873  53.044  0.00  0.00     0.104 A 
ATOM     23  O   UNL d   1      52.574  29.239  53.242  0.00  0.00    -0.237 OA
ATOM     24  O   UNL d   1      53.404  33.475  53.690  0.00  0.00    -0.266 OA
BRANCH  21  25
ATOM     25  O   UNL d   1      53.634  29.413  54.186  0.00  0.00    -0.257 OA
BRANCH  25  26
ATOM     26  C   UNL d   1      53.571  28.635  54.427  0.00  0.00     0.128 C 
ATOM     27  C   UNL d   1      53.696  28.433  55.207  0.00  0.00     0.029 C 
ENDBRANCH  25  26
ENDBRANCH  21  25
ENDBRANCH   1  15
TORSDOF 6
ENDMDL
MODEL 4
REMARK VINA RESULT:      -6.2      1.837      6.399
REMARK  6 active torsions:
REMARK  status: ('A' for Active; 'I' for Inactive)
REMARK       I    between atoms: C_2  and  N_1 
REMARK    1  A    between atoms: O_20  and  C_2 
REMARK       I    between atoms: C_5  and  N_3 
REMARK    2  A    between atoms: C_15  and  C_5 
REMARK    3  A    between atoms: C_7  and  S_13 
REMARK    4  A    between atoms: C_18  and  C_8 
REMARK    5  A    between atoms: S_13  and  C_15 
REMARK    6  A    between atoms: C_26  and  O_20 
ROOT
ATOM      1  C   UNL d   1      50.458  34.526  52.454  0.00  0.00     0.098 C 
ENDROOT
BRANCH   1   2
ATOM      2  S   UNL d   1      49.882  34.466  51.872  0.00  0.00    -0.061 SA
BRANCH   2   3
ATOM      3  C   UNL d   1      49.151  34.836  51.968  0.00  0.00     0.133 A 
ATOM      4  N   UNL d   1      48.956  35.196  52.678  0.00  0.00    -0.141 NA
ATOM      5  N   UNL d   1      48.225  35.566  52.774  0.00  0.00    -0.148 NA
ATOM      6  C   UNL d   1      47.680  35.576  52.150  0.00  0.00     0.103 A 
ATOM      7  C   UNL d   1      47.874  35.214  51.432  0.00  0.00     0.023 A 
ATOM      8  C   UNL d   1      48.604  34.846  51.339  0.00  0.00     0.029 A 
BRANCH   6   9
ATOM      9  C   UNL d   1      46.949  35.946  52.246  0.00  0.00     0.022 A 
ATOM     10  C   UNL d   1      46.787  36.342  52.958  0.00  0.00     0.022 A 
ATOM     11  C   UNL d   1      46.052  36.709  53.046  0.00  0.00     0.099 A 
ATOM     12  N   UNL d   1      45.498  36.684  52.444  0.00  0.00    -0.242 NA
ATOM     13  C   UNL d   1      45.674  36.284  51.736  0.00  0.00     0.099 A 
ATOM     14  C   UNL d   1      46.400  35.918  51.645  0.00  0.00     0.022 A 
ENDBRANCH   6   9
ENDBRANCH   2   3
ENDBRANCH   1   2
BRANCH   1  15
ATOM     15  C   UNL d   1      51.146  34.071  52.396  0.00  0.00     0.272 C 
ATOM     16  N   UNL d   1      51.729  34.136  52.972  0.00  0.00    -0.269 N 
ATOM     17  C   UNL d   1      52.410  33.686  52.915  0.00  0.00     0.102 A 
ATOM     18  C   UNL d   1      51.622  34.660  53.607  0.00  0.00     0.102 A 
ATOM     19  C   UNL d   1      52.998  33.749  53.491  0.00  0.00     0.104 A 
ATOM     20  N   UNL d   1      52.893  34.270  54.125  0.00  0.00    -0.249 N 
ATOM     21  C   UNL d   1      53.482  34.327  54.693  0.00  0.00     0.378 C 
ATOM     22  C   UNL d   1      52.207  34.719  54.175  0.00  0.00     0.104 A 
ATOM     23  O   UNL d   1      53.377  34.848  55.327  0.00  0.00    -0.237 OA
ATOM     24  O   UNL d   1      51.250  33.557  51.772  0.00  0.00    -0.266 OA
BRANCH  21  25
ATOM     25  O   UNL d   1      54.165  33.874  54.636  0.00  0.00    -0.257 OA
BRANCH  25  26
ATOM     26  C   UNL d   1      54.717  33.881  55.238  0.00  0.00     0.128 C 
ATOM     27  C   UNL d   1      55.493  33.681  55.089  0.00  0.00     0.029 C 
ENDBRANCH  25  26
ENDBRANCH  21  25
ENDBRANCH   1  15
TORSDOF 6
ENDMDL
MODEL 5
REMARK VINA RESULT:      -5.4     10.728     11.469
REMARK  6 active torsions:
REMARK  status: ('A' for Active; 'I' for Inactive)
REMARK       I    between atoms: C_2  and  N_1 
REMARK    1  A    between atoms: O_20  and  C_2 
REMARK       I    between atoms: C_5  and  N_3 
REMARK    2  A    between atoms: C_15  and  C_5 
REMARK    3  A    between atoms: C_7  and  S_13 
REMARK    4  A    between atoms: C_18  and  C_8 
REMARK    5  A    between atoms: S_13  and  C_15 
REMARK    6  A    between atoms: C_26  and  O_20 
ROOT
ATOM      1  C   UNL d   1      44.847  28.202  58.052  0.00  0.00     0.098 C 
ENDROOT
BRANCH   1   2
ATOM      2  S   UNL d   1      45.010  28.996  58.183  0.00  0.00    -0.061 SA
BRANCH   2   3
ATOM      3  C   UNL d   1      44.904  29.326  58.932  0.00  0.00     0.133 A 
ATOM      4  N   UNL d   1      44.477  28.928  59.506  0.00  0.00    -0.141 NA
ATOM      5  N   UNL d   1      44.371  29.258  60.255  0.00  0.00    -0.148 NA
ATOM      6  C   UNL d   1      44.699  29.999  60.432  0.00  0.00     0.103 A 
ATOM      7  C   UNL d   1      45.131  30.403  59.854  0.00  0.00     0.023 A 
ATOM      8  C   UNL d   1      45.235  30.071  59.109  0.00  0.00     0.029 A 
BRANCH   6   9
ATOM      9  C   UNL d   1      44.593  30.329  61.181  0.00  0.00     0.022 A 
ATOM     10  C   UNL d   1      44.663  29.842  61.850  0.00  0.00     0.022 A 
ATOM     11  C   UNL d   1      44.556  30.181  62.596  0.00  0.00     0.099 A 
ATOM     12  N   UNL d   1      44.385  30.977  62.672  0.00  0.00    -0.242 NA
ATOM     13  C   UNL d   1      44.318  31.453  61.993  0.00  0.00     0.099 A 
ATOM     14  C   UNL d   1      44.423  31.122  61.252  0.00  0.00     0.022 A 
ENDBRANCH   6   9
ENDBRANCH   2   3
ENDBRANCH   1   2
BRANCH   1  15
ATOM     15  C   UNL d   1      44.921  27.891  57.290  0.00  0.00     0.272 C 
ATOM     16  N   UNL d   1      44.836  27.081  57.169  0.00  0.00    -0.269 N 
ATOM     17  C   UNL d   1      44.909  26.773  56.414  0.00  0.00     0.102 A 
ATOM     18  C   UNL d   1      44.676  26.585  57.814  0.00  0.00     0.102 A 
ATOM     19  C   UNL d   1      44.824  25.962  56.289  0.00  0.00     0.104 A 
ATOM     20  N   UNL d   1      44.664  25.464  56.930  0.00  0.00    -0.249 N 
ATOM     21  C   UNL d   1      44.581  24.660  56.797  0.00  0.00     0.378 C 
ATOM     22  C   UNL d   1      44.592  25.782  57.684  0.00  0.00     0.104 A 
ATOM     23  O   UNL d   1      44.421  24.162  57.438  0.00  0.00    -0.237 OA
ATOM     24  O   UNL d   1      45.079  28.379  56.658  0.00  0.00    -0.266 OA
BRANCH  21  25
ATOM     25  O   UNL d   1      44.654  24.350  56.039  0.00  0.00    -0.257 OA
BRANCH  25  26
ATOM     26  C   UNL d   1      44.622  23.543  55.918  0.00  0.00     0.128 C 
ATOM     27  C   UNL d   1      44.851  23.224  55.204  0.00  0.00     0.029 C 
ENDBRANCH  25  26
ENDBRANCH  21  25
ENDBRANCH   1  15
TORSDOF 6
ENDMDL
MODEL 6
REMARK VINA RESULT:      -5.3     10.911     11.645
REMARK  6 active torsions:
REMARK  status: ('A' for Active; 'I' for Inactive)
REMARK       I    between atoms: C_2  and  N_1 
REMARK    1  A    between atoms: O_20  and  C_2 
REMARK       I    between atoms: C_5  and  N_3 
REMARK    2  A    between atoms: C_15  and  C_5 
REMARK    3  A    between atoms: C_7  and  S_13 
REMARK    4  A    between atoms: C_18  and  C_8 
REMARK    5  A    between atoms: S_13  and  C_15 
REMARK    6  A    between atoms: C_26  and  O_20 
ROOT
ATOM      1  C   UNL d   1      44.882  29.459  59.638  0.00  0.00     0.098 C 
ENDROOT
BRANCH   1   2
ATOM      2  S   UNL d   1      44.894  30.240  59.891  0.00  0.00    -0.061 SA
BRANCH   2   3
ATOM      3  C   UNL d   1      44.799  30.421  60.690  0.00  0.00     0.133 A 
ATOM      4  N   UNL d   1      45.045  29.896  61.269  0.00  0.00    -0.141 NA
ATOM      5  N   UNL d   1      44.950  30.077  62.068  0.00  0.00    -0.148 NA
ATOM      6  C   UNL d   1      44.601  30.795  62.293  0.00  0.00     0.103 A 
ATOM      7  C   UNL d   1      44.351  31.327  61.710  0.00  0.00     0.023 A 
ATOM      8  C   UNL d   1      44.448  31.143  60.914  0.00  0.00     0.029 A 
BRANCH   6   9
ATOM      9  C   UNL d   1      44.505  30.976  63.092  0.00  0.00     0.022 A 
ATOM     10  C   UNL d   1      44.465  31.773  63.323  0.00  0.00     0.022 A 
ATOM     11  C   UNL d   1      44.369  31.944  64.125  0.00  0.00     0.099 A 
ATOM     12  N   UNL d   1      44.315  31.344  64.678  0.00  0.00    -0.242 NA
ATOM     13  C   UNL d   1      44.358  30.550  64.432  0.00  0.00     0.099 A 
ATOM     14  C   UNL d   1      44.453  30.375  63.638  0.00  0.00     0.022 A 
ENDBRANCH   6   9
ENDBRANCH   2   3
ENDBRANCH   1   2
BRANCH   1  15
ATOM     15  C   UNL d   1      44.952  29.291  58.831  0.00  0.00     0.272 C 
ATOM     16  N   UNL d   1      44.907  28.512  58.570  0.00  0.00    -0.269 N 
ATOM     17  C   UNL d   1      44.977  28.345  57.773  0.00  0.00     0.102 A 
ATOM     18  C   UNL d   1      44.792  27.902  59.120  0.00  0.00     0.102 A 
ATOM     19  C   UNL d   1      44.933  27.565  57.507  0.00  0.00     0.104 A 
ATOM     20  N   UNL d   1      44.817  26.954  58.053  0.00  0.00    -0.249 N 
ATOM     21  C   UNL d   1      44.774  26.182  57.782  0.00  0.00     0.378 C 
ATOM     22  C   UNL d   1      44.749  27.130  58.853  0.00  0.00     0.104 A 
ATOM     23  O   UNL d   1      44.659  25.571  58.328  0.00  0.00    -0.237 OA
ATOM     24  O   UNL d   1      45.065  29.891  58.292  0.00  0.00    -0.266 OA
BRANCH  21  25
ATOM     25  O   UNL d   1      44.844  26.014  56.980  0.00  0.00    -0.257 OA
BRANCH  25  26
ATOM     26  C   UNL d   1      44.580  25.301  56.683  0.00  0.00     0.128 C 
ATOM     27  C   UNL d   1      44.743  25.090  55.912  0.00  0.00     0.029 C 
ENDBRANCH  25  26
ENDBRANCH  21  25
ENDBRANCH   1  15
TORSDOF 6
ENDMDL
MODEL 7
REMARK VINA RESULT:      -5.2     10.791     11.863
REMARK  6 active torsions:
REMARK  status: ('A' for Active; 'I' for Inactive)
REMARK       I    between atoms: C_2  and  N_1 
REMARK    1  A    between atoms: O_20  and  C_2 
REMARK       I    between atoms: C_5  and  N_3 
REMARK    2  A    between atoms: C_15  and  C_5 
REMARK    3  A    between atoms: C_7  and  S_13 
REMARK    4  A    between atoms: C_18  and  C_8 
REMARK    5  A    between atoms: S_13  and  C_15 
REMARK    6  A    between atoms: C_26  and  O_20 
ROOT
ATOM      1  C   UNL d   1      44.671  30.164  60.783  0.00  0.00     0.098 C 
ENDROOT
BRANCH   1   2
ATOM      2  S   UNL d   1      44.824  30.766  60.246  0.00  0.00    -0.061 SA
BRANCH   2   3
ATOM      3  C   UNL d   1      44.777  30.622  59.435  0.00  0.00     0.133 A 
ATOM      4  N   UNL d   1      44.950  29.881  59.132  0.00  0.00    -0.141 NA
ATOM      5  N   UNL d   1      44.903  29.738  58.321  0.00  0.00    -0.148 NA
ATOM      6  C   UNL d   1      44.680  30.346  57.803  0.00  0.00     0.103 A 
ATOM      7  C   UNL d   1      44.505  31.096  58.107  0.00  0.00     0.023 A 
ATOM      8  C   UNL d   1      44.552  31.235  58.916  0.00  0.00     0.029 A 
BRANCH   6   9
ATOM      9  C   UNL d   1      44.633  30.203  56.992  0.00  0.00     0.022 A 
ATOM     10  C   UNL d   1      44.794  29.440  56.707  0.00  0.00     0.022 A 
ATOM     11  C   UNL d   1      44.745  29.305  55.894  0.00  0.00     0.099 A 
ATOM     12  N   UNL d   1      44.543  29.911  55.382  0.00  0.00    -0.242 NA
ATOM     13  C   UNL d   1      44.384  30.671  55.681  0.00  0.00     0.099 A 
ATOM     14  C   UNL d   1      44.432  30.808  56.487  0.00  0.00     0.022 A 
ENDBRANCH   6   9
ENDBRANCH   2   3
ENDBRANCH   1   2
BRANCH   1  15
ATOM     15  C   UNL d   1      44.631  30.339  61.591  0.00  0.00     0.272 C 
ATOM     16  N   UNL d   1      44.573  29.728  62.139  0.00  0.00    -0.269 N 
ATOM     17  C   UNL d   1      44.533  29.901  62.937  0.00  0.00     0.102 A 
ATOM     18  C   UNL d   1      44.555  28.942  61.876  0.00  0.00     0.102 A 
ATOM     19  C   UNL d   1      44.475  29.291  63.490  0.00  0.00     0.104 A 
ATOM     20  N   UNL d   1      44.457  28.506  63.231  0.00  0.00    -0.249 N 
ATOM     21  C   UNL d   1      44.399  27.906  63.787  0.00  0.00     0.378 C 
ATOM     22  C   UNL d   1      44.498  28.341  62.427  0.00  0.00     0.104 A 
ATOM     23  O   UNL d   1      44.382  27.120  63.528  0.00  0.00    -0.237 OA
ATOM     24  O   UNL d   1      44.648  31.112  61.847  0.00  0.00    -0.266 OA
BRANCH  21  25
ATOM     25  O   UNL d   1      44.359  28.079  64.589  0.00  0.00    -0.257 OA
BRANCH  25  26
ATOM     26  C   UNL d   1      44.314  27.478  65.140  0.00  0.00     0.128 C 
ATOM     27  C   UNL d   1      44.737  27.524  65.836  0.00  0.00     0.029 C 
ENDBRANCH  25  26
ENDBRANCH  21  25
ENDBRANCH   1  15
TORSDOF 6
ENDMDL
