MODEL 1
REMARK VINA RESULT:     128.2      0.000      0.000
REMARK  6 active torsions:
REMARK  status: ('A' for Active; 'I' for Inactive)
REMARK    1  A    between atoms: C_2  and  S_1 
REMARK    2  A    between atoms: C_13  and  S_1 
REMARK    3  A    between atoms: C_5  and  C_3 
REMARK    4  A    between atoms: C_16  and  C_5 
REMARK    5  A    between atoms: O_30  and  C_24 
REMARK    6  A    between atoms: C_33  and  O_30 
ROOT
ATOM      1  C   UNL d   1     -51.274  24.838  33.583  0.00  0.00     0.094 A 
ATOM      2  C   UNL d   1     -51.967  24.393  33.605  0.00  0.00     0.069 A 
ATOM      3  C   UNL d   1     -50.544  24.459  33.587  0.00  0.00     0.031 A 
ATOM      4  C   UNL d   1     -50.505  23.634  33.614  0.00  0.00     0.084 A 
ATOM      5  C   UNL d   1     -49.851  24.903  33.565  0.00  0.00     0.029 A 
ATOM      6  N   UNL d   1     -51.197  23.190  33.636  0.00  0.00    -0.244 NA
ATOM      7  C   UNL d   1     -51.929  23.569  33.632  0.00  0.00     0.103 A 
ATOM      8  C   UNL d   1     -49.774  23.256  33.618  0.00  0.00     0.046 A 
ATOM      9  C   UNL d   1     -49.120  24.525  33.569  0.00  0.00     0.123 A 
ATOM     10  C   UNL d   1     -49.082  23.700  33.595  0.00  0.00     0.124 A 
ATOM     11  O   UNL d   1     -48.427  24.969  33.547  0.00  0.00    -0.301 OA
ATOM     12  O   UNL d   1     -48.351  23.321  33.600  0.00  0.00    -0.301 OA
ATOM     13  C   UNL d   1     -47.684  24.591  33.551  0.00  0.00     0.149 A 
ATOM     14  C   UNL d   1     -47.646  23.766  33.577  0.00  0.00     0.149 A 
ENDROOT
BRANCH   1  15
ATOM     15  S   UNL d   1     -51.308  25.661  33.557  0.00  0.00     0.210 S 
ATOM     16  O   UNL d   1     -52.096  25.641  33.800  0.00  0.00    -0.217 OA
ATOM     17  O   UNL d   1     -50.520  25.682  33.313  0.00  0.00    -0.217 OA
BRANCH  15  18
ATOM     18  C   UNL d   1     -51.335  26.486  33.528  0.00  0.00     0.088 A 
ATOM     19  C   UNL d   1     -52.036  26.868  33.334  0.00  0.00     0.013 A 
ATOM     20  C   UNL d   1     -52.058  27.697  33.306  0.00  0.00     0.025 A 
ATOM     21  C   UNL d   1     -51.380  28.134  33.472  0.00  0.00     0.100 A 
ATOM     22  C   UNL d   1     -50.681  27.755  33.665  0.00  0.00     0.025 A 
ATOM     23  C   UNL d   1     -50.658  26.922  33.694  0.00  0.00     0.013 A 
BRANCH  21  24
ATOM     24  O   UNL d   1     -51.403  28.966  33.444  0.00  0.00    -0.305 OA
BRANCH  24  25
ATOM     25  C   UNL d   1     -50.937  29.410  33.957  0.00  0.00     0.123 C 
ATOM     26  C   UNL d   1     -51.258  30.066  34.338  0.00  0.00     0.029 C 
ENDBRANCH  24  25
ENDBRANCH  21  24
ENDBRANCH  15  18
ENDBRANCH   1  15
BRANCH   2  27
ATOM     27  C   UNL d   1     -52.710  24.771  33.601  0.00  0.00     0.198 C 
ATOM     28  O   UNL d   1     -52.776  25.539  33.306  0.00  0.00    -0.286 OA
BRANCH  27  29
ATOM     29  C   UNL d   1     -53.375  24.378  33.892  0.00  0.00     0.039 A 
ATOM     30  C   UNL d   1     -53.292  23.744  34.421  0.00  0.00     0.003 A 
ATOM     31  C   UNL d   1     -53.956  23.350  34.712  0.00  0.00     0.000 A 
ATOM     32  C   UNL d   1     -54.713  23.583  34.481  0.00  0.00     0.000 A 
ATOM     33  C   UNL d   1     -54.795  24.228  33.943  0.00  0.00     0.000 A 
ATOM     34  C   UNL d   1     -55.380  23.194  34.768  0.00  0.00     0.000 C 
ATOM     35  C   UNL d   1     -54.134  24.622  33.651  0.00  0.00     0.003 A 
ENDBRANCH  27  29
ENDBRANCH   2  27
TORSDOF 6
ENDMDL
