MODEL 1
REMARK VINA RESULT:      -4.0      0.000      0.000
REMARK  3 active torsions:
REMARK  status: ('A' for Active; 'I' for Inactive)
REMARK    1  A    between atoms: C_2  and  C_1 
REMARK    2  A    between atoms: C_13  and  C_8 
REMARK    3  A    between atoms: O_23  and  C_20 
ROOT
ATOM      1  C   UNL d   1      32.110  17.717 -23.563  0.00  0.00     0.106 A 
ATOM      2  C   UNL d   1      32.479  16.994 -23.308  0.00  0.00     0.304 A 
ATOM      3  C   UNL d   1      31.367  17.693 -23.916  0.00  0.00     0.011 A 
ATOM      4  C   UNL d   1      30.991  16.985 -24.018  0.00  0.00     0.023 A 
ATOM      5  O   UNL d   1      32.090  16.274 -23.414  0.00  0.00    -0.273 OA
ATOM      6  C   UNL d   1      31.359  16.263 -23.762  0.00  0.00     0.103 A 
ATOM      7  C   UNL d   1      30.248  16.962 -24.371  0.00  0.00     0.002 A 
ATOM      8  O   UNL d   1      33.241  17.026 -22.946  0.00  0.00    -0.259 OA
ATOM      9  C   UNL d   1      30.971  15.543 -23.868  0.00  0.00     0.025 A 
ATOM     10  C   UNL d   1      29.855  16.243 -24.480  0.00  0.00     0.000 A 
ATOM     11  C   UNL d   1      30.223  15.520 -24.224  0.00  0.00     0.002 A 
ATOM     12  C   UNL d   1      29.908  17.677 -24.613  0.00  0.00     0.000 A 
ATOM     13  C   UNL d   1      29.129  16.230 -24.826  0.00  0.00     0.000 A 
ATOM     14  C   UNL d   1      29.159  17.653 -24.968  0.00  0.00     0.000 A 
ATOM     15  C   UNL d   1      28.771  16.934 -25.075  0.00  0.00     0.000 A 
ENDROOT
BRANCH   1  16
ATOM     16  C   UNL d   1      32.504  18.436 -23.455  0.00  0.00     0.210 A 
ATOM     17  O   UNL d   1      32.367  18.888 -22.785  0.00  0.00    -0.268 OA
ATOM     18  C   UNL d   1      32.828  19.561 -22.829  0.00  0.00     0.204 A 
ATOM     19  N   UNL d   1      33.241  19.513 -23.524  0.00  0.00    -0.121 NA
ATOM     20  N   UNL d   1      33.043  18.823 -23.909  0.00  0.00    -0.121 NA
BRANCH  18  21
ATOM     21  C   UNL d   1      32.933  20.218 -22.331  0.00  0.00     0.043 A 
ATOM     22  C   UNL d   1      33.123  20.948 -22.653  0.00  0.00     0.006 A 
ATOM     23  C   UNL d   1      33.228  21.595 -22.187  0.00  0.00     0.024 A 
ATOM     24  C   UNL d   1      33.138  21.508 -21.350  0.00  0.00     0.094 A 
ATOM     25  C   UNL d   1      32.947  20.775 -21.031  0.00  0.00     0.024 A 
ATOM     26  C   UNL d   1      32.846  20.131 -21.530  0.00  0.00     0.006 A 
BRANCH  24  27
ATOM     27  O   UNL d   1      33.238  22.148 -20.837  0.00  0.00    -0.328 OA
ATOM     28  C   UNL d   1      32.590  22.537 -20.530  0.00  0.00     0.181 C 
ENDBRANCH  24  27
ENDBRANCH  18  21
ENDBRANCH   1  16
TORSDOF 3
ENDMDL
MODEL 2
REMARK VINA RESULT:      -1.6      1.702      2.404
REMARK  3 active torsions:
REMARK  status: ('A' for Active; 'I' for Inactive)
REMARK    1  A    between atoms: C_2  and  C_1 
REMARK    2  A    between atoms: C_13  and  C_8 
REMARK    3  A    between atoms: O_23  and  C_20 
ROOT
ATOM      1  C   UNL d   1      32.654  19.042 -23.862  0.00  0.00     0.106 A 
ATOM      2  C   UNL d   1      32.314  19.055 -24.641  0.00  0.00     0.304 A 
ATOM      3  C   UNL d   1      32.799  18.321 -23.491  0.00  0.00     0.011 A 
ATOM      4  C   UNL d   1      32.618  17.631 -23.869  0.00  0.00     0.023 A 
ATOM      5  O   UNL d   1      32.131  18.346 -25.022  0.00  0.00    -0.273 OA
ATOM      6  C   UNL d   1      32.278  17.643 -24.648  0.00  0.00     0.103 A 
ATOM      7  C   UNL d   1      32.763  16.910 -23.498  0.00  0.00     0.002 A 
ATOM      8  O   UNL d   1      32.168  19.798 -25.014  0.00  0.00    -0.259 OA
ATOM      9  C   UNL d   1      32.096  16.935 -25.029  0.00  0.00     0.025 A 
ATOM     10  C   UNL d   1      32.582  16.197 -23.876  0.00  0.00     0.000 A 
ATOM     11  C   UNL d   1      32.242  16.210 -24.655  0.00  0.00     0.002 A 
ATOM     12  C   UNL d   1      33.095  16.921 -22.739  0.00  0.00     0.000 A 
ATOM     13  C   UNL d   1      32.727  15.498 -23.505  0.00  0.00     0.000 A 
ATOM     14  C   UNL d   1      33.241  16.195 -22.366  0.00  0.00     0.000 A 
ATOM     15  C   UNL d   1      33.058  15.486 -22.747  0.00  0.00     0.000 A 
ENDROOT
BRANCH   1  16
ATOM     16  C   UNL d   1      32.836  19.755 -23.484  0.00  0.00     0.210 A 
ATOM     17  O   UNL d   1      32.618  19.880 -22.705  0.00  0.00    -0.268 OA
ATOM     18  C   UNL d   1      32.868  20.626 -22.482  0.00  0.00     0.204 A 
ATOM     19  N   UNL d   1      33.236  20.947 -23.128  0.00  0.00    -0.121 NA
ATOM     20  N   UNL d   1      33.217  20.414 -23.743  0.00  0.00    -0.121 NA
BRANCH  18  21
ATOM     21  C   UNL d   1      32.814  21.063 -21.778  0.00  0.00     0.043 A 
ATOM     22  C   UNL d   1      32.539  21.836 -21.796  0.00  0.00     0.006 A 
ATOM     23  C   UNL d   1      32.479  22.275 -21.125  0.00  0.00     0.024 A 
ATOM     24  C   UNL d   1      32.707  21.921 -20.391  0.00  0.00     0.094 A 
ATOM     25  C   UNL d   1      32.982  21.146 -20.376  0.00  0.00     0.024 A 
ATOM     26  C   UNL d   1      33.033  20.721 -21.076  0.00  0.00     0.006 A 
BRANCH  24  27
ATOM     27  O   UNL d   1      32.661  22.337 -19.680  0.00  0.00    -0.328 OA
ATOM     28  C   UNL d   1      32.605  23.151 -19.679  0.00  0.00     0.181 C 
ENDBRANCH  24  27
ENDBRANCH  18  21
ENDBRANCH   1  16
TORSDOF 3
ENDMDL
