MODEL 1
REMARK VINA RESULT:       0.7      0.000      0.000
REMARK  5 active torsions:
REMARK  status: ('A' for Active; 'I' for Inactive)
REMARK    1  A    between atoms: S_3  and  N_1 
REMARK    2  A    between atoms: S_4  and  N_8 
REMARK    3  A    between atoms: C_12  and  C_5 
REMARK    4  A    between atoms: C_9  and  C_6 
REMARK    5  A    between atoms: N_8  and  C_16 
ROOT
ATOM      1  N   UNL d   1      29.370  17.453 -24.296  0.00  0.00    -0.155 N 
ATOM      2  N   UNL d   1      30.188  17.545 -24.403  0.00  0.00    -0.156 NA
ATOM      3  C   UNL d   1      29.244  16.701 -23.961  0.00  0.00     0.096 A 
ATOM      4  C   UNL d   1      30.563  16.859 -24.138  0.00  0.00     0.104 A 
ATOM      5  C   UNL d   1      29.977  16.341 -23.867  0.00  0.00     0.041 A 
ENDROOT
BRANCH   4   6
ATOM      6  C   UNL d   1      31.374  16.715 -24.143  0.00  0.00     0.021 A 
ATOM      7  C   UNL d   1      31.894  17.307 -23.911  0.00  0.00     0.021 A 
ATOM      8  C   UNL d   1      32.711  17.163 -23.915  0.00  0.00     0.093 A 
ATOM      9  C   UNL d   1      33.002  16.423 -24.155  0.00  0.00     0.020 A 
ATOM     10  C   UNL d   1      32.471  15.832 -24.388  0.00  0.00     0.002 A 
ATOM     11  C   UNL d   1      31.663  15.973 -24.384  0.00  0.00     0.002 A 
BRANCH   8  12
ATOM     12  N   UNL d   1      33.239  17.763 -23.680  0.00  0.00    -0.162 NA
BRANCH  12  13
ATOM     13  S   UNL d   1      33.086  18.545 -23.874  0.00  0.00     0.266 S 
ATOM     14  O   UNL d   1      32.877  19.343 -23.766  0.00  0.00    -0.203 OA
ATOM     15  O   UNL d   1      32.928  18.618 -23.064  0.00  0.00    -0.203 OA
ATOM     16  C   UNL d   1      33.241  18.485 -24.679  0.00  0.00     0.165 C 
ENDBRANCH  12  13
ENDBRANCH   8  12
ENDBRANCH   4   6
BRANCH   1  17
ATOM     17  S   UNL d   1      28.792  18.012 -24.490  0.00  0.00     0.266 S 
ATOM     18  O   UNL d   1      28.328  18.396 -25.054  0.00  0.00    -0.203 OA
ATOM     19  O   UNL d   1      29.145  17.557 -25.084  0.00  0.00    -0.203 OA
ATOM     20  C   UNL d   1      28.484  18.427 -23.855  0.00  0.00     0.165 C 
ENDBRANCH   1  17
BRANCH   3  21
ATOM     21  C   UNL d   1      28.514  16.385 -23.765  0.00  0.00     0.018 A 
ATOM     22  C   UNL d   1      28.092  16.706 -23.133  0.00  0.00     0.002 A 
ATOM     23  C   UNL d   1      27.356  16.393 -22.930  0.00  0.00     0.000 A 
ATOM     24  C   UNL d   1      27.046  15.766 -23.355  0.00  0.00     0.000 A 
ATOM     25  C   UNL d   1      27.476  15.453 -23.986  0.00  0.00     0.000 A 
ATOM     26  C   UNL d   1      26.309  15.453 -23.152  0.00  0.00     0.000 C 
ATOM     27  C   UNL d   1      28.200  15.755 -24.191  0.00  0.00     0.002 A 
ENDBRANCH   3  21
TORSDOF 5
ENDMDL
MODEL 2
REMARK VINA RESULT:       1.7      1.953      3.064
REMARK  5 active torsions:
REMARK  status: ('A' for Active; 'I' for Inactive)
REMARK    1  A    between atoms: S_3  and  N_1 
REMARK    2  A    between atoms: S_4  and  N_8 
REMARK    3  A    between atoms: C_12  and  C_5 
REMARK    4  A    between atoms: C_9  and  C_6 
REMARK    5  A    between atoms: N_8  and  C_16 
ROOT
ATOM      1  N   UNL d   1      31.701  17.044 -23.822  0.00  0.00    -0.155 N 
ATOM      2  N   UNL d   1      32.298  17.605 -23.689  0.00  0.00    -0.156 NA
ATOM      3  C   UNL d   1      31.037  17.450 -24.118  0.00  0.00     0.096 A 
ATOM      4  C   UNL d   1      32.007  18.348 -23.899  0.00  0.00     0.104 A 
ATOM      5  C   UNL d   1      31.229  18.247 -24.163  0.00  0.00     0.041 A 
ENDROOT
BRANCH   4   6
ATOM      6  C   UNL d   1      32.417  19.061 -23.854  0.00  0.00     0.021 A 
ATOM      7  C   UNL d   1      32.621  19.369 -23.121  0.00  0.00     0.021 A 
ATOM      8  C   UNL d   1      33.034  20.087 -23.075  0.00  0.00     0.093 A 
ATOM      9  C   UNL d   1      33.241  20.493 -23.769  0.00  0.00     0.020 A 
ATOM     10  C   UNL d   1      33.031  20.176 -24.505  0.00  0.00     0.002 A 
ATOM     11  C   UNL d   1      32.623  19.466 -24.552  0.00  0.00     0.002 A 
BRANCH   8  12
ATOM     12  N   UNL d   1      33.241  20.400 -22.331  0.00  0.00    -0.162 NA
BRANCH  12  13
ATOM     13  S   UNL d   1      32.855  21.064 -22.043  0.00  0.00     0.266 S 
ATOM     14  O   UNL d   1      32.363  21.523 -21.554  0.00  0.00    -0.203 OA
ATOM     15  O   UNL d   1      32.551  20.532 -21.485  0.00  0.00    -0.203 OA
ATOM     16  C   UNL d   1      33.150  21.601 -22.591  0.00  0.00     0.165 C 
ENDBRANCH  12  13
ENDBRANCH   8  12
ENDBRANCH   4   6
BRANCH   1  17
ATOM     17  S   UNL d   1      31.764  16.231 -23.684  0.00  0.00     0.266 S 
ATOM     18  O   UNL d   1      31.783  15.593 -23.161  0.00  0.00    -0.203 OA
ATOM     19  O   UNL d   1      31.671  16.753 -23.049  0.00  0.00    -0.203 OA
ATOM     20  C   UNL d   1      31.853  15.770 -24.354  0.00  0.00     0.165 C 
ENDBRANCH   1  17
BRANCH   3  21
ATOM     21  C   UNL d   1      30.323  17.105 -24.323  0.00  0.00     0.018 A 
ATOM     22  C   UNL d   1      30.314  16.500 -24.885  0.00  0.00     0.002 A 
ATOM     23  C   UNL d   1      29.598  16.148 -25.097  0.00  0.00     0.000 A 
ATOM     24  C   UNL d   1      28.900  16.399 -24.750  0.00  0.00     0.000 A 
ATOM     25  C   UNL d   1      28.920  17.004 -24.190  0.00  0.00     0.000 A 
ATOM     26  C   UNL d   1      28.183  16.046 -24.963  0.00  0.00     0.000 C 
ATOM     27  C   UNL d   1      29.619  17.355 -23.977  0.00  0.00     0.002 A 
ENDBRANCH   3  21
TORSDOF 5
ENDMDL
MODEL 3
REMARK VINA RESULT:       1.9      2.864      4.488
REMARK  5 active torsions:
REMARK  status: ('A' for Active; 'I' for Inactive)
REMARK    1  A    between atoms: S_3  and  N_1 
REMARK    2  A    between atoms: S_4  and  N_8 
REMARK    3  A    between atoms: C_12  and  C_5 
REMARK    4  A    between atoms: C_9  and  C_6 
REMARK    5  A    between atoms: N_8  and  C_16 
ROOT
ATOM      1  N   UNL d   1      31.674  18.650 -23.483  0.00  0.00    -0.155 N 
ATOM      2  N   UNL d   1      31.702  19.327 -23.002  0.00  0.00    -0.156 NA
ATOM      3  C   UNL d   1      32.409  18.266 -23.420  0.00  0.00     0.096 A 
ATOM      4  C   UNL d   1      32.447  19.360 -22.647  0.00  0.00     0.104 A 
ATOM      5  C   UNL d   1      32.879  18.705 -22.907  0.00  0.00     0.041 A 
ENDROOT
BRANCH   4   6
ATOM      6  C   UNL d   1      32.711  19.942 -22.126  0.00  0.00     0.021 A 
ATOM      7  C   UNL d   1      32.840  20.705 -22.400  0.00  0.00     0.021 A 
ATOM      8  C   UNL d   1      33.106  21.291 -21.877  0.00  0.00     0.093 A 
ATOM      9  C   UNL d   1      33.241  21.106 -21.078  0.00  0.00     0.020 A 
ATOM     10  C   UNL d   1      33.108  20.334 -20.811  0.00  0.00     0.002 A 
ATOM     11  C   UNL d   1      32.845  19.753 -21.327  0.00  0.00     0.002 A 
BRANCH   8  12
ATOM     12  N   UNL d   1      33.238  22.066 -22.153  0.00  0.00    -0.162 NA
BRANCH  12  13
ATOM     13  S   UNL d   1      32.687  22.655 -22.002  0.00  0.00     0.266 S 
ATOM     14  O   UNL d   1      32.174  23.293 -22.152  0.00  0.00    -0.203 OA
ATOM     15  O   UNL d   1      32.769  22.811 -22.812  0.00  0.00    -0.203 OA
ATOM     16  C   UNL d   1      32.596  22.509 -21.199  0.00  0.00     0.165 C 
ENDBRANCH  12  13
ENDBRANCH   8  12
ENDBRANCH   4   6
BRANCH   1  17
ATOM     17  S   UNL d   1      31.027  18.410 -23.939  0.00  0.00     0.266 S 
ATOM     18  O   UNL d   1      30.641  18.365 -24.667  0.00  0.00    -0.203 OA
ATOM     19  O   UNL d   1      31.655  18.815 -24.293  0.00  0.00    -0.203 OA
ATOM     20  C   UNL d   1      30.440  18.014 -23.528  0.00  0.00     0.165 C 
ENDBRANCH   1  17
BRANCH   3  21
ATOM     21  C   UNL d   1      32.618  17.574 -23.805  0.00  0.00     0.018 A 
ATOM     22  C   UNL d   1      32.498  16.850 -23.428  0.00  0.00     0.002 A 
ATOM     23  C   UNL d   1      32.706  16.149 -23.811  0.00  0.00     0.000 A 
ATOM     24  C   UNL d   1      33.029  16.173 -24.563  0.00  0.00     0.000 A 
ATOM     25  C   UNL d   1      33.145  16.902 -24.931  0.00  0.00     0.000 A 
ATOM     26  C   UNL d   1      33.237  15.471 -24.945  0.00  0.00     0.000 C 
ATOM     27  C   UNL d   1      32.943  17.595 -24.561  0.00  0.00     0.002 A 
ENDBRANCH   3  21
TORSDOF 5
ENDMDL
MODEL 4
REMARK VINA RESULT:       2.5      4.005      5.975
REMARK  5 active torsions:
REMARK  status: ('A' for Active; 'I' for Inactive)
REMARK    1  A    between atoms: S_3  and  N_1 
REMARK    2  A    between atoms: S_4  and  N_8 
REMARK    3  A    between atoms: C_12  and  C_5 
REMARK    4  A    between atoms: C_9  and  C_6 
REMARK    5  A    between atoms: N_8  and  C_16 
ROOT
ATOM      1  N   UNL d   1      32.624  21.944 -22.196  0.00  0.00    -0.155 N 
ATOM      2  N   UNL d   1      32.646  21.536 -22.919  0.00  0.00    -0.156 NA
ATOM      3  C   UNL d   1      32.886  21.420 -21.605  0.00  0.00     0.096 A 
ATOM      4  C   UNL d   1      32.918  20.770 -22.776  0.00  0.00     0.104 A 
ATOM      5  C   UNL d   1      33.065  20.703 -21.965  0.00  0.00     0.041 A 
ENDROOT
BRANCH   4   6
ATOM      6  C   UNL d   1      33.025  20.179 -23.340  0.00  0.00     0.021 A 
ATOM      7  C   UNL d   1      33.022  19.391 -23.110  0.00  0.00     0.021 A 
ATOM      8  C   UNL d   1      33.129  18.795 -23.678  0.00  0.00     0.093 A 
ATOM      9  C   UNL d   1      33.239  18.996 -24.476  0.00  0.00     0.020 A 
ATOM     10  C   UNL d   1      33.240  19.793 -24.700  0.00  0.00     0.002 A 
ATOM     11  C   UNL d   1      33.134  20.384 -24.140  0.00  0.00     0.002 A 
BRANCH   8  12
ATOM     12  N   UNL d   1      33.127  17.995 -23.446  0.00  0.00    -0.162 NA
BRANCH  12  13
ATOM     13  S   UNL d   1      32.444  17.547 -23.525  0.00  0.00     0.266 S 
ATOM     14  O   UNL d   1      31.808  17.059 -23.303  0.00  0.00    -0.203 OA
ATOM     15  O   UNL d   1      32.542  17.423 -22.712  0.00  0.00    -0.203 OA
ATOM     16  C   UNL d   1      32.337  17.662 -24.331  0.00  0.00     0.165 C 
ENDBRANCH  12  13
ENDBRANCH   8  12
ENDBRANCH   4   6
BRANCH   1  17
ATOM     17  S   UNL d   1      32.383  22.728 -22.092  0.00  0.00     0.266 S 
ATOM     18  O   UNL d   1      31.823  23.278 -21.836  0.00  0.00    -0.203 OA
ATOM     19  O   UNL d   1      31.890  22.109 -21.854  0.00  0.00    -0.203 OA
ATOM     20  C   UNL d   1      32.917  23.292 -22.349  0.00  0.00     0.165 C 
ENDBRANCH   1  17
BRANCH   3  21
ATOM     21  C   UNL d   1      32.950  21.599 -20.808  0.00  0.00     0.018 A 
ATOM     22  C   UNL d   1      33.174  22.359 -20.581  0.00  0.00     0.002 A 
ATOM     23  C   UNL d   1      33.241  22.546 -19.780  0.00  0.00     0.000 A 
ATOM     24  C   UNL d   1      33.084  21.977 -19.212  0.00  0.00     0.000 A 
ATOM     25  C   UNL d   1      32.860  21.219 -19.450  0.00  0.00     0.000 A 
ATOM     26  C   UNL d   1      33.151  22.164 -18.410  0.00  0.00     0.000 C 
ATOM     27  C   UNL d   1      32.793  21.028 -20.235  0.00  0.00     0.002 A 
ENDBRANCH   3  21
TORSDOF 5
ENDMDL
