MODEL 1
REMARK VINA RESULT:      -3.5      0.000      0.000
REMARK  5 active torsions:
REMARK  status: ('A' for Active; 'I' for Inactive)
REMARK       I    between atoms: C_7  and  N_1 
REMARK    1  A    between atoms: C_11  and  C_3 
REMARK    2  A    between atoms: C_14  and  C_5 
REMARK    3  A    between atoms: C_18  and  C_7 
REMARK    4  A    between atoms: C_17  and  O_19 
REMARK    5  A    between atoms: O_19  and  C_18 
ROOT
ATOM      1  N   UNL d   1     -40.031  14.609  20.810  0.00  0.00    -0.193 N 
ATOM      2  N   UNL d   1     -39.376  14.940  21.186  0.00  0.00    -0.162 NA
ATOM      3  C   UNL d   1     -39.502  14.877  22.002  0.00  0.00     0.109 A 
ATOM      4  C   UNL d   1     -40.555  14.345  21.390  0.00  0.00     0.088 A 
ATOM      5  C   UNL d   1     -40.223  14.513  22.124  0.00  0.00     0.041 A 
ATOM      6  C   UNL d   1     -40.218  14.515  20.011  0.00  0.00     0.305 C 
ATOM      7  O   UNL d   1     -40.929  14.156  19.793  0.00  0.00    -0.263 OA
ENDROOT
BRANCH   4   8
ATOM      8  C   UNL d   1     -41.286  13.977  21.291  0.00  0.00     0.018 A 
ATOM      9  C   UNL d   1     -41.949  14.427  21.115  0.00  0.00     0.004 A 
ATOM     10  C   UNL d   1     -42.685  14.059  21.016  0.00  0.00     0.030 A 
ATOM     11  C   UNL d   1     -42.744  13.251  21.094  0.00  0.00     0.140 A 
ATOM     12  C   UNL d   1     -42.072  12.797  21.272  0.00  0.00     0.030 A 
ATOM     13  F   UNL d   1     -43.483  12.886  20.994  0.00  0.00    -0.204 F 
ATOM     14  C   UNL d   1     -41.349  13.159  21.370  0.00  0.00     0.004 A 
ENDBRANCH   4   8
BRANCH   6  15
ATOM     15  C   UNL d   1     -39.694  14.779  19.431  0.00  0.00     0.185 C 
BRANCH  15  16
ATOM     16  O   UNL d   1     -39.623  14.365  18.720  0.00  0.00    -0.300 OA
BRANCH  16  17
ATOM     17  C   UNL d   1     -39.289  14.731  18.061  0.00  0.00     0.100 A 
ATOM     18  C   UNL d   1     -38.953  14.275  17.460  0.00  0.00     0.029 A 
ATOM     19  C   UNL d   1     -38.620  14.642  16.801  0.00  0.00     0.059 A 
ATOM     20  C   UNL d   1     -38.953  13.456  17.522  0.00  0.00     0.021 A 
ATOM     21  C   UNL d   1     -38.285  14.190  16.203  0.00  0.00     0.265 A 
ATOM     22  C   UNL d   1     -38.622  15.465  16.742  0.00  0.00     0.005 A 
ATOM     23  O   UNL d   1     -37.952  14.557  15.544  0.00  0.00    -0.267 OA
ATOM     24  N   UNL d   1     -38.283  13.367  16.262  0.00  0.00    -0.270 N 
ATOM     25  C   UNL d   1     -38.617  13.000  16.921  0.00  0.00     0.083 A 
ATOM     26  C   UNL d   1     -37.943  12.910  15.653  0.00  0.00     0.102 C 
ATOM     27  C   UNL d   1     -38.958  15.922  17.342  0.00  0.00     0.002 A 
ATOM     28  C   UNL d   1     -39.291  15.555  18.002  0.00  0.00     0.025 A 
ENDBRANCH  16  17
ENDBRANCH  15  16
ENDBRANCH   6  15
BRANCH   3  29
ATOM     29  C   UNL d   1     -38.969  15.146  22.560  0.00  0.00     0.049 A 
ATOM     30  S   UNL d   1     -38.474  14.645  23.006  0.00  0.00    -0.085 SA
ATOM     31  C   UNL d   1     -38.025  15.114  23.500  0.00  0.00     0.035 A 
ATOM     32  C   UNL d   1     -38.230  15.901  23.370  0.00  0.00     0.007 A 
ATOM     33  C   UNL d   1     -38.811  15.922  22.791  0.00  0.00     0.009 A 
ENDBRANCH   3  29
TORSDOF 5
ENDMDL
MODEL 2
REMARK VINA RESULT:      -3.4      1.640      2.970
REMARK  5 active torsions:
REMARK  status: ('A' for Active; 'I' for Inactive)
REMARK       I    between atoms: C_7  and  N_1 
REMARK    1  A    between atoms: C_11  and  C_3 
REMARK    2  A    between atoms: C_14  and  C_5 
REMARK    3  A    between atoms: C_18  and  C_7 
REMARK    4  A    between atoms: C_17  and  O_19 
REMARK    5  A    between atoms: O_19  and  C_18 
ROOT
ATOM      1  N   UNL d   1     -40.718  14.466  20.555  0.00  0.00    -0.193 N 
ATOM      2  N   UNL d   1     -41.429  14.063  20.437  0.00  0.00    -0.162 NA
ATOM      3  C   UNL d   1     -41.682  13.788  21.175  0.00  0.00     0.109 A 
ATOM      4  C   UNL d   1     -40.537  14.437  21.359  0.00  0.00     0.088 A 
ATOM      5  C   UNL d   1     -41.135  14.017  21.737  0.00  0.00     0.041 A 
ATOM      6  C   UNL d   1     -40.212  14.855  20.031  0.00  0.00     0.305 C 
ATOM      7  O   UNL d   1     -39.525  15.216  20.312  0.00  0.00    -0.263 OA
ENDROOT
BRANCH   4   8
ATOM      8  C   UNL d   1     -39.885  14.758  21.750  0.00  0.00     0.018 A 
ATOM      9  C   UNL d   1     -39.920  15.526  22.037  0.00  0.00     0.004 A 
ATOM     10  C   UNL d   1     -39.267  15.851  22.430  0.00  0.00     0.030 A 
ATOM     11  C   UNL d   1     -38.593  15.404  22.528  0.00  0.00     0.140 A 
ATOM     12  C   UNL d   1     -38.559  14.627  22.236  0.00  0.00     0.030 A 
ATOM     13  F   UNL d   1     -37.941  15.733  22.922  0.00  0.00    -0.204 F 
ATOM     14  C   UNL d   1     -39.202  14.309  21.850  0.00  0.00     0.004 A 
ENDBRANCH   4   8
BRANCH   6  15
ATOM     15  C   UNL d   1     -40.394  14.884  19.227  0.00  0.00     0.185 C 
BRANCH  15  16
ATOM     16  O   UNL d   1     -39.910  14.497  18.681  0.00  0.00    -0.300 OA
BRANCH  16  17
ATOM     17  C   UNL d   1     -39.875  14.762  17.901  0.00  0.00     0.100 A 
ATOM     18  C   UNL d   1     -39.392  14.375  17.355  0.00  0.00     0.029 A 
ATOM     19  C   UNL d   1     -39.356  14.640  16.574  0.00  0.00     0.059 A 
ATOM     20  C   UNL d   1     -38.948  13.725  17.590  0.00  0.00     0.021 A 
ATOM     21  C   UNL d   1     -38.877  14.256  16.030  0.00  0.00     0.265 A 
ATOM     22  C   UNL d   1     -39.803  15.293  16.341  0.00  0.00     0.005 A 
ATOM     23  O   UNL d   1     -38.841  14.522  15.250  0.00  0.00    -0.267 OA
ATOM     24  N   UNL d   1     -38.430  13.603  16.264  0.00  0.00    -0.270 N 
ATOM     25  C   UNL d   1     -38.465  13.337  17.044  0.00  0.00     0.083 A 
ATOM     26  C   UNL d   1     -37.943  13.215  15.708  0.00  0.00     0.102 C 
ATOM     27  C   UNL d   1     -40.286  15.681  16.886  0.00  0.00     0.002 A 
ATOM     28  C   UNL d   1     -40.322  15.416  17.666  0.00  0.00     0.025 A 
ENDBRANCH  16  17
ENDBRANCH  15  16
ENDBRANCH   6  15
BRANCH   3  29
ATOM     29  C   UNL d   1     -42.370  13.361  21.282  0.00  0.00     0.049 A 
ATOM     30  S   UNL d   1     -43.130  13.658  21.113  0.00  0.00    -0.085 SA
ATOM     31  C   UNL d   1     -43.671  13.073  21.290  0.00  0.00     0.035 A 
ATOM     32  C   UNL d   1     -43.263  12.415  21.568  0.00  0.00     0.007 A 
ATOM     33  C   UNL d   1     -42.460  12.590  21.564  0.00  0.00     0.009 A 
ENDBRANCH   3  29
TORSDOF 5
ENDMDL
MODEL 3
REMARK VINA RESULT:      -3.3      2.608      5.911
REMARK  5 active torsions:
REMARK  status: ('A' for Active; 'I' for Inactive)
REMARK       I    between atoms: C_7  and  N_1 
REMARK    1  A    between atoms: C_11  and  C_3 
REMARK    2  A    between atoms: C_14  and  C_5 
REMARK    3  A    between atoms: C_18  and  C_7 
REMARK    4  A    between atoms: C_17  and  O_19 
REMARK    5  A    between atoms: O_19  and  C_18 
ROOT
ATOM      1  N   UNL d   1     -41.026  14.045  20.476  0.00  0.00    -0.193 N 
ATOM      2  N   UNL d   1     -41.255  14.171  19.693  0.00  0.00    -0.162 NA
ATOM      3  C   UNL d   1     -40.616  14.525  19.303  0.00  0.00     0.109 A 
ATOM      4  C   UNL d   1     -40.253  14.319  20.564  0.00  0.00     0.088 A 
ATOM      5  C   UNL d   1     -40.005  14.615  19.837  0.00  0.00     0.041 A 
ATOM      6  C   UNL d   1     -41.423  13.714  21.120  0.00  0.00     0.305 C 
ATOM      7  O   UNL d   1     -41.047  13.659  21.852  0.00  0.00    -0.263 OA
ENDROOT
BRANCH   4   8
ATOM      8  C   UNL d   1     -39.781  14.315  21.241  0.00  0.00     0.018 A 
ATOM      9  C   UNL d   1     -39.789  14.961  21.747  0.00  0.00     0.004 A 
ATOM     10  C   UNL d   1     -39.316  14.960  22.428  0.00  0.00     0.030 A 
ATOM     11  C   UNL d   1     -38.847  14.315  22.590  0.00  0.00     0.140 A 
ATOM     12  C   UNL d   1     -38.841  13.661  22.077  0.00  0.00     0.030 A 
ATOM     13  F   UNL d   1     -38.375  14.317  23.273  0.00  0.00    -0.204 F 
ATOM     14  C   UNL d   1     -39.306  13.664  21.408  0.00  0.00     0.004 A 
ENDBRANCH   4   8
BRANCH   6  15
ATOM     15  C   UNL d   1     -42.196  13.440  21.031  0.00  0.00     0.185 C 
BRANCH  15  16
ATOM     16  O   UNL d   1     -42.448  12.776  21.450  0.00  0.00    -0.300 OA
BRANCH  16  17
ATOM     17  C   UNL d   1     -43.236  12.714  21.688  0.00  0.00     0.100 A 
ATOM     18  C   UNL d   1     -43.468  12.100  22.190  0.00  0.00     0.029 A 
ATOM     19  C   UNL d   1     -44.256  12.038  22.428  0.00  0.00     0.059 A 
ATOM     20  C   UNL d   1     -42.913  11.554  22.451  0.00  0.00     0.021 A 
ATOM     21  C   UNL d   1     -44.488  11.429  22.927  0.00  0.00     0.265 A 
ATOM     22  C   UNL d   1     -44.811  12.589  22.165  0.00  0.00     0.005 A 
ATOM     23  O   UNL d   1     -45.275  11.367  23.165  0.00  0.00    -0.267 OA
ATOM     24  N   UNL d   1     -43.933  10.878  23.191  0.00  0.00    -0.270 N 
ATOM     25  C   UNL d   1     -43.146  10.941  22.953  0.00  0.00     0.083 A 
ATOM     26  C   UNL d   1     -44.172  10.260  23.698  0.00  0.00     0.102 C 
ATOM     27  C   UNL d   1     -44.579  13.202  21.663  0.00  0.00     0.002 A 
ATOM     28  C   UNL d   1     -43.792  13.264  21.425  0.00  0.00     0.025 A 
ENDBRANCH  16  17
ENDBRANCH  15  16
ENDBRANCH   6  15
BRANCH   3  29
ATOM     29  C   UNL d   1     -40.634  14.735  18.514  0.00  0.00     0.049 A 
ATOM     30  S   UNL d   1     -40.947  15.455  18.234  0.00  0.00    -0.085 SA
ATOM     31  C   UNL d   1     -40.867  15.463  17.421  0.00  0.00     0.035 A 
ATOM     32  C   UNL d   1     -40.509  14.759  17.188  0.00  0.00     0.007 A 
ATOM     33  C   UNL d   1     -40.365  14.310  17.860  0.00  0.00     0.009 A 
ENDBRANCH   3  29
TORSDOF 5
ENDMDL
MODEL 4
REMARK VINA RESULT:      -0.6      4.723      7.887
REMARK  5 active torsions:
REMARK  status: ('A' for Active; 'I' for Inactive)
REMARK       I    between atoms: C_7  and  N_1 
REMARK    1  A    between atoms: C_11  and  C_3 
REMARK    2  A    between atoms: C_14  and  C_5 
REMARK    3  A    between atoms: C_18  and  C_7 
REMARK    4  A    between atoms: C_17  and  O_19 
REMARK    5  A    between atoms: O_19  and  C_18 
ROOT
ATOM      1  N   UNL d   1     -44.375  12.573  22.322  0.00  0.00    -0.193 N 
ATOM      2  N   UNL d   1     -44.639  11.928  22.764  0.00  0.00    -0.162 NA
ATOM      3  C   UNL d   1     -44.048  11.349  22.733  0.00  0.00     0.109 A 
ATOM      4  C   UNL d   1     -43.629  12.390  22.022  0.00  0.00     0.088 A 
ATOM      5  C   UNL d   1     -43.432  11.633  22.279  0.00  0.00     0.041 A 
ATOM      6  C   UNL d   1     -44.720  13.304  22.154  0.00  0.00     0.305 C 
ATOM      7  O   UNL d   1     -44.318  13.852  21.685  0.00  0.00    -0.263 OA
ENDROOT
BRANCH   4   8
ATOM      8  C   UNL d   1     -43.139  12.855  21.548  0.00  0.00     0.018 A 
ATOM      9  C   UNL d   1     -43.195  12.804  20.731  0.00  0.00     0.004 A 
ATOM     10  C   UNL d   1     -42.704  13.269  20.252  0.00  0.00     0.030 A 
ATOM     11  C   UNL d   1     -42.168  13.775  20.598  0.00  0.00     0.140 A 
ATOM     12  C   UNL d   1     -42.112  13.825  21.425  0.00  0.00     0.030 A 
ATOM     13  F   UNL d   1     -41.677  14.239  20.115  0.00  0.00    -0.204 F 
ATOM     14  C   UNL d   1     -42.595  13.367  21.895  0.00  0.00     0.004 A 
ENDBRANCH   4   8
BRANCH   6  15
ATOM     15  C   UNL d   1     -45.467  13.486  22.454  0.00  0.00     0.185 C 
BRANCH  15  16
ATOM     16  O   UNL d   1     -46.106  13.579  21.940  0.00  0.00    -0.300 OA
BRANCH  16  17
ATOM     17  C   UNL d   1     -46.801  13.933  22.207  0.00  0.00     0.100 A 
ATOM     18  C   UNL d   1     -47.534  13.620  21.990  0.00  0.00     0.029 A 
ATOM     19  C   UNL d   1     -48.230  13.974  22.257  0.00  0.00     0.059 A 
ATOM     20  C   UNL d   1     -47.568  12.956  21.508  0.00  0.00     0.021 A 
ATOM     21  C   UNL d   1     -48.959  13.664  22.043  0.00  0.00     0.265 A 
ATOM     22  C   UNL d   1     -48.193  14.641  22.742  0.00  0.00     0.005 A 
ATOM     23  O   UNL d   1     -49.654  14.018  22.310  0.00  0.00    -0.267 OA
ATOM     24  N   UNL d   1     -48.996  12.997  21.558  0.00  0.00    -0.270 N 
ATOM     25  C   UNL d   1     -48.300  12.643  21.291  0.00  0.00     0.083 A 
ATOM     26  C   UNL d   1     -49.738  12.684  21.341  0.00  0.00     0.102 C 
ATOM     27  C   UNL d   1     -47.461  14.954  22.959  0.00  0.00     0.002 A 
ATOM     28  C   UNL d   1     -46.765  14.600  22.692  0.00  0.00     0.025 A 
ENDBRANCH  16  17
ENDBRANCH  15  16
ENDBRANCH   6  15
BRANCH   3  29
ATOM     29  C   UNL d   1     -44.110  10.626  23.108  0.00  0.00     0.049 A 
ATOM     30  S   UNL d   1     -44.836  10.274  23.318  0.00  0.00    -0.085 SA
ATOM     31  C   UNL d   1     -44.672   9.561  23.679  0.00  0.00     0.035 A 
ATOM     32  C   UNL d   1     -43.855   9.459  23.698  0.00  0.00     0.007 A 
ATOM     33  C   UNL d   1     -43.507  10.115  23.346  0.00  0.00     0.009 A 
ENDBRANCH   3  29
TORSDOF 5
ENDMDL
