MODEL 1
REMARK VINA RESULT:      52.3      0.000      0.000
REMARK  9 active torsions:
REMARK  status: ('A' for Active; 'I' for Inactive)
REMARK    1  A    between atoms: C_12  and  C_1 
REMARK       I    between atoms: C_4  and  N_11 
REMARK    2  A    between atoms: C_5  and  C_4 
REMARK    3  A    between atoms: O_18  and  C_6 
REMARK    4  A    between atoms: O_19  and  C_7 
REMARK    5  A    between atoms: O_20  and  C_8 
REMARK    6  A    between atoms: N_11  and  C_15 
REMARK    7  A    between atoms: C_26  and  O_18 
REMARK    8  A    between atoms: C_28  and  O_19 
REMARK    9  A    between atoms: C_27  and  O_20 
ROOT
ATOM      1  C   UNL d   1      45.532 -17.595  38.873  0.00  0.00     0.279 C 
ATOM      2  N   UNL d   1      46.016 -17.514  39.541  0.00  0.00    -0.208 NA
ATOM      3  O   UNL d   1      45.248 -18.338  38.656  0.00  0.00    -0.265 OA
ENDROOT
BRANCH   1   4
ATOM      4  C   UNL d   1      45.337 -16.932  38.427  0.00  0.00     0.062 A 
ATOM      5  C   UNL d   1      45.930 -16.504  38.043  0.00  0.00     0.032 A 
ATOM      6  C   UNL d   1      45.734 -15.842  37.598  0.00  0.00     0.125 A 
ATOM      7  C   UNL d   1      44.948 -15.603  37.534  0.00  0.00     0.145 A 
ATOM      8  C   UNL d   1      44.359 -16.028  37.916  0.00  0.00     0.125 A 
ATOM      9  C   UNL d   1      44.555 -16.688  38.359  0.00  0.00     0.032 A 
BRANCH   6  10
ATOM     10  O   UNL d   1      46.332 -15.411  37.211  0.00  0.00    -0.303 OA
BRANCH  10  11
ATOM     11  C   UNL d   1      46.457 -14.616  37.410  0.00  0.00     0.123 C 
ATOM     12  C   UNL d   1      46.647 -14.069  36.813  0.00  0.00     0.029 C 
ENDBRANCH  10  11
ENDBRANCH   6  10
BRANCH   7  13
ATOM     13  O   UNL d   1      44.753 -14.937  37.086  0.00  0.00    -0.301 OA
BRANCH  13  14
ATOM     14  C   UNL d   1      44.854 -14.186  37.405  0.00  0.00     0.123 C 
ATOM     15  C   UNL d   1      44.223 -13.811  37.784  0.00  0.00     0.029 C 
ENDBRANCH  13  14
ENDBRANCH   7  13
BRANCH   8  16
ATOM     16  O   UNL d   1      43.564 -15.788  37.853  0.00  0.00    -0.303 OA
BRANCH  16  17
ATOM     17  C   UNL d   1      43.157 -15.907  37.143  0.00  0.00     0.123 C 
ATOM     18  C   UNL d   1      42.328 -15.911  37.143  0.00  0.00     0.029 C 
ENDBRANCH  16  17
ENDBRANCH   8  16
ENDBRANCH   1   4
BRANCH   2  19
ATOM     19  C   UNL d   1      46.217 -18.182  39.996  0.00  0.00     0.085 A 
ATOM     20  C   UNL d   1      46.197 -18.132  40.823  0.00  0.00     0.022 A 
ATOM     21  C   UNL d   1      46.395 -18.790  41.275  0.00  0.00     0.037 A 
ATOM     22  C   UNL d   1      46.612 -19.499  40.911  0.00  0.00     0.003 A 
ATOM     23  C   UNL d   1      46.630 -19.544  40.083  0.00  0.00     0.002 A 
ATOM     24  C   UNL d   1      46.434 -18.892  39.627  0.00  0.00     0.019 A 
BRANCH  21  25
ATOM     25  C   UNL d   1      46.377 -18.745  42.099  0.00  0.00     0.162 A 
ATOM     26  N   UNL d   1      46.415 -19.326  42.682  0.00  0.00    -0.225 NA
ATOM     27  C   UNL d   1      46.372 -18.952  43.416  0.00  0.00     0.101 A 
ATOM     28  C   UNL d   1      46.383 -19.249  44.190  0.00  0.00     0.021 A 
ATOM     29  C   UNL d   1      46.307 -18.148  43.281  0.00  0.00     0.101 A 
ATOM     30  C   UNL d   1      46.329 -18.727  44.822  0.00  0.00     0.002 A 
ATOM     31  C   UNL d   1      46.264 -17.909  44.683  0.00  0.00     0.002 A 
ATOM     32  C   UNL d   1      46.253 -17.623  43.921  0.00  0.00     0.021 A 
ATOM     33  N   UNL d   1      46.311 -18.019  42.470  0.00  0.00    -0.225 NA
ENDBRANCH  21  25
ENDBRANCH   2  19
TORSDOF 9
ENDMDL
