MODEL 1
REMARK VINA RESULT:     -10.2      0.000      0.000
REMARK  3 active torsions:
REMARK  status: ('A' for Active; 'I' for Inactive)
REMARK    1  A    between atoms: C_5  and  C_2 
REMARK    2  A    between atoms: C_10  and  C_4 
REMARK    3  A    between atoms: O_19  and  C_16 
ROOT
ATOM      1  N   UNL d   1      53.693  32.625  53.973  0.00  0.00    -0.245 NA
ATOM      2  C   UNL d   1      53.319  33.348  53.943  0.00  0.00     0.088 A 
ATOM      3  S   UNL d   1      52.163  32.302  52.965  0.00  0.00    -0.085 SA
ATOM      4  C   UNL d   1      52.079  33.086  53.126  0.00  0.00     0.031 A 
ATOM      5  C   UNL d   1      52.604  33.564  53.571  0.00  0.00     0.026 A 
ATOM      6  C   UNL d   1      53.433  31.929  53.629  0.00  0.00     0.087 A 
ATOM      7  C   UNL d   1      52.756  31.786  53.183  0.00  0.00     0.047 A 
ATOM      8  C   UNL d   1      53.949  31.309  53.772  0.00  0.00     0.020 A 
ATOM      9  C   UNL d   1      52.591  31.022  52.877  0.00  0.00     0.008 A 
ATOM     10  C   UNL d   1      53.814  30.561  53.489  0.00  0.00     0.002 A 
ATOM     11  C   UNL d   1      53.137  30.418  53.043  0.00  0.00     0.001 A 
ENDROOT
BRANCH   4  12
ATOM     12  C   UNL d   1      51.443  33.515  52.859  0.00  0.00     0.006 A 
ATOM     13  C   UNL d   1      51.487  33.897  52.117  0.00  0.00     0.003 A 
ATOM     14  C   UNL d   1      50.852  34.325  51.851  0.00  0.00     0.024 A 
ATOM     15  C   UNL d   1      50.169  34.381  52.313  0.00  0.00     0.094 A 
ATOM     16  C   UNL d   1      50.121  34.010  53.037  0.00  0.00     0.024 A 
ATOM     17  C   UNL d   1      50.760  33.570  53.322  0.00  0.00     0.003 A 
BRANCH  15  18
ATOM     18  O   UNL d   1      49.502  34.819  52.053  0.00  0.00    -0.328 OA
ATOM     19  C   UNL d   1      49.055  34.567  51.397  0.00  0.00     0.181 C 
ENDBRANCH  15  18
ENDBRANCH   4  12
BRANCH   2  20
ATOM     20  C   UNL d   1      53.294  34.173  54.151  0.00  0.00     0.047 A 
ATOM     21  S   UNL d   1      53.154  34.402  54.922  0.00  0.00    -0.085 SA
ATOM     22  C   UNL d   1      53.167  35.226  54.930  0.00  0.00     0.035 A 
ATOM     23  C   UNL d   1      53.311  35.514  54.187  0.00  0.00     0.007 A 
ATOM     24  C   UNL d   1      53.390  34.866  53.705  0.00  0.00     0.009 A 
ENDBRANCH   2  20
TORSDOF 3
ENDMDL
MODEL 2
REMARK VINA RESULT:      -9.5      1.028      2.785
REMARK  3 active torsions:
REMARK  status: ('A' for Active; 'I' for Inactive)
REMARK    1  A    between atoms: C_5  and  C_2 
REMARK    2  A    between atoms: C_10  and  C_4 
REMARK    3  A    between atoms: O_19  and  C_16 
ROOT
ATOM      1  N   UNL d   1      54.192  32.380  54.316  0.00  0.00    -0.245 NA
ATOM      2  C   UNL d   1      53.587  32.130  53.831  0.00  0.00     0.088 A 
ATOM      3  S   UNL d   1      53.132  33.893  54.097  0.00  0.00    -0.085 SA
ATOM      4  C   UNL d   1      52.727  33.356  53.654  0.00  0.00     0.031 A 
ATOM      5  C   UNL d   1      52.933  32.552  53.532  0.00  0.00     0.026 A 
ATOM      6  C   UNL d   1      54.288  33.132  54.623  0.00  0.00     0.087 A 
ATOM      7  C   UNL d   1      53.819  33.802  54.526  0.00  0.00     0.047 A 
ATOM      8  C   UNL d   1      54.961  33.186  55.089  0.00  0.00     0.020 A 
ATOM      9  C   UNL d   1      54.019  34.529  54.894  0.00  0.00     0.008 A 
ATOM     10  C   UNL d   1      55.177  33.876  55.455  0.00  0.00     0.002 A 
ATOM     11  C   UNL d   1      54.708  34.545  55.359  0.00  0.00     0.001 A 
ENDROOT
BRANCH   4  12
ATOM     12  C   UNL d   1      52.044  33.549  53.260  0.00  0.00     0.006 A 
ATOM     13  C   UNL d   1      51.305  33.411  53.627  0.00  0.00     0.003 A 
ATOM     14  C   UNL d   1      50.623  33.604  53.234  0.00  0.00     0.024 A 
ATOM     15  C   UNL d   1      50.662  33.934  52.478  0.00  0.00     0.094 A 
ATOM     16  C   UNL d   1      51.379  34.071  52.115  0.00  0.00     0.024 A 
ATOM     17  C   UNL d   1      52.083  33.879  52.504  0.00  0.00     0.003 A 
BRANCH  15  18
ATOM     18  O   UNL d   1      49.966  34.140  52.056  0.00  0.00    -0.328 OA
ATOM     19  C   UNL d   1      49.465  34.746  52.331  0.00  0.00     0.181 C 
ENDBRANCH  15  18
ENDBRANCH   4  12
BRANCH   2  20
ATOM     20  C   UNL d   1      53.212  31.512  53.382  0.00  0.00     0.047 A 
ATOM     21  S   UNL d   1      52.854  30.883  53.760  0.00  0.00    -0.085 SA
ATOM     22  C   UNL d   1      52.550  30.394  53.171  0.00  0.00     0.035 A 
ATOM     23  C   UNL d   1      52.709  30.701  52.439  0.00  0.00     0.007 A 
ATOM     24  C   UNL d   1      53.117  31.390  52.566  0.00  0.00     0.009 A 
ENDBRANCH   2  20
TORSDOF 3
ENDMDL
MODEL 3
REMARK VINA RESULT:      -9.3      2.042      3.479
REMARK  3 active torsions:
REMARK  status: ('A' for Active; 'I' for Inactive)
REMARK    1  A    between atoms: C_5  and  C_2 
REMARK    2  A    between atoms: C_10  and  C_4 
REMARK    3  A    between atoms: O_19  and  C_16 
ROOT
ATOM      1  N   UNL d   1      52.197  31.386  52.892  0.00  0.00    -0.245 NA
ATOM      2  C   UNL d   1      52.368  32.168  53.044  0.00  0.00     0.088 A 
ATOM      3  S   UNL d   1      53.700  31.316  53.986  0.00  0.00    -0.085 SA
ATOM      4  C   UNL d   1      53.587  32.111  53.931  0.00  0.00     0.031 A 
ATOM      5  C   UNL d   1      52.980  32.501  53.502  0.00  0.00     0.026 A 
ATOM      6  C   UNL d   1      52.610  30.736  53.170  0.00  0.00     0.087 A 
ATOM      7  C   UNL d   1      53.275  30.705  53.654  0.00  0.00     0.047 A 
ATOM      8  C   UNL d   1      52.281  30.033  52.905  0.00  0.00     0.020 A 
ATOM      9  C   UNL d   1      53.616  29.971  53.876  0.00  0.00     0.008 A 
ATOM     10  C   UNL d   1      52.591  29.311  53.105  0.00  0.00     0.002 A 
ATOM     11  C   UNL d   1      53.256  29.280  53.589  0.00  0.00     0.001 A 
ENDROOT
BRANCH   4  12
ATOM     12  C   UNL d   1      54.073  32.643  54.305  0.00  0.00     0.006 A 
ATOM     13  C   UNL d   1      54.712  32.981  53.885  0.00  0.00     0.003 A 
ATOM     14  C   UNL d   1      55.198  33.512  54.258  0.00  0.00     0.024 A 
ATOM     15  C   UNL d   1      55.059  33.715  55.047  0.00  0.00     0.094 A 
ATOM     16  C   UNL d   1      54.437  33.388  55.461  0.00  0.00     0.024 A 
ATOM     17  C   UNL d   1      53.933  32.845  55.093  0.00  0.00     0.003 A 
BRANCH  15  18
ATOM     18  O   UNL d   1      55.551  34.262  55.449  0.00  0.00    -0.328 OA
ATOM     19  C   UNL d   1      55.937  34.873  55.035  0.00  0.00     0.181 C 
ENDBRANCH  15  18
ENDBRANCH   4  12
BRANCH   2  20
ATOM     20  C   UNL d   1      52.189  32.994  52.943  0.00  0.00     0.047 A 
ATOM     21  S   UNL d   1      51.539  33.325  53.311  0.00  0.00    -0.085 SA
ATOM     22  C   UNL d   1      51.527  34.121  53.099  0.00  0.00     0.035 A 
ATOM     23  C   UNL d   1      52.150  34.293  52.610  0.00  0.00     0.007 A 
ATOM     24  C   UNL d   1      52.559  33.599  52.512  0.00  0.00     0.009 A 
ENDBRANCH   2  20
TORSDOF 3
ENDMDL
MODEL 4
REMARK VINA RESULT:      -9.1      1.833      3.755
REMARK  3 active torsions:
REMARK  status: ('A' for Active; 'I' for Inactive)
REMARK    1  A    between atoms: C_5  and  C_2 
REMARK    2  A    between atoms: C_10  and  C_4 
REMARK    3  A    between atoms: O_19  and  C_16 
ROOT
ATOM      1  N   UNL d   1      52.693  34.250  53.607  0.00  0.00    -0.245 NA
ATOM      2  C   UNL d   1      53.269  33.726  53.845  0.00  0.00     0.088 A 
ATOM      3  S   UNL d   1      51.987  32.580  53.191  0.00  0.00    -0.085 SA
ATOM      4  C   UNL d   1      52.698  32.372  53.508  0.00  0.00     0.031 A 
ATOM      5  C   UNL d   1      53.283  32.894  53.807  0.00  0.00     0.026 A 
ATOM      6  C   UNL d   1      51.974  34.058  53.265  0.00  0.00     0.087 A 
ATOM      7  C   UNL d   1      51.662  33.319  53.081  0.00  0.00     0.047 A 
ATOM      8  C   UNL d   1      51.531  34.727  53.096  0.00  0.00     0.020 A 
ATOM      9  C   UNL d   1      50.905  33.244  52.727  0.00  0.00     0.008 A 
ATOM     10  C   UNL d   1      50.797  34.682  52.755  0.00  0.00     0.002 A 
ATOM     11  C   UNL d   1      50.485  33.943  52.571  0.00  0.00     0.001 A 
ENDROOT
BRANCH   4  12
ATOM     12  C   UNL d   1      52.931  31.597  53.574  0.00  0.00     0.006 A 
ATOM     13  C   UNL d   1      52.819  31.194  54.297  0.00  0.00     0.003 A 
ATOM     14  C   UNL d   1      53.052  30.420  54.363  0.00  0.00     0.024 A 
ATOM     15  C   UNL d   1      53.396  30.037  53.717  0.00  0.00     0.094 A 
ATOM     16  C   UNL d   1      53.507  30.425  53.009  0.00  0.00     0.024 A 
ATOM     17  C   UNL d   1      53.275  31.215  52.927  0.00  0.00     0.003 A 
BRANCH  15  18
ATOM     18  O   UNL d   1      53.643  29.237  53.766  0.00  0.00    -0.328 OA
ATOM     19  C   UNL d   1      53.508  28.791  54.458  0.00  0.00     0.181 C 
ENDBRANCH  15  18
ENDBRANCH   4  12
BRANCH   2  20
ATOM     20  C   UNL d   1      54.034  33.580  54.191  0.00  0.00     0.047 A 
ATOM     21  S   UNL d   1      54.152  33.682  54.992  0.00  0.00    -0.085 SA
ATOM     22  C   UNL d   1      54.941  33.497  55.140  0.00  0.00     0.035 A 
ATOM     23  C   UNL d   1      55.315  33.283  54.454  0.00  0.00     0.007 A 
ATOM     24  C   UNL d   1      54.757  33.334  53.867  0.00  0.00     0.009 A 
ENDBRANCH   2  20
TORSDOF 3
ENDMDL
MODEL 5
REMARK VINA RESULT:      -7.7      1.735      3.590
REMARK  3 active torsions:
REMARK  status: ('A' for Active; 'I' for Inactive)
REMARK    1  A    between atoms: C_5  and  C_2 
REMARK    2  A    between atoms: C_10  and  C_4 
REMARK    3  A    between atoms: O_19  and  C_16 
ROOT
ATOM      1  N   UNL d   1      53.137  34.356  54.197  0.00  0.00    -0.245 NA
ATOM      2  C   UNL d   1      52.621  33.885  53.778  0.00  0.00     0.088 A 
ATOM      3  S   UNL d   1      53.904  32.663  54.276  0.00  0.00    -0.085 SA
ATOM      4  C   UNL d   1      53.242  32.513  53.842  0.00  0.00     0.031 A 
ATOM      5  C   UNL d   1      52.657  33.068  53.614  0.00  0.00     0.026 A 
ATOM      6  C   UNL d   1      53.829  34.114  54.560  0.00  0.00     0.087 A 
ATOM      7  C   UNL d   1      54.168  33.365  54.595  0.00  0.00     0.047 A 
ATOM      8  C   UNL d   1      54.211  34.738  54.932  0.00  0.00     0.020 A 
ATOM      9  C   UNL d   1      54.891  33.234  55.002  0.00  0.00     0.008 A 
ATOM     10  C   UNL d   1      54.909  34.639  55.332  0.00  0.00     0.002 A 
ATOM     11  C   UNL d   1      55.248  33.890  55.367  0.00  0.00     0.001 A 
ENDROOT
BRANCH   4  12
ATOM     12  C   UNL d   1      53.067  31.769  53.567  0.00  0.00     0.006 A 
ATOM     13  C   UNL d   1      53.335  31.536  52.811  0.00  0.00     0.003 A 
ATOM     14  C   UNL d   1      53.159  30.794  52.536  0.00  0.00     0.024 A 
ATOM     15  C   UNL d   1      52.719  30.275  53.005  0.00  0.00     0.094 A 
ATOM     16  C   UNL d   1      52.456  30.496  53.744  0.00  0.00     0.024 A 
ATOM     17  C   UNL d   1      52.627  31.250  54.036  0.00  0.00     0.003 A 
BRANCH  15  18
ATOM     18  O   UNL d   1      52.528  29.502  52.737  0.00  0.00    -0.328 OA
ATOM     19  C   UNL d   1      52.581  28.848  53.251  0.00  0.00     0.181 C 
ENDBRANCH  15  18
ENDBRANCH   4  12
BRANCH   2  20
ATOM     20  C   UNL d   1      51.905  33.799  53.326  0.00  0.00     0.047 A 
ATOM     21  S   UNL d   1      51.858  34.091  52.564  0.00  0.00    -0.085 SA
ATOM     22  C   UNL d   1      51.101  33.917  52.290  0.00  0.00     0.035 A 
ATOM     23  C   UNL d   1      50.677  33.526  52.859  0.00  0.00     0.007 A 
ATOM     24  C   UNL d   1      51.171  33.452  53.499  0.00  0.00     0.009 A 
ENDBRANCH   2  20
TORSDOF 3
ENDMDL
MODEL 6
REMARK VINA RESULT:      -7.6      1.900      4.248
REMARK  3 active torsions:
REMARK  status: ('A' for Active; 'I' for Inactive)
REMARK    1  A    between atoms: C_5  and  C_2 
REMARK    2  A    between atoms: C_10  and  C_4 
REMARK    3  A    between atoms: O_19  and  C_16 
ROOT
ATOM      1  N   UNL d   1      51.351  32.386  52.717  0.00  0.00    -0.245 NA
ATOM      2  C   UNL d   1      52.036  32.029  52.976  0.00  0.00     0.088 A 
ATOM      3  S   UNL d   1      52.300  33.765  53.527  0.00  0.00    -0.085 SA
ATOM      4  C   UNL d   1      52.805  33.148  53.632  0.00  0.00     0.031 A 
ATOM      5  C   UNL d   1      52.687  32.356  53.382  0.00  0.00     0.026 A 
ATOM      6  C   UNL d   1      51.150  33.174  52.806  0.00  0.00     0.087 A 
ATOM      7  C   UNL d   1      51.570  33.784  53.164  0.00  0.00     0.047 A 
ATOM      8  C   UNL d   1      50.417  33.339  52.477  0.00  0.00     0.020 A 
ATOM      9  C   UNL d   1      51.260  34.564  53.196  0.00  0.00     0.008 A 
ATOM     10  C   UNL d   1      50.095  34.083  52.494  0.00  0.00     0.002 A 
ATOM     11  C   UNL d   1      50.515  34.693  52.852  0.00  0.00     0.001 A 
ENDROOT
BRANCH   4  12
ATOM     12  C   UNL d   1      53.518  33.234  54.012  0.00  0.00     0.006 A 
ATOM     13  C   UNL d   1      53.550  33.178  54.845  0.00  0.00     0.003 A 
ATOM     14  C   UNL d   1      54.261  33.264  55.224  0.00  0.00     0.024 A 
ATOM     15  C   UNL d   1      54.947  33.406  54.786  0.00  0.00     0.094 A 
ATOM     16  C   UNL d   1      54.922  33.461  53.972  0.00  0.00     0.024 A 
ATOM     17  C   UNL d   1      54.203  33.376  53.573  0.00  0.00     0.003 A 
BRANCH  15  18
ATOM     18  O   UNL d   1      55.692  33.497  55.160  0.00  0.00    -0.328 OA
ATOM     19  C   UNL d   1      55.863  34.179  55.608  0.00  0.00     0.181 C 
ENDBRANCH  15  18
ENDBRANCH   4  12
BRANCH   2  20
ATOM     20  C   UNL d   1      52.520  31.333  53.052  0.00  0.00     0.047 A 
ATOM     21  S   UNL d   1      52.299  30.728  53.554  0.00  0.00    -0.085 SA
ATOM     22  C   UNL d   1      52.882  30.148  53.495  0.00  0.00     0.035 A 
ATOM     23  C   UNL d   1      53.456  30.376  52.972  0.00  0.00     0.007 A 
ATOM     24  C   UNL d   1      53.235  31.107  52.697  0.00  0.00     0.009 A 
ENDBRANCH   2  20
TORSDOF 3
ENDMDL
