MODEL 1
REMARK VINA RESULT:      -0.2      0.000      0.000
REMARK  3 active torsions:
REMARK  status: ('A' for Active; 'I' for Inactive)
REMARK    1  A    between atoms: C_9  and  C_3 
REMARK    2  A    between atoms: N_10  and  C_9 
REMARK    3  A    between atoms: C_11  and  C_9 
ROOT
ATOM      1  C   UNL d   1      31.693  17.370 -24.195  0.00  0.00     0.075 C 
ENDROOT
BRANCH   1   2
ATOM      2  C   UNL d   1      31.997  18.115 -24.018  0.00  0.00     0.106 A 
ATOM      3  C   UNL d   1      32.160  18.410 -23.256  0.00  0.00     0.289 A 
ATOM      4  N   UNL d   1      32.456  19.172 -23.335  0.00  0.00    -0.169 N 
ATOM      5  O   UNL d   1      32.044  18.002 -22.547  0.00  0.00    -0.265 OA
ATOM      6  C   UNL d   1      32.477  19.354 -24.140  0.00  0.00     0.200 A 
ATOM      7  N   UNL d   1      32.738  19.823 -22.924  0.00  0.00    -0.141 NA
ATOM      8  S   UNL d   1      32.196  18.706 -24.560  0.00  0.00    -0.042 SA
ATOM      9  N   UNL d   1      32.773  20.118 -24.219  0.00  0.00    -0.200 NA
ATOM     10  C   UNL d   1      32.935  20.408 -23.467  0.00  0.00     0.184 A 
ATOM     11  C   UNL d   1      33.239  21.153 -23.282  0.00  0.00     0.044 C 
ENDBRANCH   1   2
BRANCH   1  12
ATOM     12  N   UNL d   1      32.207  16.734 -24.279  0.00  0.00    -0.300 N 
ATOM     13  C   UNL d   1      32.519  16.552 -25.011  0.00  0.00     0.107 A 
ATOM     14  C   UNL d   1      33.038  15.908 -25.087  0.00  0.00     0.142 A 
ATOM     15  O   UNL d   1      33.240  15.453 -24.430  0.00  0.00    -0.300 OA
ATOM     16  C   UNL d   1      32.915  15.651 -23.698  0.00  0.00     0.142 A 
ATOM     17  C   UNL d   1      32.400  16.289 -23.617  0.00  0.00     0.107 A 
ENDBRANCH   1  12
BRANCH   1  18
ATOM     18  C   UNL d   1      30.885  17.268 -24.286  0.00  0.00     0.017 A 
ATOM     19  C   UNL d   1      30.504  17.582 -24.947  0.00  0.00     0.002 A 
ATOM     20  C   UNL d   1      29.685  17.479 -25.041  0.00  0.00     0.000 A 
ATOM     21  C   UNL d   1      29.268  17.069 -24.479  0.00  0.00     0.000 A 
ATOM     22  C   UNL d   1      29.659  16.757 -23.818  0.00  0.00     0.000 A 
ATOM     23  C   UNL d   1      28.439  16.957 -24.561  0.00  0.00     0.000 C 
ATOM     24  C   UNL d   1      30.456  16.858 -23.727  0.00  0.00     0.002 A 
ENDBRANCH   1  18
TORSDOF 3
ENDMDL
