MODEL 1
REMARK VINA RESULT:      33.9      0.000      0.000
REMARK  9 active torsions:
REMARK  status: ('A' for Active; 'I' for Inactive)
REMARK    1  A    between atoms: C_12  and  C_3 
REMARK    2  A    between atoms: S_14  and  C_7 
REMARK       I    between atoms: C_9  and  N_18 
REMARK    3  A    between atoms: C_13  and  C_9 
REMARK    4  A    between atoms: C_11  and  C_21 
REMARK       I    between atoms: N_15  and  C_11 
REMARK    5  A    between atoms: C_22  and  C_12 
REMARK    6  A    between atoms: C_21  and  S_14 
REMARK    7  A    between atoms: C_23  and  N_15 
REMARK    8  A    between atoms: N_18  and  C_22 
REMARK    9  A    between atoms: C_25  and  C_23 
ROOT
ATOM      1  N   UNL d   1      46.454 -18.851  41.664  0.00  0.00    -0.191 N 
ATOM      2  C   UNL d   1      46.578 -19.654  41.841  0.00  0.00     0.187 A 
ATOM      3  C   UNL d   1      46.406 -18.773  40.841  0.00  0.00     0.188 A 
ATOM      4  N   UNL d   1      46.402 -18.297  42.275  0.00  0.00    -0.156 NA
ATOM      5  N   UNL d   1      46.604 -20.065  41.124  0.00  0.00    -0.127 NA
ATOM      6  N   UNL d   1      46.500 -19.527  40.508  0.00  0.00    -0.127 NA
ATOM      7  C   UNL d   1      46.473 -18.547  43.063  0.00  0.00     0.131 A 
ATOM      8  C   UNL d   1      46.646 -19.891  42.623  0.00  0.00     0.043 A 
ATOM      9  C   UNL d   1      46.595 -19.342  43.237  0.00  0.00     0.031 A 
ENDROOT
BRANCH   7  10
ATOM     10  S   UNL d   1      46.420 -17.986  43.675  0.00  0.00    -0.061 SA
BRANCH  10  11
ATOM     11  C   UNL d   1      45.970 -17.294  43.563  0.00  0.00     0.099 C 
BRANCH  11  12
ATOM     12  C   UNL d   1      45.806 -16.804  44.212  0.00  0.00     0.286 C 
ATOM     13  N   UNL d   1      45.793 -16.000  44.120  0.00  0.00    -0.206 NA
ATOM     14  O   UNL d   1      45.654 -17.130  44.955  0.00  0.00    -0.265 OA
BRANCH  13  15
ATOM     15  C   UNL d   1      45.630 -15.506  44.767  0.00  0.00     0.102 C 
BRANCH  15  16
ATOM     16  C   UNL d   1      45.588 -14.704  44.656  0.00  0.00     0.019 A 
ATOM     17  C   UNL d   1      46.268 -14.239  44.607  0.00  0.00     0.004 A 
ATOM     18  C   UNL d   1      46.224 -13.428  44.495  0.00  0.00     0.030 A 
ATOM     19  C   UNL d   1      45.484 -13.067  44.429  0.00  0.00     0.140 A 
ATOM     20  C   UNL d   1      44.808 -13.533  44.479  0.00  0.00     0.030 A 
ATOM     21  F   UNL d   1      45.427 -12.254  44.317  0.00  0.00    -0.204 F 
ATOM     22  C   UNL d   1      44.855 -14.331  44.589  0.00  0.00     0.004 A 
ENDBRANCH  15  16
ENDBRANCH  13  15
ENDBRANCH  11  12
ENDBRANCH  10  11
ENDBRANCH   7  10
BRANCH   3  23
ATOM     23  C   UNL d   1      46.286 -18.064  40.432  0.00  0.00     0.061 C 
BRANCH  23  24
ATOM     24  C   UNL d   1      45.657 -17.992  39.896  0.00  0.00     0.105 C 
BRANCH  24  25
ATOM     25  N   UNL d   1      45.719 -17.464  39.265  0.00  0.00    -0.206 NA
ATOM     26  C   UNL d   1      45.030 -17.136  38.931  0.00  0.00     0.279 C 
ATOM     27  O   UNL d   1      44.287 -17.347  39.240  0.00  0.00    -0.265 OA
BRANCH  26  28
ATOM     28  C   UNL d   1      45.089 -16.610  38.302  0.00  0.00     0.058 A 
ATOM     29  C   UNL d   1      44.517 -16.620  37.707  0.00  0.00     0.005 A 
ATOM     30  C   UNL d   1      44.571 -16.095  37.074  0.00  0.00     0.000 A 
ATOM     31  C   UNL d   1      45.200 -15.559  37.040  0.00  0.00     0.000 A 
ATOM     32  C   UNL d   1      45.772 -15.549  37.636  0.00  0.00     0.000 A 
ATOM     33  C   UNL d   1      45.256 -15.035  36.411  0.00  0.00     0.000 C 
ATOM     34  C   UNL d   1      45.713 -16.079  38.270  0.00  0.00     0.005 A 
ENDBRANCH  26  28
ENDBRANCH  24  25
ENDBRANCH  23  24
ENDBRANCH   3  23
TORSDOF 9
ENDMDL
MODEL 2
REMARK VINA RESULT:      34.7      1.679      5.777
REMARK  9 active torsions:
REMARK  status: ('A' for Active; 'I' for Inactive)
REMARK    1  A    between atoms: C_12  and  C_3 
REMARK    2  A    between atoms: S_14  and  C_7 
REMARK       I    between atoms: C_9  and  N_18 
REMARK    3  A    between atoms: C_13  and  C_9 
REMARK    4  A    between atoms: C_11  and  C_21 
REMARK       I    between atoms: N_15  and  C_11 
REMARK    5  A    between atoms: C_22  and  C_12 
REMARK    6  A    between atoms: C_21  and  S_14 
REMARK    7  A    between atoms: C_23  and  N_15 
REMARK    8  A    between atoms: N_18  and  C_22 
REMARK    9  A    between atoms: C_25  and  C_23 
ROOT
ATOM      1  N   UNL d   1      46.319 -18.342  42.765  0.00  0.00    -0.191 N 
ATOM      2  C   UNL d   1      46.331 -19.146  42.977  0.00  0.00     0.187 A 
ATOM      3  C   UNL d   1      46.326 -17.891  43.459  0.00  0.00     0.188 A 
ATOM      4  N   UNL d   1      46.303 -18.127  41.967  0.00  0.00    -0.156 NA
ATOM      5  N   UNL d   1      46.345 -19.182  43.804  0.00  0.00    -0.127 NA
ATOM      6  N   UNL d   1      46.342 -18.415  44.103  0.00  0.00    -0.127 NA
ATOM      7  C   UNL d   1      46.300 -18.716  41.382  0.00  0.00     0.131 A 
ATOM      8  C   UNL d   1      46.328 -19.720  42.393  0.00  0.00     0.043 A 
ATOM      9  C   UNL d   1      46.312 -19.511  41.594  0.00  0.00     0.031 A 
ENDROOT
BRANCH   7  10
ATOM     10  S   UNL d   1      46.284 -18.495  40.580  0.00  0.00    -0.061 SA
BRANCH  10  11
ATOM     11  C   UNL d   1      45.753 -17.906  40.325  0.00  0.00     0.099 C 
BRANCH  11  12
ATOM     12  C   UNL d   1      45.433 -17.949  39.561  0.00  0.00     0.286 C 
ATOM     13  N   UNL d   1      45.301 -17.273  39.137  0.00  0.00    -0.206 NA
ATOM     14  O   UNL d   1      45.245 -18.681  39.227  0.00  0.00    -0.265 OA
BRANCH  13  15
ATOM     15  C   UNL d   1      44.981 -17.312  38.373  0.00  0.00     0.102 C 
BRANCH  15  16
ATOM     16  C   UNL d   1      44.925 -16.636  37.928  0.00  0.00     0.019 A 
ATOM     17  C   UNL d   1      45.590 -16.178  37.753  0.00  0.00     0.004 A 
ATOM     18  C   UNL d   1      45.531 -15.496  37.303  0.00  0.00     0.030 A 
ATOM     19  C   UNL d   1      44.794 -15.259  37.019  0.00  0.00     0.140 A 
ATOM     20  C   UNL d   1      44.134 -15.716  37.195  0.00  0.00     0.030 A 
ATOM     21  F   UNL d   1      44.723 -14.575  36.567  0.00  0.00    -0.204 F 
ATOM     22  C   UNL d   1      44.194 -16.388  37.638  0.00  0.00     0.004 A 
ENDBRANCH  15  16
ENDBRANCH  13  15
ENDBRANCH  11  12
ENDBRANCH  10  11
ENDBRANCH   7  10
BRANCH   3  23
ATOM     23  C   UNL d   1      46.317 -17.065  43.496  0.00  0.00     0.061 C 
BRANCH  23  24
ATOM     24  C   UNL d   1      46.001 -16.678  44.158  0.00  0.00     0.105 C 
BRANCH  24  25
ATOM     25  N   UNL d   1      46.094 -15.862  44.236  0.00  0.00    -0.206 NA
ATOM     26  C   UNL d   1      45.514 -15.416  44.633  0.00  0.00     0.279 C 
ATOM     27  O   UNL d   1      44.846 -15.801  44.946  0.00  0.00    -0.265 OA
BRANCH  26  28
ATOM     28  C   UNL d   1      45.605 -14.603  44.712  0.00  0.00     0.058 A 
ATOM     29  C   UNL d   1      44.940 -14.127  44.828  0.00  0.00     0.005 A 
ATOM     30  C   UNL d   1      45.025 -13.311  44.908  0.00  0.00     0.000 A 
ATOM     31  C   UNL d   1      45.779 -12.973  44.871  0.00  0.00     0.000 A 
ATOM     32  C   UNL d   1      46.444 -13.449  44.755  0.00  0.00     0.000 A 
ATOM     33  C   UNL d   1      45.866 -12.161  44.951  0.00  0.00     0.000 C 
ATOM     34  C   UNL d   1      46.352 -14.268  44.675  0.00  0.00     0.005 A 
ENDBRANCH  26  28
ENDBRANCH  24  25
ENDBRANCH  23  24
ENDBRANCH   3  23
TORSDOF 9
ENDMDL
