MODEL 1
REMARK VINA RESULT:      36.9      0.000      0.000
REMARK  6 active torsions:
REMARK  status: ('A' for Active; 'I' for Inactive)
REMARK    1  A    between atoms: C_6  and  N_1 
REMARK    2  A    between atoms: C_13  and  C_6 
REMARK    3  A    between atoms: N_12  and  C_22 
REMARK    4  A    between atoms: C_23  and  N_12 
REMARK    5  A    between atoms: C_22  and  C_13 
REMARK    6  A    between atoms: C_20  and  C_23 
ROOT
ATOM      1  N   UNL d   1      13.323  13.031  -3.191  0.00  0.00    -0.303 N 
ATOM      2  C   UNL d   1      13.420  13.254  -4.501  0.00  0.00     0.018 A 
ATOM      3  C   UNL d   1      13.678  13.938  -4.107  0.00  0.00     0.018 A 
ATOM      4  C   UNL d   1      13.201  12.695  -3.935  0.00  0.00     0.064 A 
ATOM      5  C   UNL d   1      13.614  13.790  -3.293  0.00  0.00     0.064 A 
ATOM      6  C   UNL d   1      13.831  14.369  -2.754  0.00  0.00     0.018 A 
ATOM      7  C   UNL d   1      12.923  11.960  -4.175  0.00  0.00     0.018 A 
ATOM      8  C   UNL d   1      13.957  14.663  -4.376  0.00  0.00     0.008 A 
ATOM      9  C   UNL d   1      13.360  13.079  -5.305  0.00  0.00     0.008 A 
ATOM     10  C   UNL d   1      13.079  12.339  -5.538  0.00  0.00     0.035 A 
ATOM     11  C   UNL d   1      14.178  15.252  -3.835  0.00  0.00     0.035 A 
ATOM     12  C   UNL d   1      14.115  15.107  -3.018  0.00  0.00     0.008 A 
ATOM     13  C   UNL d   1      12.861  11.780  -4.973  0.00  0.00     0.008 A 
ATOM     14 BR   UNL d   1      13.018  12.161  -6.339  0.00  0.00    -0.049 Br
ATOM     15 BR   UNL d   1      14.457  15.977  -4.103  0.00  0.00    -0.049 Br
ENDROOT
BRANCH   1  16
ATOM     16  C   UNL d   1      13.174  12.657  -2.470  0.00  0.00     0.124 C 
BRANCH  16  17
ATOM     17  C   UNL d   1      13.707  12.111  -2.165  0.00  0.00     0.232 C 
ATOM     18  O   UNL d   1      14.316  11.816  -2.646  0.00  0.00    -0.283 OA
BRANCH  17  19
ATOM     19  C   UNL d   1      13.641  11.853  -1.383  0.00  0.00     0.142 C 
BRANCH  19  20
ATOM     20  N   UNL d   1      14.316  11.813  -0.909  0.00  0.00    -0.237 NA
BRANCH  20  21
ATOM     21  C   UNL d   1      14.341  12.216  -0.188  0.00  0.00     0.124 C 
BRANCH  21  22
ATOM     22  C   UNL d   1      14.741  12.925  -0.126  0.00  0.00     0.119 A 
ATOM     23  O   UNL d   1      15.566  13.017  -0.109  0.00  0.00    -0.304 OA
ATOM     24  C   UNL d   1      15.729  13.828  -0.040  0.00  0.00     0.123 A 
ATOM     25  C   UNL d   1      15.007  14.229  -0.015  0.00  0.00     0.029 A 
ATOM     26  C   UNL d   1      14.402  13.676  -0.067  0.00  0.00     0.028 A 
ENDBRANCH  21  22
ENDBRANCH  20  21
ENDBRANCH  19  20
ENDBRANCH  17  19
ENDBRANCH  16  17
ENDBRANCH   1  16
TORSDOF 6
ENDMDL
