MODEL 1
REMARK VINA RESULT:     129.5      0.000      0.000
REMARK  9 active torsions:
REMARK  status: ('A' for Active; 'I' for Inactive)
REMARK    1  A    between atoms: N_7  and  N_1 
REMARK    2  A    between atoms: S_9  and  C_2 
REMARK       I    between atoms: C_8  and  N_7 
REMARK    3  A    between atoms: C_15  and  C_8 
REMARK    4  A    between atoms: C_14  and  S_9 
REMARK    5  A    between atoms: C_11  and  C_14 
REMARK       I    between atoms: N_16  and  C_11 
REMARK    6  A    between atoms: C_18  and  C_15 
REMARK    7  A    between atoms: C_19  and  N_16 
REMARK    8  A    between atoms: C_22  and  C_19 
REMARK    9  A    between atoms: C_21  and  C_22 
ROOT
ATOM      1  N   UNL d   1      60.808  45.465  50.592  0.00  0.00    -0.168 N 
ATOM      2  C   UNL d   1      60.165  45.233  51.039  0.00  0.00     0.199 A 
ATOM      3  C   UNL d   1      61.476  44.979  50.548  0.00  0.00     0.283 A 
ATOM      4  N   UNL d   1      60.169  44.502  51.461  0.00  0.00    -0.221 NA
ATOM      5  C   UNL d   1      61.487  44.245  50.968  0.00  0.00     0.076 A 
ATOM      6  C   UNL d   1      60.838  44.011  51.420  0.00  0.00     0.088 A 
ATOM      7  O   UNL d   1      62.131  45.209  50.096  0.00  0.00    -0.265 OA
ATOM      8  C   UNL d   1      62.166  43.765  50.916  0.00  0.00     0.006 A 
ATOM      9  C   UNL d   1      60.858  43.294  51.825  0.00  0.00     0.019 A 
ATOM     10  C   UNL d   1      62.172  43.044  51.330  0.00  0.00     0.000 A 
ATOM     11  C   UNL d   1      61.522  42.810  51.782  0.00  0.00     0.002 A 
ENDROOT
BRANCH   2  12
ATOM     12  S   UNL d   1      59.502  45.709  51.086  0.00  0.00    -0.043 SA
BRANCH  12  13
ATOM     13  C   UNL d   1      58.771  45.436  50.810  0.00  0.00     0.101 C 
BRANCH  13  14
ATOM     14  C   UNL d   1      58.108  45.922  50.856  0.00  0.00     0.286 C 
ATOM     15  O   UNL d   1      57.365  45.591  51.009  0.00  0.00    -0.265 OA
ATOM     16  N   UNL d   1      58.180  46.735  50.753  0.00  0.00    -0.206 NA
BRANCH  16  17
ATOM     17  C   UNL d   1      57.517  47.222  50.799  0.00  0.00     0.102 C 
BRANCH  17  18
ATOM     18  C   UNL d   1      57.602  48.031  50.921  0.00  0.00     0.021 C 
BRANCH  18  19
ATOM     19  C   UNL d   1      57.082  48.560  50.569  0.00  0.00     0.002 A 
ATOM     20  C   UNL d   1      56.748  49.171  51.017  0.00  0.00     0.000 A 
ATOM     21  C   UNL d   1      56.222  49.704  50.657  0.00  0.00     0.000 A 
ATOM     22  C   UNL d   1      56.033  49.627  49.857  0.00  0.00     0.000 A 
ATOM     23  C   UNL d   1      56.373  49.011  49.413  0.00  0.00     0.000 A 
ATOM     24  C   UNL d   1      56.893  48.484  49.770  0.00  0.00     0.000 A 
ENDBRANCH  18  19
ENDBRANCH  17  18
ENDBRANCH  16  17
ENDBRANCH  13  14
ENDBRANCH  12  13
ENDBRANCH   2  12
BRANCH   1  25
ATOM     25  N   UNL d   1      60.792  46.174  50.189  0.00  0.00    -0.119 NA
ATOM     26  C   UNL d   1      61.099  46.855  50.537  0.00  0.00     0.296 C 
ATOM     27  O   UNL d   1      61.426  46.830  51.294  0.00  0.00    -0.264 OA
BRANCH  26  28
ATOM     28  C   UNL d   1      61.080  47.572  50.123  0.00  0.00     0.064 C 
BRANCH  28  29
ATOM     29  C   UNL d   1      61.007  48.277  50.534  0.00  0.00     0.005 A 
ATOM     30  C   UNL d   1      61.052  48.992  50.135  0.00  0.00     0.000 A 
ATOM     31  C   UNL d   1      60.979  49.703  50.546  0.00  0.00     0.000 A 
ATOM     32  C   UNL d   1      60.860  49.691  51.367  0.00  0.00     0.000 A 
ATOM     33  C   UNL d   1      60.816  48.976  51.766  0.00  0.00     0.000 A 
ATOM     34  C   UNL d   1      60.888  48.267  51.356  0.00  0.00     0.000 A 
ENDBRANCH  28  29
ENDBRANCH  26  28
ENDBRANCH   1  25
TORSDOF 9
ENDMDL
