MODEL 1
REMARK VINA RESULT:      -5.9      0.000      0.000
REMARK  2 active torsions:
REMARK  status: ('A' for Active; 'I' for Inactive)
REMARK    1  A    between atoms: C_5  and  CA_2 
REMARK    2  A    between atoms: C_4  and  CA_3 
ROOT
ATOM      1  N   UNL d   1     -41.897-122.052 -53.691  0.00  0.00    -0.233 NA
ATOM      2  CA  UNL d   1     -41.921-122.315 -54.473  0.00  0.00     0.146 A 
ATOM      3  CA  UNL d   1     -41.529-122.502 -53.111  0.00  0.00     0.146 A 
ATOM      4  C   UNL d   1     -41.178-123.229 -53.312  0.00  0.00     0.025 A 
ATOM      5  C   UNL d   1     -41.570-123.042 -54.674  0.00  0.00     0.025 A 
ATOM      6  C   UNL d   1     -41.197-123.500 -54.091  0.00  0.00     0.004 A 
ENDROOT
BRANCH   2   7
ATOM      7  C   UNL d   1     -42.289-121.865 -55.057  0.00  0.00     0.229 C 
ATOM      8  O   UNL d   1     -41.845-121.506 -55.649  0.00  0.00    -0.643 OA
ATOM      9  OXT UNL d   1     -43.106-121.751 -55.080  0.00  0.00    -0.643 OA
ENDBRANCH   2   7
BRANCH   3  10
ATOM     10  C   UNL d   1     -41.506-122.239 -52.335  0.00  0.00     0.229 C 
ATOM     11  O   UNL d   1     -41.138-121.538 -52.121  0.00  0.00    -0.643 OA
ATOM     12  OXT UNL d   1     -41.861-122.676 -51.714  0.00  0.00    -0.643 OA
ENDBRANCH   3  10
TORSDOF 2
ENDMDL
MODEL 2
REMARK VINA RESULT:      -4.6      0.833      1.199
REMARK  2 active torsions:
REMARK  status: ('A' for Active; 'I' for Inactive)
REMARK    1  A    between atoms: C_5  and  CA_2 
REMARK    2  A    between atoms: C_4  and  CA_3 
ROOT
ATOM      1  N   UNL d   1     -41.680-122.256 -52.792  0.00  0.00    -0.233 NA
ATOM      2  CA  UNL d   1     -41.624-122.637 -53.522  0.00  0.00     0.146 A 
ATOM      3  CA  UNL d   1     -41.461-122.642 -52.102  0.00  0.00     0.146 A 
ATOM      4  C   UNL d   1     -41.182-123.425 -52.137  0.00  0.00     0.025 A 
ATOM      5  C   UNL d   1     -41.345-123.420 -53.556  0.00  0.00     0.025 A 
ATOM      6  C   UNL d   1     -41.123-123.815 -52.861  0.00  0.00     0.004 A 
ENDROOT
BRANCH   2   7
ATOM      7  C   UNL d   1     -41.843-122.251 -54.216  0.00  0.00     0.229 C 
ATOM      8  O   UNL d   1     -42.618-121.995 -54.324  0.00  0.00    -0.643 OA
ATOM      9  OXT UNL d   1     -41.311-122.102 -54.828  0.00  0.00    -0.643 OA
ENDBRANCH   2   7
BRANCH   3  10
ATOM     10  C   UNL d   1     -41.517-122.260 -51.378  0.00  0.00     0.229 C 
ATOM     11  O   UNL d   1     -41.162-121.535 -51.237  0.00  0.00    -0.643 OA
ATOM     12  OXT UNL d   1     -41.944-122.595 -50.738  0.00  0.00    -0.643 OA
ENDBRANCH   3  10
TORSDOF 2
ENDMDL
MODEL 3
REMARK VINA RESULT:      -4.1      2.273      3.901
REMARK  2 active torsions:
REMARK  status: ('A' for Active; 'I' for Inactive)
REMARK    1  A    between atoms: C_5  and  CA_2 
REMARK    2  A    between atoms: C_4  and  CA_3 
ROOT
ATOM      1  N   UNL d   1     -42.167-122.430 -50.773  0.00  0.00    -0.233 NA
ATOM      2  CA  UNL d   1     -42.257-122.933 -50.126  0.00  0.00     0.146 A 
ATOM      3  CA  UNL d   1     -41.610-122.592 -51.353  0.00  0.00     0.146 A 
ATOM      4  C   UNL d   1     -41.130-123.268 -51.289  0.00  0.00     0.025 A 
ATOM      5  C   UNL d   1     -41.777-123.610 -50.061  0.00  0.00     0.025 A 
ATOM      6  C   UNL d   1     -41.212-123.778 -50.645  0.00  0.00     0.004 A 
ENDROOT
BRANCH   2   7
ATOM      7  C   UNL d   1     -42.816-122.773 -49.542  0.00  0.00     0.229 C 
ATOM      8  O   UNL d   1     -43.617-122.743 -49.730  0.00  0.00    -0.643 OA
ATOM      9  OXT UNL d   1     -42.611-122.636 -48.755  0.00  0.00    -0.643 OA
ENDBRANCH   2   7
BRANCH   3  10
ATOM     10  C   UNL d   1     -41.522-122.089 -51.996  0.00  0.00     0.229 C 
ATOM     11  O   UNL d   1     -41.123-121.376 -51.942  0.00  0.00    -0.643 OA
ATOM     12  OXT UNL d   1     -41.840-122.281 -52.748  0.00  0.00    -0.643 OA
ENDBRANCH   3  10
TORSDOF 2
ENDMDL
