MODEL 1
REMARK VINA RESULT:      -8.2      0.000      0.000
REMARK  4 active torsions:
REMARK  status: ('A' for Active; 'I' for Inactive)
REMARK    1  A    between atoms: C_5  and  C_3 
REMARK    2  A    between atoms: C_8  and  C_5 
REMARK    3  A    between atoms: C_7  and  C_9 
REMARK    4  A    between atoms: C_9  and  C_8 
ROOT
ATOM      1  C   UNL d   1      53.186  32.467  53.656  0.00  0.00     0.042 C 
ENDROOT
BRANCH   1   2
ATOM      2  C   UNL d   1      53.066  33.259  53.468  0.00  0.00     0.006 C 
BRANCH   2   3
ATOM      3  C   UNL d   1      53.217  33.846  54.040  0.00  0.00     0.039 A 
ATOM      4  C   UNL d   1      53.618  33.823  54.771  0.00  0.00     0.122 A 
ATOM      5  N   UNL d   1      53.588  34.572  55.089  0.00  0.00    -0.164 NA
ATOM      6  N   UNL d   1      53.179  35.069  54.580  0.00  0.00    -0.227 N 
ATOM      7  C   UNL d   1      52.946  34.612  53.922  0.00  0.00     0.085 A 
ATOM      8  C   UNL d   1      52.995  35.871  54.641  0.00  0.00     0.121 C 
ATOM      9  C   UNL d   1      52.526  34.797  53.237  0.00  0.00     0.021 C 
ENDBRANCH   2   3
ENDBRANCH   1   2
BRANCH   1  10
ATOM     10  C   UNL d   1      53.015  31.885  53.091  0.00  0.00     0.199 C 
ATOM     11  O   UNL d   1      52.764  32.103  52.325  0.00  0.00    -0.286 OA
BRANCH  10  12
ATOM     12  C   UNL d   1      53.094  31.078  53.285  0.00  0.00     0.078 A 
ATOM     13  C   UNL d   1      52.432  30.588  53.304  0.00  0.00     0.199 A 
ATOM     14  O   UNL d   1      51.694  30.899  53.130  0.00  0.00    -0.286 OA
ATOM     15  C   UNL d   1      52.522  29.792  53.498  0.00  0.00     0.042 A 
ATOM     16  C   UNL d   1      53.272  29.483  53.674  0.00  0.00     0.003 A 
ATOM     17  C   UNL d   1      53.922  29.971  53.653  0.00  0.00     0.000 A 
ATOM     18  C   UNL d   1      53.843  30.769  53.461  0.00  0.00     0.006 A 
ENDBRANCH  10  12
ENDBRANCH   1  10
TORSDOF 4
ENDMDL
MODEL 2
REMARK VINA RESULT:      -7.8      2.257      3.196
REMARK  4 active torsions:
REMARK  status: ('A' for Active; 'I' for Inactive)
REMARK    1  A    between atoms: C_5  and  C_3 
REMARK    2  A    between atoms: C_8  and  C_5 
REMARK    3  A    between atoms: C_7  and  C_9 
REMARK    4  A    between atoms: C_9  and  C_8 
ROOT
ATOM      1  C   UNL d   1      52.896  33.328  53.339  0.00  0.00     0.042 C 
ENDROOT
BRANCH   1   2
ATOM      2  C   UNL d   1      52.096  33.167  53.239  0.00  0.00     0.006 C 
BRANCH   2   3
ATOM      3  C   UNL d   1      51.635  33.658  52.748  0.00  0.00     0.039 A 
ATOM      4  C   UNL d   1      51.828  34.121  52.080  0.00  0.00     0.122 A 
ATOM      5  N   UNL d   1      51.144  34.483  51.829  0.00  0.00    -0.164 NA
ATOM      6  N   UNL d   1      50.523  34.264  52.318  0.00  0.00    -0.227 N 
ATOM      7  C   UNL d   1      50.832  33.746  52.894  0.00  0.00     0.085 A 
ATOM      8  C   UNL d   1      49.725  34.474  52.304  0.00  0.00     0.121 C 
ATOM      9  C   UNL d   1      50.485  33.348  53.528  0.00  0.00     0.021 C 
ENDBRANCH   2   3
ENDBRANCH   1   2
BRANCH   1  10
ATOM     10  C   UNL d   1      53.366  32.797  53.769  0.00  0.00     0.199 C 
ATOM     11  O   UNL d   1      53.222  31.976  53.725  0.00  0.00    -0.286 OA
BRANCH  10  12
ATOM     12  C   UNL d   1      53.987  33.083  54.247  0.00  0.00     0.078 A 
ATOM     13  C   UNL d   1      54.760  33.091  53.965  0.00  0.00     0.199 A 
ATOM     14  O   UNL d   1      54.918  32.816  53.209  0.00  0.00    -0.286 OA
ATOM     15  C   UNL d   1      55.365  33.375  54.448  0.00  0.00     0.042 A 
ATOM     16  C   UNL d   1      55.200  33.652  55.213  0.00  0.00     0.003 A 
ATOM     17  C   UNL d   1      54.435  33.642  55.486  0.00  0.00     0.000 A 
ATOM     18  C   UNL d   1      53.822  33.359  55.011  0.00  0.00     0.006 A 
ENDBRANCH  10  12
ENDBRANCH   1  10
TORSDOF 4
ENDMDL
MODEL 3
REMARK VINA RESULT:      -7.5      2.074      4.250
REMARK  4 active torsions:
REMARK  status: ('A' for Active; 'I' for Inactive)
REMARK    1  A    between atoms: C_5  and  C_3 
REMARK    2  A    between atoms: C_8  and  C_5 
REMARK    3  A    between atoms: C_7  and  C_9 
REMARK    4  A    between atoms: C_9  and  C_8 
ROOT
ATOM      1  C   UNL d   1      53.348  32.485  53.608  0.00  0.00     0.042 C 
ENDROOT
BRANCH   1   2
ATOM      2  C   UNL d   1      53.673  31.732  53.550  0.00  0.00     0.006 C 
BRANCH   2   3
ATOM      3  C   UNL d   1      53.186  31.087  53.346  0.00  0.00     0.039 A 
ATOM      4  C   UNL d   1      52.501  31.031  52.873  0.00  0.00     0.122 A 
ATOM      5  N   UNL d   1      52.264  30.252  52.877  0.00  0.00    -0.164 NA
ATOM      6  N   UNL d   1      52.781  29.812  53.339  0.00  0.00    -0.227 N 
ATOM      7  C   UNL d   1      53.358  30.337  53.633  0.00  0.00     0.085 A 
ATOM      8  C   UNL d   1      52.789  29.007  53.521  0.00  0.00     0.121 C 
ATOM      9  C   UNL d   1      54.014  30.225  54.121  0.00  0.00     0.021 C 
ENDBRANCH   2   3
ENDBRANCH   1   2
BRANCH   1  10
ATOM     10  C   UNL d   1      53.845  33.132  53.749  0.00  0.00     0.199 C 
ATOM     11  O   UNL d   1      54.674  33.045  53.700  0.00  0.00    -0.286 OA
BRANCH  10  12
ATOM     12  C   UNL d   1      53.519  33.876  53.942  0.00  0.00     0.078 A 
ATOM     13  C   UNL d   1      53.629  34.196  54.692  0.00  0.00     0.199 A 
ATOM     14  O   UNL d   1      54.061  33.780  55.251  0.00  0.00    -0.286 OA
ATOM     15  C   UNL d   1      53.302  34.932  54.871  0.00  0.00     0.042 A 
ATOM     16  C   UNL d   1      52.865  35.349  54.301  0.00  0.00     0.003 A 
ATOM     17  C   UNL d   1      52.760  35.028  53.562  0.00  0.00     0.000 A 
ATOM     18  C   UNL d   1      53.083  34.292  53.373  0.00  0.00     0.006 A 
ENDBRANCH  10  12
ENDBRANCH   1  10
TORSDOF 4
ENDMDL
MODEL 4
REMARK VINA RESULT:      -7.4      1.897      2.261
REMARK  4 active torsions:
REMARK  status: ('A' for Active; 'I' for Inactive)
REMARK    1  A    between atoms: C_5  and  C_3 
REMARK    2  A    between atoms: C_8  and  C_5 
REMARK    3  A    between atoms: C_7  and  C_9 
REMARK    4  A    between atoms: C_9  and  C_8 
ROOT
ATOM      1  C   UNL d   1      52.244  32.678  53.249  0.00  0.00     0.042 C 
ENDROOT
BRANCH   1   2
ATOM      2  C   UNL d   1      52.024  33.352  52.832  0.00  0.00     0.006 C 
BRANCH   2   3
ATOM      3  C   UNL d   1      51.273  33.688  52.959  0.00  0.00     0.039 A 
ATOM      4  C   UNL d   1      50.758  33.675  53.616  0.00  0.00     0.122 A 
ATOM      5  N   UNL d   1      50.096  34.105  53.416  0.00  0.00    -0.164 NA
ATOM      6  N   UNL d   1      50.177  34.392  52.651  0.00  0.00    -0.227 N 
ATOM      7  C   UNL d   1      50.916  34.129  52.366  0.00  0.00     0.085 A 
ATOM      8  C   UNL d   1      49.670  34.852  52.192  0.00  0.00     0.121 C 
ATOM      9  C   UNL d   1      51.303  34.236  51.645  0.00  0.00     0.021 C 
ENDBRANCH   2   3
ENDBRANCH   1   2
BRANCH   1  10
ATOM     10  C   UNL d   1      52.997  32.353  53.128  0.00  0.00     0.199 C 
ATOM     11  O   UNL d   1      53.622  32.831  52.849  0.00  0.00    -0.286 OA
BRANCH  10  12
ATOM     12  C   UNL d   1      53.133  31.545  53.286  0.00  0.00     0.078 A 
ATOM     13  C   UNL d   1      53.581  31.318  53.938  0.00  0.00     0.199 A 
ATOM     14  O   UNL d   1      53.894  31.892  54.433  0.00  0.00    -0.286 OA
ATOM     15  C   UNL d   1      53.709  30.517  54.083  0.00  0.00     0.042 A 
ATOM     16  C   UNL d   1      53.391  29.940  53.578  0.00  0.00     0.003 A 
ATOM     17  C   UNL d   1      52.949  30.170  52.936  0.00  0.00     0.000 A 
ATOM     18  C   UNL d   1      52.815  30.969  52.782  0.00  0.00     0.006 A 
ENDBRANCH  10  12
ENDBRANCH   1  10
TORSDOF 4
ENDMDL
MODEL 5
REMARK VINA RESULT:      -7.2      1.963      3.329
REMARK  4 active torsions:
REMARK  status: ('A' for Active; 'I' for Inactive)
REMARK    1  A    between atoms: C_5  and  C_3 
REMARK    2  A    between atoms: C_8  and  C_5 
REMARK    3  A    between atoms: C_7  and  C_9 
REMARK    4  A    between atoms: C_9  and  C_8 
ROOT
ATOM      1  C   UNL d   1      52.446  33.786  53.461  0.00  0.00     0.042 C 
ENDROOT
BRANCH   1   2
ATOM      2  C   UNL d   1      53.110  33.380  53.725  0.00  0.00     0.006 C 
BRANCH   2   3
ATOM      3  C   UNL d   1      53.595  33.721  54.311  0.00  0.00     0.039 A 
ATOM      4  C   UNL d   1      53.470  34.352  54.842  0.00  0.00     0.122 A 
ATOM      5  N   UNL d   1      54.148  34.435  55.286  0.00  0.00    -0.164 NA
ATOM      6  N   UNL d   1      54.699  33.874  55.051  0.00  0.00    -0.227 N 
ATOM      7  C   UNL d   1      54.351  33.427  54.439  0.00  0.00     0.085 A 
ATOM      8  C   UNL d   1      55.464  33.723  55.321  0.00  0.00     0.121 C 
ATOM      9  C   UNL d   1      54.626  32.794  53.987  0.00  0.00     0.021 C 
ENDBRANCH   2   3
ENDBRANCH   1   2
BRANCH   1  10
ATOM     10  C   UNL d   1      51.954  33.434  52.893  0.00  0.00     0.199 C 
ATOM     11  O   UNL d   1      52.174  32.713  52.535  0.00  0.00    -0.286 OA
BRANCH  10  12
ATOM     12  C   UNL d   1      51.236  33.800  52.678  0.00  0.00     0.078 A 
ATOM     13  C   UNL d   1      51.155  34.157  51.942  0.00  0.00     0.199 A 
ATOM     14  O   UNL d   1      51.786  34.152  51.418  0.00  0.00    -0.286 OA
ATOM     15  C   UNL d   1      50.440  34.515  51.740  0.00  0.00     0.042 A 
ATOM     16  C   UNL d   1      49.804  34.518  52.274  0.00  0.00     0.003 A 
ATOM     17  C   UNL d   1      49.890  34.164  53.001  0.00  0.00     0.000 A 
ATOM     18  C   UNL d   1      50.601  33.802  53.212  0.00  0.00     0.006 A 
ENDBRANCH  10  12
ENDBRANCH   1  10
TORSDOF 4
ENDMDL
MODEL 6
REMARK VINA RESULT:      -7.1      2.230      4.094
REMARK  4 active torsions:
REMARK  status: ('A' for Active; 'I' for Inactive)
REMARK    1  A    between atoms: C_5  and  C_3 
REMARK    2  A    between atoms: C_8  and  C_5 
REMARK    3  A    between atoms: C_7  and  C_9 
REMARK    4  A    between atoms: C_9  and  C_8 
ROOT
ATOM      1  C   UNL d   1      52.387  32.500  52.869  0.00  0.00     0.042 C 
ENDROOT
BRANCH   1   2
ATOM      2  C   UNL d   1      52.984  32.092  53.261  0.00  0.00     0.006 C 
BRANCH   2   3
ATOM      3  C   UNL d   1      52.998  31.259  53.237  0.00  0.00     0.039 A 
ATOM      4  C   UNL d   1      52.685  30.710  52.692  0.00  0.00     0.122 A 
ATOM      5  N   UNL d   1      52.874  29.965  52.960  0.00  0.00    -0.164 NA
ATOM      6  N   UNL d   1      53.299  30.026  53.660  0.00  0.00    -0.227 N 
ATOM      7  C   UNL d   1      53.376  30.839  53.832  0.00  0.00     0.085 A 
ATOM      8  C   UNL d   1      53.618  29.444  54.149  0.00  0.00     0.121 C 
ATOM      9  C   UNL d   1      53.741  31.244  54.452  0.00  0.00     0.021 C 
ENDBRANCH   2   3
ENDBRANCH   1   2
BRANCH   1  10
ATOM     10  C   UNL d   1      52.332  33.322  52.956  0.00  0.00     0.199 C 
ATOM     11  O   UNL d   1      53.009  33.771  53.149  0.00  0.00    -0.286 OA
BRANCH  10  12
ATOM     12  C   UNL d   1      51.599  33.706  52.852  0.00  0.00     0.078 A 
ATOM     13  C   UNL d   1      51.435  34.108  52.153  0.00  0.00     0.199 A 
ATOM     14  O   UNL d   1      51.999  34.131  51.558  0.00  0.00    -0.286 OA
ATOM     15  C   UNL d   1      50.707  34.483  52.061  0.00  0.00     0.042 A 
ATOM     16  C   UNL d   1      50.140  34.457  52.667  0.00  0.00     0.003 A 
ATOM     17  C   UNL d   1      50.306  34.058  53.355  0.00  0.00     0.000 A 
ATOM     18  C   UNL d   1      51.032  33.680  53.457  0.00  0.00     0.006 A 
ENDBRANCH  10  12
ENDBRANCH   1  10
TORSDOF 4
ENDMDL
