MODEL 1
REMARK VINA RESULT:      -7.7      0.000      0.000
REMARK  4 active torsions:
REMARK  status: ('A' for Active; 'I' for Inactive)
REMARK    1  A    between atoms: N_3  and  C_1 
REMARK    2  A    between atoms: C_2  and  S_10 
REMARK    3  A    between atoms: N_5  and  C_9 
REMARK    4  A    between atoms: S_10  and  C_8 
ROOT
ATOM      1  C   UNL d   1     -46.198  13.025  22.865  0.00  0.00     0.134 A 
ATOM      2  C   UNL d   1     -45.741  12.353  23.035  0.00  0.00     0.048 A 
ATOM      3  C   UNL d   1     -47.005  13.053  23.073  0.00  0.00     0.055 A 
ATOM      4  C   UNL d   1     -46.079  11.691  23.417  0.00  0.00     0.128 A 
ATOM      5  C   UNL d   1     -47.341  12.411  23.446  0.00  0.00     0.010 A 
ATOM      6  C   UNL d   1     -46.893  11.740  23.618  0.00  0.00     0.024 A 
ENDROOT
BRANCH   3   7
ATOM      7  S   UNL d   1     -47.462  13.700  22.914  0.00  0.00    -0.041 SA
BRANCH   7   8
ATOM      8  C   UNL d   1     -48.370  13.562  22.719  0.00  0.00     0.215 A 
ATOM      9  N   UNL d   1     -48.954  13.544  23.262  0.00  0.00    -0.214 NA
ATOM     10  C   UNL d   1     -49.667  13.409  22.851  0.00  0.00     0.107 A 
ATOM     11  C   UNL d   1     -50.462  13.333  23.098  0.00  0.00     0.021 A 
ATOM     12  C   UNL d   1     -49.495  13.347  22.052  0.00  0.00     0.120 A 
ATOM     13  C   UNL d   1     -51.045  13.199  22.539  0.00  0.00     0.002 A 
ATOM     14  C   UNL d   1     -50.870  13.138  21.750  0.00  0.00     0.002 A 
ATOM     15  C   UNL d   1     -50.087  13.212  21.497  0.00  0.00     0.026 A 
ATOM     16  O   UNL d   1     -48.655  13.447  21.970  0.00  0.00    -0.283 OA
ENDBRANCH   7   8
ENDBRANCH   3   7
BRANCH   1  17
ATOM     17  N   UNL d   1     -45.834  13.658  22.488  0.00  0.00    -0.113 N 
ATOM     18  O   UNL d   1     -45.634  14.343  22.853  0.00  0.00    -0.532 OA
ATOM     19  O   UNL d   1     -45.637  13.648  21.682  0.00  0.00    -0.532 OA
ENDBRANCH   1  17
BRANCH   4  20
ATOM     20  N   UNL d   1     -45.648  11.016  23.595  0.00  0.00    -0.114 N 
ATOM     21  O   UNL d   1     -45.989  10.246  23.698  0.00  0.00    -0.532 OA
ATOM     22  O   UNL d   1     -44.850  10.982  23.698  0.00  0.00    -0.532 OA
ENDBRANCH   4  20
TORSDOF 4
ENDMDL
MODEL 2
REMARK VINA RESULT:      -7.4      1.486      2.178
REMARK  4 active torsions:
REMARK  status: ('A' for Active; 'I' for Inactive)
REMARK    1  A    between atoms: N_3  and  C_1 
REMARK    2  A    between atoms: C_2  and  S_10 
REMARK    3  A    between atoms: N_5  and  C_9 
REMARK    4  A    between atoms: S_10  and  C_8 
ROOT
ATOM      1  C   UNL d   1     -47.594  12.030  23.031  0.00  0.00     0.134 A 
ATOM      2  C   UNL d   1     -46.779  12.119  22.901  0.00  0.00     0.048 A 
ATOM      3  C   UNL d   1     -48.076  12.695  23.178  0.00  0.00     0.055 A 
ATOM      4  C   UNL d   1     -46.424  12.874  22.915  0.00  0.00     0.128 A 
ATOM      5  C   UNL d   1     -47.736  13.434  23.192  0.00  0.00     0.010 A 
ATOM      6  C   UNL d   1     -46.926  13.531  23.064  0.00  0.00     0.024 A 
ENDROOT
BRANCH   3   7
ATOM      7  S   UNL d   1     -48.870  12.623  23.306  0.00  0.00    -0.041 SA
BRANCH   7   8
ATOM      8  C   UNL d   1     -49.409  13.381  23.175  0.00  0.00     0.215 A 
ATOM      9  N   UNL d   1     -49.488  13.978  23.698  0.00  0.00    -0.214 NA
ATOM     10  C   UNL d   1     -50.013  14.531  23.361  0.00  0.00     0.107 A 
ATOM     11  C   UNL d   1     -50.318  15.263  23.627  0.00  0.00     0.021 A 
ATOM     12  C   UNL d   1     -50.245  14.251  22.628  0.00  0.00     0.120 A 
ATOM     13  C   UNL d   1     -50.837  15.678  23.149  0.00  0.00     0.002 A 
ATOM     14  C   UNL d   1     -51.064  15.397  22.423  0.00  0.00     0.002 A 
ATOM     15  C   UNL d   1     -50.768  14.675  22.153  0.00  0.00     0.026 A 
ATOM     16  O   UNL d   1     -49.852  13.506  22.510  0.00  0.00    -0.283 OA
ENDBRANCH   7   8
ENDBRANCH   3   7
BRANCH   1  17
ATOM     17  N   UNL d   1     -47.912  11.272  23.010  0.00  0.00    -0.113 N 
ATOM     18  O   UNL d   1     -47.978  10.795  23.652  0.00  0.00    -0.532 OA
ATOM     19  O   UNL d   1     -48.197  10.923  22.314  0.00  0.00    -0.532 OA
ENDBRANCH   1  17
BRANCH   4  20
ATOM     20  N   UNL d   1     -45.621  12.988  22.789  0.00  0.00    -0.114 N 
ATOM     21  O   UNL d   1     -45.027  12.405  22.952  0.00  0.00    -0.532 OA
ATOM     22  O   UNL d   1     -45.281  13.656  22.498  0.00  0.00    -0.532 OA
ENDBRANCH   4  20
TORSDOF 4
ENDMDL
MODEL 3
REMARK VINA RESULT:      -6.6      1.732      4.605
REMARK  4 active torsions:
REMARK  status: ('A' for Active; 'I' for Inactive)
REMARK    1  A    between atoms: N_3  and  C_1 
REMARK    2  A    between atoms: C_2  and  S_10 
REMARK    3  A    between atoms: N_5  and  C_9 
REMARK    4  A    between atoms: S_10  and  C_8 
ROOT
ATOM      1  C   UNL d   1     -50.113  13.146  23.018  0.00  0.00     0.134 A 
ATOM      2  C   UNL d   1     -50.599  13.814  22.940  0.00  0.00     0.048 A 
ATOM      3  C   UNL d   1     -49.305  13.230  23.208  0.00  0.00     0.055 A 
ATOM      4  C   UNL d   1     -50.293  14.583  23.048  0.00  0.00     0.128 A 
ATOM      5  C   UNL d   1     -48.999  13.978  23.315  0.00  0.00     0.010 A 
ATOM      6  C   UNL d   1     -49.477  14.646  23.238  0.00  0.00     0.024 A 
ENDROOT
BRANCH   3   7
ATOM      7  S   UNL d   1     -48.819  12.590  23.287  0.00  0.00    -0.041 SA
BRANCH   7   8
ATOM      8  C   UNL d   1     -47.914  12.690  23.056  0.00  0.00     0.215 A 
ATOM      9  N   UNL d   1     -47.301  12.475  23.517  0.00  0.00    -0.214 NA
ATOM     10  C   UNL d   1     -46.603  12.661  23.100  0.00  0.00     0.107 A 
ATOM     11  C   UNL d   1     -45.791  12.574  23.279  0.00  0.00     0.021 A 
ATOM     12  C   UNL d   1     -46.815  12.992  22.382  0.00  0.00     0.120 A 
ATOM     13  C   UNL d   1     -45.231  12.820  22.735  0.00  0.00     0.002 A 
ATOM     14  C   UNL d   1     -45.445  13.147  22.025  0.00  0.00     0.002 A 
ATOM     15  C   UNL d   1     -46.245  13.237  21.840  0.00  0.00     0.026 A 
ATOM     16  O   UNL d   1     -47.664  13.010  22.356  0.00  0.00    -0.283 OA
ENDBRANCH   7   8
ENDBRANCH   3   7
BRANCH   1  17
ATOM     17  N   UNL d   1     -50.447  12.404  22.905  0.00  0.00    -0.113 N 
ATOM     18  O   UNL d   1     -50.505  12.042  22.192  0.00  0.00    -0.532 OA
ATOM     19  O   UNL d   1     -50.762  11.954  23.527  0.00  0.00    -0.532 OA
ENDBRANCH   1  17
BRANCH   4  20
ATOM     20  N   UNL d   1     -50.754  15.258  22.975  0.00  0.00    -0.114 N 
ATOM     21  O   UNL d   1     -51.064  15.546  22.240  0.00  0.00    -0.532 OA
ATOM     22  O   UNL d   1     -50.978  15.740  23.579  0.00  0.00    -0.532 OA
ENDBRANCH   4  20
TORSDOF 4
ENDMDL
MODEL 4
REMARK VINA RESULT:      -6.4      1.662      4.299
REMARK  4 active torsions:
REMARK  status: ('A' for Active; 'I' for Inactive)
REMARK    1  A    between atoms: N_3  and  C_1 
REMARK    2  A    between atoms: C_2  and  S_10 
REMARK    3  A    between atoms: N_5  and  C_9 
REMARK    4  A    between atoms: S_10  and  C_8 
ROOT
ATOM      1  C   UNL d   1     -49.233  14.492  22.579  0.00  0.00     0.134 A 
ATOM      2  C   UNL d   1     -49.922  14.239  22.192  0.00  0.00     0.048 A 
ATOM      3  C   UNL d   1     -48.565  13.994  22.623  0.00  0.00     0.055 A 
ATOM      4  C   UNL d   1     -49.963  13.484  21.838  0.00  0.00     0.128 A 
ATOM      5  C   UNL d   1     -48.597  13.256  22.280  0.00  0.00     0.010 A 
ATOM      6  C   UNL d   1     -49.279  12.999  21.893  0.00  0.00     0.024 A 
ENDROOT
BRANCH   3   7
ATOM      7  S   UNL d   1     -47.887  14.226  22.996  0.00  0.00    -0.041 SA
BRANCH   7   8
ATOM      8  C   UNL d   1     -47.098  13.751  22.815  0.00  0.00     0.215 A 
ATOM      9  N   UNL d   1     -46.872  13.086  23.191  0.00  0.00    -0.214 NA
ATOM     10  C   UNL d   1     -46.144  12.852  22.859  0.00  0.00     0.107 A 
ATOM     11  C   UNL d   1     -45.628  12.211  23.008  0.00  0.00     0.021 A 
ATOM     12  C   UNL d   1     -45.942  13.392  22.277  0.00  0.00     0.120 A 
ATOM     13  C   UNL d   1     -44.939  12.139  22.572  0.00  0.00     0.002 A 
ATOM     14  C   UNL d   1     -44.743  12.676  21.997  0.00  0.00     0.002 A 
ATOM     15  C   UNL d   1     -45.247  13.313  21.843  0.00  0.00     0.026 A 
ATOM     16  O   UNL d   1     -46.561  13.973  22.251  0.00  0.00    -0.283 OA
ENDBRANCH   7   8
ENDBRANCH   3   7
BRANCH   1  17
ATOM     17  N   UNL d   1     -49.228  15.241  22.917  0.00  0.00    -0.113 N 
ATOM     18  O   UNL d   1     -48.993  15.905  22.533  0.00  0.00    -0.532 OA
ATOM     19  O   UNL d   1     -49.469  15.383  23.698  0.00  0.00    -0.532 OA
ENDBRANCH   1  17
BRANCH   4  20
ATOM     20  N   UNL d   1     -50.633  13.212  21.450  0.00  0.00    -0.114 N 
ATOM     21  O   UNL d   1     -51.033  13.639  20.835  0.00  0.00    -0.532 OA
ATOM     22  O   UNL d   1     -51.006  12.513  21.590  0.00  0.00    -0.532 OA
ENDBRANCH   4  20
TORSDOF 4
ENDMDL
MODEL 5
REMARK VINA RESULT:      -6.0      8.889      9.916
REMARK  4 active torsions:
REMARK  status: ('A' for Active; 'I' for Inactive)
REMARK    1  A    between atoms: N_3  and  C_1 
REMARK    2  A    between atoms: C_2  and  S_10 
REMARK    3  A    between atoms: N_5  and  C_9 
REMARK    4  A    between atoms: S_10  and  C_8 
ROOT
ATOM      1  C   UNL d   1     -39.542  14.083  17.749  0.00  0.00     0.134 A 
ATOM      2  C   UNL d   1     -40.003  14.455  17.168  0.00  0.00     0.048 A 
ATOM      3  C   UNL d   1     -39.616  14.299  18.552  0.00  0.00     0.055 A 
ATOM      4  C   UNL d   1     -40.550  15.052  17.372  0.00  0.00     0.128 A 
ATOM      5  C   UNL d   1     -40.148  14.881  18.757  0.00  0.00     0.010 A 
ATOM      6  C   UNL d   1     -40.609  15.255  18.184  0.00  0.00     0.024 A 
ENDROOT
BRANCH   3   7
ATOM      7  S   UNL d   1     -39.175  13.946  19.128  0.00  0.00    -0.041 SA
BRANCH   7   8
ATOM      8  C   UNL d   1     -39.067  14.401  19.943  0.00  0.00     0.215 A 
ATOM      9  N   UNL d   1     -39.509  14.278  20.594  0.00  0.00    -0.214 NA
ATOM     10  C   UNL d   1     -39.227  14.795  21.184  0.00  0.00     0.107 A 
ATOM     11  C   UNL d   1     -39.453  14.934  21.977  0.00  0.00     0.021 A 
ATOM     12  C   UNL d   1     -38.607  15.229  20.870  0.00  0.00     0.120 A 
ATOM     13  C   UNL d   1     -39.051  15.495  22.417  0.00  0.00     0.002 A 
ATOM     14  C   UNL d   1     -38.438  15.922  22.102  0.00  0.00     0.002 A 
ATOM     15  C   UNL d   1     -38.208  15.792  21.319  0.00  0.00     0.026 A 
ATOM     16  O   UNL d   1     -38.506  14.971  20.066  0.00  0.00    -0.283 OA
ENDBRANCH   7   8
ENDBRANCH   3   7
BRANCH   1  17
ATOM     17  N   UNL d   1     -39.013  13.499  17.514  0.00  0.00    -0.113 N 
ATOM     18  O   UNL d   1     -39.136  12.714  17.619  0.00  0.00    -0.532 OA
ATOM     19  O   UNL d   1     -38.293  13.670  17.140  0.00  0.00    -0.532 OA
ENDBRANCH   1  17
BRANCH   4  20
ATOM     20  N   UNL d   1     -41.016  15.434  16.815  0.00  0.00    -0.114 N 
ATOM     21  O   UNL d   1     -40.710  15.916  16.187  0.00  0.00    -0.532 OA
ATOM     22  O   UNL d   1     -41.819  15.410  16.779  0.00  0.00    -0.532 OA
ENDBRANCH   4  20
TORSDOF 4
ENDMDL
MODEL 6
REMARK VINA RESULT:      -5.9      8.555      9.785
REMARK  4 active torsions:
REMARK  status: ('A' for Active; 'I' for Inactive)
REMARK    1  A    between atoms: N_3  and  C_1 
REMARK    2  A    between atoms: C_2  and  S_10 
REMARK    3  A    between atoms: N_5  and  C_9 
REMARK    4  A    between atoms: S_10  and  C_8 
ROOT
ATOM      1  C   UNL d   1     -40.230  14.788  17.228  0.00  0.00     0.134 A 
ATOM      2  C   UNL d   1     -39.674  14.754  16.611  0.00  0.00     0.048 A 
ATOM      3  C   UNL d   1     -40.059  14.450  17.971  0.00  0.00     0.055 A 
ATOM      4  C   UNL d   1     -38.935  14.382  16.721  0.00  0.00     0.128 A 
ATOM      5  C   UNL d   1     -39.340  14.086  18.085  0.00  0.00     0.010 A 
ATOM      6  C   UNL d   1     -38.783  14.049  17.477  0.00  0.00     0.024 A 
ENDROOT
BRANCH   3   7
ATOM      7  S   UNL d   1     -40.589  14.475  18.580  0.00  0.00    -0.041 SA
BRANCH   7   8
ATOM      8  C   UNL d   1     -40.259  14.617  19.447  0.00  0.00     0.215 A 
ATOM      9  N   UNL d   1     -40.163  14.046  19.995  0.00  0.00    -0.214 NA
ATOM     10  C   UNL d   1     -39.859  14.412  20.680  0.00  0.00     0.107 A 
ATOM     11  C   UNL d   1     -39.643  14.122  21.434  0.00  0.00     0.021 A 
ATOM     12  C   UNL d   1     -39.777  15.213  20.528  0.00  0.00     0.120 A 
ATOM     13  C   UNL d   1     -39.356  14.642  21.997  0.00  0.00     0.002 A 
ATOM     14  C   UNL d   1     -39.277  15.434  21.842  0.00  0.00     0.002 A 
ATOM     15  C   UNL d   1     -39.488  15.729  21.100  0.00  0.00     0.026 A 
ATOM     16  O   UNL d   1     -40.037  15.342  19.729  0.00  0.00    -0.283 OA
ENDBRANCH   7   8
ENDBRANCH   3   7
BRANCH   1  17
ATOM     17  N   UNL d   1     -40.948  15.162  17.086  0.00  0.00    -0.113 N 
ATOM     18  O   UNL d   1     -41.106  15.922  17.285  0.00  0.00    -0.532 OA
ATOM     19  O   UNL d   1     -41.586  14.782  16.716  0.00  0.00    -0.532 OA
ENDBRANCH   1  17
BRANCH   4  20
ATOM     20  N   UNL d   1     -38.371  14.337  16.127  0.00  0.00    -0.114 N 
ATOM     21  O   UNL d   1     -38.159  13.620  15.725  0.00  0.00    -0.532 OA
ATOM     22  O   UNL d   1     -37.940  14.953  15.841  0.00  0.00    -0.532 OA
ENDBRANCH   4  20
TORSDOF 4
ENDMDL
MODEL 7
REMARK VINA RESULT:      -5.7      7.778      9.342
REMARK  4 active torsions:
REMARK  status: ('A' for Active; 'I' for Inactive)
REMARK    1  A    between atoms: N_3  and  C_1 
REMARK    2  A    between atoms: C_2  and  S_10 
REMARK    3  A    between atoms: N_5  and  C_9 
REMARK    4  A    between atoms: S_10  and  C_8 
ROOT
ATOM      1  C   UNL d   1     -40.482  15.039  20.854  0.00  0.00     0.134 A 
ATOM      2  C   UNL d   1     -40.038  15.263  21.518  0.00  0.00     0.048 A 
ATOM      3  C   UNL d   1     -40.112  14.682  20.197  0.00  0.00     0.055 A 
ATOM      4  C   UNL d   1     -39.213  15.137  21.544  0.00  0.00     0.128 A 
ATOM      5  C   UNL d   1     -39.308  14.556  20.216  0.00  0.00     0.010 A 
ATOM      6  C   UNL d   1     -38.860  14.777  20.873  0.00  0.00     0.024 A 
ENDROOT
BRANCH   3   7
ATOM      7  S   UNL d   1     -40.531  14.459  19.544  0.00  0.00    -0.041 SA
BRANCH   7   8
ATOM      8  C   UNL d   1     -40.072  14.387  18.727  0.00  0.00     0.215 A 
ATOM      9  N   UNL d   1     -39.746  13.717  18.447  0.00  0.00    -0.214 NA
ATOM     10  C   UNL d   1     -39.398  13.901  17.712  0.00  0.00     0.107 A 
ATOM     11  C   UNL d   1     -38.976  13.448  17.150  0.00  0.00     0.021 A 
ATOM     12  C   UNL d   1     -39.525  14.696  17.561  0.00  0.00     0.120 A 
ATOM     13  C   UNL d   1     -38.703  13.808  16.468  0.00  0.00     0.002 A 
ATOM     14  C   UNL d   1     -38.831  14.595  16.323  0.00  0.00     0.002 A 
ATOM     15  C   UNL d   1     -39.246  15.051  16.872  0.00  0.00     0.026 A 
ATOM     16  O   UNL d   1     -39.962  15.008  18.220  0.00  0.00    -0.283 OA
ENDBRANCH   7   8
ENDBRANCH   3   7
BRANCH   1  17
ATOM     17  N   UNL d   1     -41.292  15.178  20.861  0.00  0.00    -0.113 N 
ATOM     18  O   UNL d   1     -41.842  14.618  21.024  0.00  0.00    -0.532 OA
ATOM     19  O   UNL d   1     -41.622  15.922  20.699  0.00  0.00    -0.532 OA
ENDBRANCH   1  17
BRANCH   4  20
ATOM     20  N   UNL d   1     -38.753  15.350  22.189  0.00  0.00    -0.114 N 
ATOM     21  O   UNL d   1     -38.812  14.991  22.956  0.00  0.00    -0.532 OA
ATOM     22  O   UNL d   1     -38.187  15.922  22.194  0.00  0.00    -0.532 OA
ENDBRANCH   4  20
TORSDOF 4
ENDMDL
