MODEL 1
REMARK VINA RESULT:      -2.4      0.000      0.000
REMARK  5 active torsions:
REMARK  status: ('A' for Active; 'I' for Inactive)
REMARK    1  A    between atoms: C_2  and  S_1 
REMARK    2  A    between atoms: N_5  and  S_1 
REMARK    3  A    between atoms: O_18  and  C_4 
REMARK    4  A    between atoms: C_13  and  N_5 
REMARK    5  A    between atoms: C_11  and  C_13 
ROOT
ATOM      1  C   UNL d   1      32.603  17.785 -23.690  0.00  0.00     0.128 A 
ATOM      2  C   UNL d   1      33.011  17.141 -23.374  0.00  0.00     0.026 A 
ATOM      3  C   UNL d   1      32.016  17.663 -24.255  0.00  0.00     0.106 A 
ATOM      4  C   UNL d   1      32.829  16.374 -23.624  0.00  0.00     0.059 A 
ATOM      5  C   UNL d   1      31.834  16.896 -24.505  0.00  0.00     0.026 A 
ATOM      6  C   UNL d   1      32.241  16.252 -24.189  0.00  0.00     0.013 A 
ATOM      7 CL   UNL d   1      33.236  15.730 -23.308  0.00  0.00    -0.082 Cl
ATOM      8  C   UNL d   1      32.060  15.484 -24.439  0.00  0.00     0.001 C 
ENDROOT
BRANCH   1   9
ATOM      9  S   UNL d   1      32.785  18.552 -23.440  0.00  0.00     0.287 S 
ATOM     10  O   UNL d   1      32.333  18.437 -22.757  0.00  0.00    -0.198 OA
ATOM     11  O   UNL d   1      33.236  18.668 -24.122  0.00  0.00    -0.198 OA
BRANCH   9  12
ATOM     12  N   UNL d   1      32.966  19.320 -23.190  0.00  0.00    -0.155 NA
BRANCH  12  13
ATOM     13  C   UNL d   1      32.931  19.512 -22.389  0.00  0.00     0.137 C 
BRANCH  13  14
ATOM     14  C   UNL d   1      33.045  20.294 -22.145  0.00  0.00     0.120 A 
ATOM     15  O   UNL d   1      33.147  20.949 -22.640  0.00  0.00    -0.304 OA
ATOM     16  C   UNL d   1      33.241  21.614 -22.166  0.00  0.00     0.123 A 
ATOM     17  C   UNL d   1      33.197  21.375 -21.376  0.00  0.00     0.029 A 
ATOM     18  C   UNL d   1      33.077  20.563 -21.367  0.00  0.00     0.028 A 
ENDBRANCH  13  14
ENDBRANCH  12  13
ENDBRANCH   9  12
ENDBRANCH   1   9
BRANCH   3  19
ATOM     19  O   UNL d   1      31.606  18.309 -24.574  0.00  0.00    -0.327 OA
ATOM     20  C   UNL d   1      30.979  18.184 -25.095  0.00  0.00     0.181 C 
ENDBRANCH   3  19
TORSDOF 5
ENDMDL
MODEL 2
REMARK VINA RESULT:      -1.1      1.457      2.044
REMARK  5 active torsions:
REMARK  status: ('A' for Active; 'I' for Inactive)
REMARK    1  A    between atoms: C_2  and  S_1 
REMARK    2  A    between atoms: N_5  and  S_1 
REMARK    3  A    between atoms: O_18  and  C_4 
REMARK    4  A    between atoms: C_13  and  N_5 
REMARK    5  A    between atoms: C_11  and  C_13 
ROOT
ATOM      1  C   UNL d   1      32.954  19.334 -23.085  0.00  0.00     0.128 A 
ATOM      2  C   UNL d   1      32.759  18.575 -22.826  0.00  0.00     0.026 A 
ATOM      3  C   UNL d   1      33.045  19.482 -23.891  0.00  0.00     0.106 A 
ATOM      4  C   UNL d   1      32.656  17.964 -23.373  0.00  0.00     0.059 A 
ATOM      5  C   UNL d   1      32.943  18.871 -24.439  0.00  0.00     0.026 A 
ATOM      6  C   UNL d   1      32.748  18.113 -24.180  0.00  0.00     0.013 A 
ATOM      7 CL   UNL d   1      32.461  17.206 -23.114  0.00  0.00    -0.082 Cl
ATOM      8  C   UNL d   1      32.645  17.502 -24.727  0.00  0.00     0.001 C 
ENDROOT
BRANCH   1   9
ATOM      9  S   UNL d   1      33.057  19.945 -22.537  0.00  0.00     0.287 S 
ATOM     10  O   UNL d   1      32.873  20.500 -23.122  0.00  0.00    -0.198 OA
ATOM     11  O   UNL d   1      33.240  19.390 -21.953  0.00  0.00    -0.198 OA
BRANCH   9  12
ATOM     12  N   UNL d   1      33.160  20.556 -21.989  0.00  0.00    -0.155 NA
BRANCH  12  13
ATOM     13  C   UNL d   1      32.630  20.643 -21.363  0.00  0.00     0.137 C 
BRANCH  13  14
ATOM     14  C   UNL d   1      32.675  21.306 -20.872  0.00  0.00     0.120 A 
ATOM     15  O   UNL d   1      33.197  21.410 -20.239  0.00  0.00    -0.304 OA
ATOM     16  C   UNL d   1      33.051  22.146 -19.905  0.00  0.00     0.123 A 
ATOM     17  C   UNL d   1      32.437  22.503 -20.330  0.00  0.00     0.029 A 
ATOM     18  C   UNL d   1      32.209  21.984 -20.923  0.00  0.00     0.028 A 
ENDBRANCH  13  14
ENDBRANCH  12  13
ENDBRANCH   9  12
ENDBRANCH   1   9
BRANCH   3  19
ATOM     19  O   UNL d   1      33.241  20.243 -24.153  0.00  0.00    -0.327 OA
ATOM     20  C   UNL d   1      33.237  20.416 -24.960  0.00  0.00     0.181 C 
ENDBRANCH   3  19
TORSDOF 5
ENDMDL
MODEL 3
REMARK VINA RESULT:      -1.0      2.977      4.700
REMARK  5 active torsions:
REMARK  status: ('A' for Active; 'I' for Inactive)
REMARK    1  A    between atoms: C_2  and  S_1 
REMARK    2  A    between atoms: N_5  and  S_1 
REMARK    3  A    between atoms: O_18  and  C_4 
REMARK    4  A    between atoms: C_13  and  N_5 
REMARK    5  A    between atoms: C_11  and  C_13 
ROOT
ATOM      1  C   UNL d   1      31.140  16.913 -24.248  0.00  0.00     0.128 A 
ATOM      2  C   UNL d   1      31.112  17.678 -24.555  0.00  0.00     0.026 A 
ATOM      3  C   UNL d   1      31.868  16.568 -24.070  0.00  0.00     0.106 A 
ATOM      4  C   UNL d   1      31.813  18.098 -24.684  0.00  0.00     0.059 A 
ATOM      5  C   UNL d   1      32.569  16.988 -24.199  0.00  0.00     0.026 A 
ATOM      6  C   UNL d   1      32.541  17.753 -24.506  0.00  0.00     0.013 A 
ATOM      7 CL   UNL d   1      31.785  18.863 -24.991  0.00  0.00    -0.082 Cl
ATOM      8  C   UNL d   1      33.241  18.173 -24.635  0.00  0.00     0.001 C 
ENDROOT
BRANCH   1   9
ATOM      9  S   UNL d   1      30.440  16.493 -24.119  0.00  0.00     0.287 S 
ATOM     10  O   UNL d   1      30.337  16.414 -24.935  0.00  0.00    -0.198 OA
ATOM     11  O   UNL d   1      30.543  16.571 -23.303  0.00  0.00    -0.198 OA
BRANCH   9  12
ATOM     12  N   UNL d   1      29.740  16.072 -23.990  0.00  0.00    -0.155 NA
BRANCH  12  13
ATOM     13  C   UNL d   1      29.010  16.440 -24.104  0.00  0.00     0.137 C 
BRANCH  13  14
ATOM     14  C   UNL d   1      28.321  16.095 -23.805  0.00  0.00     0.120 A 
ATOM     15  O   UNL d   1      27.737  15.709 -24.246  0.00  0.00    -0.304 OA
ATOM     16  C   UNL d   1      27.154  15.453 -23.728  0.00  0.00     0.123 A 
ATOM     17  C   UNL d   1      27.373  15.678 -22.963  0.00  0.00     0.029 A 
ATOM     18  C   UNL d   1      28.090  16.072 -23.014  0.00  0.00     0.028 A 
ENDBRANCH  13  14
ENDBRANCH  12  13
ENDBRANCH   9  12
ENDBRANCH   1   9
BRANCH   3  19
ATOM     19  O   UNL d   1      31.898  15.800 -23.761  0.00  0.00    -0.327 OA
ATOM     20  C   UNL d   1      32.585  15.529 -23.393  0.00  0.00     0.181 C 
ENDBRANCH   3  19
TORSDOF 5
ENDMDL
MODEL 4
REMARK VINA RESULT:      -0.6      1.765      4.402
REMARK  5 active torsions:
REMARK  status: ('A' for Active; 'I' for Inactive)
REMARK    1  A    between atoms: C_2  and  S_1 
REMARK    2  A    between atoms: N_5  and  S_1 
REMARK    3  A    between atoms: O_18  and  C_4 
REMARK    4  A    between atoms: C_13  and  N_5 
REMARK    5  A    between atoms: C_11  and  C_13 
ROOT
ATOM      1  C   UNL d   1      32.926  20.459 -22.234  0.00  0.00     0.128 A 
ATOM      2  C   UNL d   1      32.737  20.499 -21.432  0.00  0.00     0.026 A 
ATOM      3  C   UNL d   1      33.045  21.152 -22.664  0.00  0.00     0.106 A 
ATOM      4  C   UNL d   1      32.665  21.234 -21.060  0.00  0.00     0.059 A 
ATOM      5  C   UNL d   1      32.974  21.888 -22.292  0.00  0.00     0.026 A 
ATOM      6  C   UNL d   1      32.784  21.928 -21.490  0.00  0.00     0.013 A 
ATOM      7 CL   UNL d   1      32.475  21.275 -20.258  0.00  0.00    -0.082 Cl
ATOM      8  C   UNL d   1      32.712  22.663 -21.118  0.00  0.00     0.001 C 
ENDROOT
BRANCH   1   9
ATOM      9  S   UNL d   1      32.998  19.724 -22.606  0.00  0.00     0.287 S 
ATOM     10  O   UNL d   1      32.759  20.062 -23.321  0.00  0.00    -0.198 OA
ATOM     11  O   UNL d   1      33.236  19.385 -21.891  0.00  0.00    -0.198 OA
BRANCH   9  12
ATOM     12  N   UNL d   1      33.069  18.988 -22.978  0.00  0.00    -0.155 NA
BRANCH  12  13
ATOM     13  C   UNL d   1      32.453  18.442 -22.934  0.00  0.00     0.137 C 
BRANCH  13  14
ATOM     14  C   UNL d   1      32.518  17.712 -23.318  0.00  0.00     0.120 A 
ATOM     15  O   UNL d   1      33.210  17.266 -23.403  0.00  0.00    -0.304 OA
ATOM     16  C   UNL d   1      33.022  16.583 -23.820  0.00  0.00     0.123 A 
ATOM     17  C   UNL d   1      32.214  16.603 -23.995  0.00  0.00     0.029 A 
ATOM     18  C   UNL d   1      31.908  17.298 -23.685  0.00  0.00     0.028 A 
ENDBRANCH  13  14
ENDBRANCH  12  13
ENDBRANCH   9  12
ENDBRANCH   1   9
BRANCH   3  19
ATOM     19  O   UNL d   1      33.236  21.114 -23.469  0.00  0.00    -0.327 OA
ATOM     20  C   UNL d   1      33.240  21.801 -23.926  0.00  0.00     0.181 C 
ENDBRANCH   3  19
TORSDOF 5
ENDMDL
MODEL 5
REMARK VINA RESULT:      -0.1      4.383      5.800
REMARK  5 active torsions:
REMARK  status: ('A' for Active; 'I' for Inactive)
REMARK    1  A    between atoms: C_2  and  S_1 
REMARK    2  A    between atoms: N_5  and  S_1 
REMARK    3  A    between atoms: O_18  and  C_4 
REMARK    4  A    between atoms: C_13  and  N_5 
REMARK    5  A    between atoms: C_11  and  C_13 
ROOT
ATOM      1  C   UNL d   1      32.734  22.303 -20.239  0.00  0.00     0.128 A 
ATOM      2  C   UNL d   1      33.035  21.542 -20.342  0.00  0.00     0.026 A 
ATOM      3  C   UNL d   1      32.306  22.662 -20.847  0.00  0.00     0.106 A 
ATOM      4  C   UNL d   1      32.908  21.139 -21.052  0.00  0.00     0.059 A 
ATOM      5  C   UNL d   1      32.179  22.258 -21.558  0.00  0.00     0.026 A 
ATOM      6  C   UNL d   1      32.480  21.497 -21.660  0.00  0.00     0.013 A 
ATOM      7 CL   UNL d   1      33.208  20.378 -21.155  0.00  0.00    -0.082 Cl
ATOM      8  C   UNL d   1      32.353  21.094 -22.371  0.00  0.00     0.001 C 
ENDROOT
BRANCH   1   9
ATOM      9  S   UNL d   1      32.861  22.707 -19.529  0.00  0.00     0.287 S 
ATOM     10  O   UNL d   1      33.208  23.331 -19.945  0.00  0.00    -0.198 OA
ATOM     11  O   UNL d   1      32.515  22.083 -19.113  0.00  0.00    -0.198 OA
BRANCH   9  12
ATOM     12  N   UNL d   1      32.988  23.110 -18.818  0.00  0.00    -0.155 NA
BRANCH  12  13
ATOM     13  C   UNL d   1      33.240  22.699 -18.149  0.00  0.00     0.137 C 
BRANCH  13  14
ATOM     14  C   UNL d   1      33.018  22.958 -17.396  0.00  0.00     0.120 A 
ATOM     15  O   UNL d   1      32.630  23.667 -17.218  0.00  0.00    -0.304 OA
ATOM     16  C   UNL d   1      32.519  23.700 -16.405  0.00  0.00     0.123 A 
ATOM     17  C   UNL d   1      32.836  23.012 -16.074  0.00  0.00     0.029 A 
ATOM     18  C   UNL d   1      33.142  22.559 -16.686  0.00  0.00     0.028 A 
ENDBRANCH  13  14
ENDBRANCH  12  13
ENDBRANCH   9  12
ENDBRANCH   1   9
BRANCH   3  19
ATOM     19  O   UNL d   1      32.004  23.426 -20.746  0.00  0.00    -0.327 OA
ATOM     20  C   UNL d   1      31.395  23.697 -21.232  0.00  0.00     0.181 C 
ENDBRANCH   3  19
TORSDOF 5
ENDMDL
MODEL 6
REMARK VINA RESULT:       0.0      2.430      3.172
REMARK  5 active torsions:
REMARK  status: ('A' for Active; 'I' for Inactive)
REMARK    1  A    between atoms: C_2  and  S_1 
REMARK    2  A    between atoms: N_5  and  S_1 
REMARK    3  A    between atoms: O_18  and  C_4 
REMARK    4  A    between atoms: C_13  and  N_5 
REMARK    5  A    between atoms: C_11  and  C_13 
ROOT
ATOM      1  C   UNL d   1      30.087  16.755 -24.013  0.00  0.00     0.128 A 
ATOM      2  C   UNL d   1      30.042  16.242 -23.368  0.00  0.00     0.026 A 
ATOM      3  C   UNL d   1      29.397  16.991 -24.399  0.00  0.00     0.106 A 
ATOM      4  C   UNL d   1      29.307  15.965 -23.109  0.00  0.00     0.059 A 
ATOM      5  C   UNL d   1      28.662  16.714 -24.140  0.00  0.00     0.026 A 
ATOM      6  C   UNL d   1      28.618  16.201 -23.495  0.00  0.00     0.013 A 
ATOM      7 CL   UNL d   1      29.263  15.453 -22.465  0.00  0.00    -0.082 Cl
ATOM      8  C   UNL d   1      27.883  15.924 -23.237  0.00  0.00     0.001 C 
ENDROOT
BRANCH   1   9
ATOM      9  S   UNL d   1      30.822  17.032 -24.271  0.00  0.00     0.287 S 
ATOM     10  O   UNL d   1      30.582  16.935 -25.057  0.00  0.00    -0.198 OA
ATOM     11  O   UNL d   1      31.062  17.129 -23.487  0.00  0.00    -0.198 OA
BRANCH   9  12
ATOM     12  N   UNL d   1      31.557  17.309 -24.530  0.00  0.00    -0.155 NA
BRANCH  12  13
ATOM     13  C   UNL d   1      32.064  17.690 -24.002  0.00  0.00     0.137 C 
BRANCH  13  14
ATOM     14  C   UNL d   1      32.518  18.333 -24.255  0.00  0.00     0.120 A 
ATOM     15  O   UNL d   1      32.775  18.475 -25.029  0.00  0.00    -0.304 OA
ATOM     16  C   UNL d   1      33.207  19.174 -25.029  0.00  0.00     0.123 A 
ATOM     17  C   UNL d   1      33.220  19.468 -24.256  0.00  0.00     0.029 A 
ATOM     18  C   UNL d   1      32.796  18.949 -23.784  0.00  0.00     0.028 A 
ENDBRANCH  13  14
ENDBRANCH  12  13
ENDBRANCH   9  12
ENDBRANCH   1   9
BRANCH   3  19
ATOM     19  O   UNL d   1      29.440  17.505 -25.046  0.00  0.00    -0.327 OA
ATOM     20  C   UNL d   1      28.927  18.149 -25.097  0.00  0.00     0.181 C 
ENDBRANCH   3  19
TORSDOF 5
ENDMDL
MODEL 7
REMARK VINA RESULT:       0.2      2.940      4.581
REMARK  5 active torsions:
REMARK  status: ('A' for Active; 'I' for Inactive)
REMARK    1  A    between atoms: C_2  and  S_1 
REMARK    2  A    between atoms: N_5  and  S_1 
REMARK    3  A    between atoms: O_18  and  C_4 
REMARK    4  A    between atoms: C_13  and  N_5 
REMARK    5  A    between atoms: C_11  and  C_13 
ROOT
ATOM      1  C   UNL d   1      30.914  16.830 -23.950  0.00  0.00     0.128 A 
ATOM      2  C   UNL d   1      31.464  16.459 -23.460  0.00  0.00     0.026 A 
ATOM      3  C   UNL d   1      31.139  17.485 -24.399  0.00  0.00     0.106 A 
ATOM      4  C   UNL d   1      32.240  16.743 -23.418  0.00  0.00     0.059 A 
ATOM      5  C   UNL d   1      31.915  17.768 -24.358  0.00  0.00     0.026 A 
ATOM      6  C   UNL d   1      32.465  17.397 -23.867  0.00  0.00     0.013 A 
ATOM      7 CL   UNL d   1      32.790  16.372 -22.928  0.00  0.00    -0.082 Cl
ATOM      8  C   UNL d   1      33.241  17.681 -23.826  0.00  0.00     0.001 C 
ENDROOT
BRANCH   1   9
ATOM      9  S   UNL d   1      30.139  16.547 -23.991  0.00  0.00     0.287 S 
ATOM     10  O   UNL d   1      30.366  16.011 -24.579  0.00  0.00    -0.198 OA
ATOM     11  O   UNL d   1      29.912  17.082 -23.405  0.00  0.00    -0.198 OA
BRANCH   9  12
ATOM     12  N   UNL d   1      29.363  16.263 -24.033  0.00  0.00    -0.155 NA
BRANCH  12  13
ATOM     13  C   UNL d   1      28.910  16.197 -23.346  0.00  0.00     0.137 C 
BRANCH  13  14
ATOM     14  C   UNL d   1      28.102  16.028 -23.398  0.00  0.00     0.120 A 
ATOM     15  O   UNL d   1      27.497  16.408 -22.981  0.00  0.00    -0.304 OA
ATOM     16  C   UNL d   1      26.783  16.066 -23.200  0.00  0.00     0.123 A 
ATOM     17  C   UNL d   1      26.942  15.473 -23.754  0.00  0.00     0.029 A 
ATOM     18  C   UNL d   1      27.753  15.453 -23.873  0.00  0.00     0.028 A 
ENDBRANCH  13  14
ENDBRANCH  12  13
ENDBRANCH   9  12
ENDBRANCH   1   9
BRANCH   3  19
ATOM     19  O   UNL d   1      30.589  17.859 -24.892  0.00  0.00    -0.327 OA
ATOM     20  C   UNL d   1      30.689  18.651 -25.097  0.00  0.00     0.181 C 
ENDBRANCH   3  19
TORSDOF 5
ENDMDL
