MODEL 1
REMARK VINA RESULT:      57.9      0.000      0.000
REMARK  5 active torsions:
REMARK  status: ('A' for Active; 'I' for Inactive)
REMARK    1  A    between atoms: C_7  and  C_1 
REMARK    2  A    between atoms: C_9  and  C_17 
REMARK       I    between atoms: N_11  and  C_9 
REMARK    3  A    between atoms: S_12  and  C_10 
REMARK    4  A    between atoms: C_13  and  N_11 
REMARK    5  A    between atoms: C_17  and  S_12 
ROOT
ATOM      1  N   UNL d   1     -55.945-101.839 -40.461  0.00  0.00    -0.147 NA
ATOM      2  C   UNL d   1     -55.600-102.430 -39.984  0.00  0.00     0.111 A 
ATOM      3  N   UNL d   1     -55.664-101.719 -41.223  0.00  0.00    -0.141 NA
ATOM      4  C   UNL d   1     -55.043-102.181 -41.513  0.00  0.00     0.133 A 
ATOM      5  C   UNL d   1     -54.991-102.880 -40.275  0.00  0.00     0.024 A 
ATOM      6  C   UNL d   1     -54.711-102.761 -41.029  0.00  0.00     0.029 A 
ENDROOT
BRANCH   4   7
ATOM      7  S   UNL d   1     -54.761-102.059 -42.278  0.00  0.00    -0.061 SA
BRANCH   7   8
ATOM      8  C   UNL d   1     -55.290-101.922 -42.901  0.00  0.00     0.099 C 
BRANCH   8   9
ATOM      9  C   UNL d   1     -55.361-101.173 -43.215  0.00  0.00     0.286 C 
ATOM     10  N   UNL d   1     -55.893-101.025 -43.829  0.00  0.00    -0.208 NA
ATOM     11  O   UNL d   1     -54.897-100.546 -42.921  0.00  0.00    -0.265 OA
BRANCH  10  12
ATOM     12  C   UNL d   1     -55.968-100.267 -44.150  0.00  0.00     0.086 A 
ATOM     13  C   UNL d   1     -55.319 -99.912 -44.516  0.00  0.00     0.031 A 
ATOM     14  C   UNL d   1     -55.390 -99.151 -44.840  0.00  0.00     0.059 A 
ATOM     15 CL   UNL d   1     -54.737 -98.793 -45.209  0.00  0.00    -0.082 Cl
ATOM     16  C   UNL d   1     -56.117 -98.757 -44.790  0.00  0.00     0.011 A 
ATOM     17  C   UNL d   1     -56.762 -99.115 -44.424  0.00  0.00     0.002 A 
ATOM     18  C   UNL d   1     -56.691 -99.870 -44.103  0.00  0.00     0.019 A 
ENDBRANCH  10  12
ENDBRANCH   8   9
ENDBRANCH   7   8
ENDBRANCH   4   7
BRANCH   2  19
ATOM     19  C   UNL d   1     -55.887-102.548 -39.215  0.00  0.00     0.068 A 
ATOM     20  C   UNL d   1     -56.682-102.689 -39.018  0.00  0.00     0.089 A 
ATOM     21  N   UNL d   1     -56.718-102.774 -38.190  0.00  0.00    -0.238 NA
ATOM     22  C   UNL d   1     -57.307-102.735 -39.539  0.00  0.00     0.021 C 
ATOM     23  C   UNL d   1     -55.955-102.686 -37.890  0.00  0.00     0.111 A 
ATOM     24  S   UNL d   1     -55.445-102.547 -38.525  0.00  0.00    -0.065 SA
ATOM     25  C   UNL d   1     -55.745-102.731 -37.089  0.00  0.00     0.028 C 
ENDBRANCH   2  19
TORSDOF 5
ENDMDL
