MODEL 1
REMARK VINA RESULT:      68.3      0.000      0.000
REMARK  4 active torsions:
REMARK  status: ('A' for Active; 'I' for Inactive)
REMARK    1  A    between atoms: C_2  and  C_1 
REMARK    2  A    between atoms: N_13  and  C_6 
REMARK    3  A    between atoms: N_12  and  N_13 
REMARK    4  A    between atoms: C_15  and  N_12 
ROOT
ATOM      1  C   UNL d   1     -54.860-100.156 -40.507  0.00  0.00     0.095 A 
ATOM      2  N   UNL d   1     -54.711-100.071 -41.327  0.00  0.00    -0.219 NA
ATOM      3  C   UNL d   1     -54.828 -99.284 -41.508  0.00  0.00     0.215 A 
ATOM      4  S   UNL d   1     -55.045 -98.863 -40.837  0.00  0.00    -0.045 SA
ATOM      5  C   UNL d   1     -55.062 -99.408 -40.227  0.00  0.00     0.058 A 
ENDROOT
BRANCH   1   6
ATOM      6  C   UNL d   1     -54.826-100.832 -40.017  0.00  0.00     0.082 A 
ATOM      7  C   UNL d   1     -54.803-101.572 -40.361  0.00  0.00     0.302 A 
ATOM      8  O   UNL d   1     -54.769-102.277 -39.883  0.00  0.00    -0.273 OA
ATOM      9  O   UNL d   1     -54.814-101.622 -41.222  0.00  0.00    -0.259 OA
ATOM     10  C   UNL d   1     -54.760-102.187 -39.036  0.00  0.00     0.103 A 
ATOM     11  C   UNL d   1     -54.783-101.447 -38.692  0.00  0.00     0.023 A 
ATOM     12  C   UNL d   1     -54.726-102.878 -38.586  0.00  0.00     0.025 A 
ATOM     13  C   UNL d   1     -54.816-100.770 -39.182  0.00  0.00     0.009 A 
ATOM     14  C   UNL d   1     -54.773-101.371 -37.886  0.00  0.00     0.002 A 
ATOM     15  C   UNL d   1     -54.740-102.049 -37.395  0.00  0.00     0.000 A 
ATOM     16  C   UNL d   1     -54.717-102.788 -37.738  0.00  0.00     0.002 A 
ENDBRANCH   1   6
BRANCH   3  17
ATOM     17  N   UNL d   1     -54.730 -98.972 -42.297  0.00  0.00    -0.122 NA
BRANCH  17  18
ATOM     18  N   UNL d   1     -55.420 -98.801 -42.729  0.00  0.00    -0.146 NA
BRANCH  18  19
ATOM     19  C   UNL d   1     -55.442 -98.853 -43.549  0.00  0.00     0.103 A 
ATOM     20  C   UNL d   1     -54.725 -98.930 -43.972  0.00  0.00     0.021 A 
ATOM     21  C   UNL d   1     -54.748 -98.983 -44.810  0.00  0.00     0.002 A 
ATOM     22  C   UNL d   1     -55.486 -98.957 -45.177  0.00  0.00     0.000 A 
ATOM     23  C   UNL d   1     -56.173 -98.882 -44.754  0.00  0.00     0.002 A 
ATOM     24  C   UNL d   1     -56.151 -98.830 -43.940  0.00  0.00     0.021 A 
ENDBRANCH  18  19
ENDBRANCH  17  18
ENDBRANCH   3  17
TORSDOF 4
ENDMDL
