MODEL 1
REMARK VINA RESULT:      -4.5      0.000      0.000
REMARK  1 active torsions:
REMARK  status: ('A' for Active; 'I' for Inactive)
REMARK    1  A    between atoms: C_4  and  N_1 
ROOT
ATOM      1  N   UNL d   1     -42.250-123.379 -49.549  0.00  0.00    -0.240 N 
ATOM      2  C   UNL d   1     -43.019-123.664 -49.437  0.00  0.00     0.267 A 
ATOM      3  C   UNL d   1     -41.893-123.327 -48.800  0.00  0.00     0.267 A 
ATOM      4  C   UNL d   1     -42.440-123.578 -48.239  0.00  0.00     0.066 A 
ATOM      5  C   UNL d   1     -43.137-123.787 -48.628  0.00  0.00     0.066 A 
ATOM      6  O   UNL d   1     -43.576-123.802 -50.037  0.00  0.00    -0.267 OA
ATOM      7  O   UNL d   1     -41.123-123.067 -48.658  0.00  0.00    -0.267 OA
ENDROOT
BRANCH   1   8
ATOM      8  C   UNL d   1     -41.901-123.183 -50.270  0.00  0.00     0.097 A 
ATOM      9  C   UNL d   1     -41.986-122.420 -50.571  0.00  0.00     0.156 A 
ATOM     10  F   UNL d   1     -42.419-121.856 -50.150  0.00  0.00    -0.203 F 
ATOM     11  C   UNL d   1     -41.639-122.219 -51.292  0.00  0.00     0.031 A 
ATOM     12  C   UNL d   1     -41.207-122.790 -51.706  0.00  0.00     0.002 A 
ATOM     13  C   UNL d   1     -41.124-123.553 -51.401  0.00  0.00     0.002 A 
ATOM     14  C   UNL d   1     -41.474-123.746 -50.679  0.00  0.00     0.020 A 
ENDBRANCH   1   8
TORSDOF 1
ENDMDL
MODEL 2
REMARK VINA RESULT:      -4.5      0.063      1.251
REMARK  1 active torsions:
REMARK  status: ('A' for Active; 'I' for Inactive)
REMARK    1  A    between atoms: C_4  and  N_1 
ROOT
ATOM      1  N   UNL d   1     -42.247-123.382 -49.561  0.00  0.00    -0.240 N 
ATOM      2  C   UNL d   1     -41.898-123.305 -48.814  0.00  0.00     0.267 A 
ATOM      3  C   UNL d   1     -43.023-123.653 -49.447  0.00  0.00     0.267 A 
ATOM      4  C   UNL d   1     -43.146-123.741 -48.638  0.00  0.00     0.066 A 
ATOM      5  C   UNL d   1     -42.454-123.527 -48.243  0.00  0.00     0.066 A 
ATOM      6  O   UNL d   1     -41.123-123.049 -48.666  0.00  0.00    -0.267 OA
ATOM      7  O   UNL d   1     -43.567-123.805 -50.048  0.00  0.00    -0.267 OA
ENDROOT
BRANCH   1   8
ATOM      8  C   UNL d   1     -41.889-123.219 -50.287  0.00  0.00     0.097 A 
ATOM      9  C   UNL d   1     -41.946-122.463 -50.610  0.00  0.00     0.156 A 
ATOM     10  F   UNL d   1     -42.361-121.872 -50.207  0.00  0.00    -0.203 F 
ATOM     11  C   UNL d   1     -41.590-122.296 -51.335  0.00  0.00     0.031 A 
ATOM     12  C   UNL d   1     -41.178-122.893 -51.731  0.00  0.00     0.002 A 
ATOM     13  C   UNL d   1     -41.123-123.650 -51.404  0.00  0.00     0.002 A 
ATOM     14  C   UNL d   1     -41.482-123.809 -50.678  0.00  0.00     0.020 A 
ENDBRANCH   1   8
TORSDOF 1
ENDMDL
MODEL 3
REMARK VINA RESULT:      -4.3      1.309      2.628
REMARK  1 active torsions:
REMARK  status: ('A' for Active; 'I' for Inactive)
REMARK    1  A    between atoms: C_4  and  N_1 
ROOT
ATOM      1  N   UNL d   1     -41.532-122.531 -51.045  0.00  0.00    -0.240 N 
ATOM      2  C   UNL d   1     -41.577-123.015 -51.716  0.00  0.00     0.267 A 
ATOM      3  C   UNL d   1     -41.251-121.789 -51.292  0.00  0.00     0.267 A 
ATOM      4  C   UNL d   1     -41.126-121.822 -52.104  0.00  0.00     0.066 A 
ATOM      5  C   UNL d   1     -41.326-122.576 -52.371  0.00  0.00     0.066 A 
ATOM      6  O   UNL d   1     -41.831-123.805 -51.727  0.00  0.00    -0.267 OA
ATOM      7  O   UNL d   1     -41.124-121.142 -50.798  0.00  0.00    -0.267 OA
ENDROOT
BRANCH   1   8
ATOM      8  C   UNL d   1     -41.730-122.746 -50.274  0.00  0.00     0.097 A 
ATOM      9  C   UNL d   1     -42.480-122.570 -49.980  0.00  0.00     0.156 A 
ATOM     10  F   UNL d   1     -43.030-122.179 -50.459  0.00  0.00    -0.203 F 
ATOM     11  C   UNL d   1     -42.682-122.782 -49.209  0.00  0.00     0.031 A 
ATOM     12  C   UNL d   1     -42.126-123.172 -48.738  0.00  0.00     0.002 A 
ATOM     13  C   UNL d   1     -41.375-123.347 -49.036  0.00  0.00     0.002 A 
ATOM     14  C   UNL d   1     -41.181-123.131 -49.808  0.00  0.00     0.020 A 
ENDBRANCH   1   8
TORSDOF 1
ENDMDL
MODEL 4
REMARK VINA RESULT:      -3.5      3.293      4.611
REMARK  1 active torsions:
REMARK  status: ('A' for Active; 'I' for Inactive)
REMARK    1  A    between atoms: C_4  and  N_1 
ROOT
ATOM      1  N   UNL d   1     -42.028-122.482 -54.270  0.00  0.00    -0.240 N 
ATOM      2  C   UNL d   1     -41.741-122.709 -55.013  0.00  0.00     0.267 A 
ATOM      3  C   UNL d   1     -42.643-121.938 -54.396  0.00  0.00     0.267 A 
ATOM      4  C   UNL d   1     -42.729-121.836 -55.208  0.00  0.00     0.066 A 
ATOM      5  C   UNL d   1     -42.174-122.310 -55.593  0.00  0.00     0.066 A 
ATOM      6  O   UNL d   1     -41.123-123.247 -55.148  0.00  0.00    -0.267 OA
ATOM      7  O   UNL d   1     -43.083-121.572 -53.803  0.00  0.00    -0.267 OA
ENDROOT
BRANCH   1   8
ATOM      8  C   UNL d   1     -41.753-122.746 -53.538  0.00  0.00     0.097 A 
ATOM      9  C   UNL d   1     -41.399-122.214 -53.018  0.00  0.00     0.156 A 
ATOM     10  F   UNL d   1     -41.319-121.419 -53.231  0.00  0.00    -0.203 F 
ATOM     11  C   UNL d   1     -41.123-122.474 -52.285  0.00  0.00     0.031 A 
ATOM     12  C   UNL d   1     -41.207-123.270 -52.081  0.00  0.00     0.002 A 
ATOM     13  C   UNL d   1     -41.563-123.801 -52.604  0.00  0.00     0.002 A 
ATOM     14  C   UNL d   1     -41.836-123.533 -53.335  0.00  0.00     0.020 A 
ENDBRANCH   1   8
TORSDOF 1
ENDMDL
MODEL 5
REMARK VINA RESULT:      -3.0      1.116      2.595
REMARK  1 active torsions:
REMARK  status: ('A' for Active; 'I' for Inactive)
REMARK    1  A    between atoms: C_4  and  N_1 
ROOT
ATOM      1  N   UNL d   1     -42.054-122.735 -50.288  0.00  0.00    -0.240 N 
ATOM      2  C   UNL d   1     -42.278-122.020 -50.640  0.00  0.00     0.267 A 
ATOM      3  C   UNL d   1     -41.494-123.093 -50.787  0.00  0.00     0.267 A 
ATOM      4  C   UNL d   1     -41.379-122.599 -51.435  0.00  0.00     0.066 A 
ATOM      5  C   UNL d   1     -41.861-121.935 -51.349  0.00  0.00     0.066 A 
ATOM      6  O   UNL d   1     -42.828-121.480 -50.331  0.00  0.00    -0.267 OA
ATOM      7  O   UNL d   1     -41.125-123.816 -50.645  0.00  0.00    -0.267 OA
ENDROOT
BRANCH   1   8
ATOM      8  C   UNL d   1     -42.335-123.038 -49.574  0.00  0.00     0.097 A 
ATOM      9  C   UNL d   1     -41.940-122.863 -48.873  0.00  0.00     0.156 A 
ATOM     10  F   UNL d   1     -41.264-122.386 -48.886  0.00  0.00    -0.203 F 
ATOM     11  C   UNL d   1     -42.217-123.164 -48.156  0.00  0.00     0.031 A 
ATOM     12  C   UNL d   1     -42.892-123.640 -48.152  0.00  0.00     0.002 A 
ATOM     13  C   UNL d   1     -43.286-123.813 -48.857  0.00  0.00     0.002 A 
ATOM     14  C   UNL d   1     -43.002-123.508 -49.569  0.00  0.00     0.020 A 
ENDBRANCH   1   8
TORSDOF 1
ENDMDL
MODEL 6
REMARK VINA RESULT:      -1.9      2.103      3.501
REMARK  1 active torsions:
REMARK  status: ('A' for Active; 'I' for Inactive)
REMARK    1  A    between atoms: C_4  and  N_1 
ROOT
ATOM      1  N   UNL d   1     -41.585-122.419 -52.643  0.00  0.00    -0.240 N 
ATOM      2  C   UNL d   1     -41.356-121.663 -52.895  0.00  0.00     0.267 A 
ATOM      3  C   UNL d   1     -41.771-122.861 -53.322  0.00  0.00     0.267 A 
ATOM      4  C   UNL d   1     -41.658-122.378 -53.978  0.00  0.00     0.066 A 
ATOM      5  C   UNL d   1     -41.401-121.638 -53.720  0.00  0.00     0.066 A 
ATOM      6  O   UNL d   1     -41.123-121.039 -52.399  0.00  0.00    -0.267 OA
ATOM      7  O   UNL d   1     -42.025-123.645 -53.323  0.00  0.00    -0.267 OA
ENDROOT
BRANCH   1   8
ATOM      8  C   UNL d   1     -41.621-122.685 -51.863  0.00  0.00     0.097 A 
ATOM      9  C   UNL d   1     -42.158-122.344 -51.340  0.00  0.00     0.156 A 
ATOM     10  F   UNL d   1     -42.659-121.738 -51.597  0.00  0.00    -0.203 F 
ATOM     11  C   UNL d   1     -42.198-122.607 -50.559  0.00  0.00     0.031 A 
ATOM     12  C   UNL d   1     -41.694-123.213 -50.310  0.00  0.00     0.002 A 
ATOM     13  C   UNL d   1     -41.156-123.552 -50.837  0.00  0.00     0.002 A 
ATOM     14  C   UNL d   1     -41.123-123.283 -51.617  0.00  0.00     0.020 A 
ENDBRANCH   1   8
TORSDOF 1
ENDMDL
