MODEL 1
REMARK VINA RESULT:      -9.0      0.000      0.000
REMARK  3 active torsions:
REMARK  status: ('A' for Active; 'I' for Inactive)
REMARK    1  A    between atoms: S_3  and  N_1 
REMARK    2  A    between atoms: C_7  and  C_4 
REMARK    3  A    between atoms: C_11  and  C_5 
ROOT
ATOM      1  N   UNL d   1      53.329  32.522  53.527  0.00  0.00    -0.155 N 
ATOM      2  N   UNL d   1      52.624  32.643  53.075  0.00  0.00    -0.156 NA
ATOM      3  C   UNL d   1      53.410  33.210  53.984  0.00  0.00     0.102 A 
ATOM      4  C   UNL d   1      52.308  33.374  53.263  0.00  0.00     0.104 A 
ATOM      5  C   UNL d   1      52.811  33.720  53.835  0.00  0.00     0.041 A 
ENDROOT
BRANCH   4   6
ATOM      6  C   UNL d   1      51.636  33.686  52.946  0.00  0.00     0.019 A 
ATOM      7  C   UNL d   1      50.920  33.632  53.364  0.00  0.00     0.002 A 
ATOM      8  C   UNL d   1      50.222  33.943  53.059  0.00  0.00     0.007 A 
ATOM      9  C   UNL d   1      50.221  34.324  52.314  0.00  0.00     0.035 A 
ATOM     10  C   UNL d   1      50.940  34.378  51.895  0.00  0.00     0.007 A 
ATOM     11 BR   UNL d   1      49.528  34.634  52.010  0.00  0.00    -0.049 Br
ATOM     12  C   UNL d   1      51.640  34.065  52.202  0.00  0.00     0.002 A 
ENDBRANCH   4   6
BRANCH   1  13
ATOM     13  S   UNL d   1      53.809  31.877  53.510  0.00  0.00     0.266 S 
ATOM     14  O   UNL d   1      54.303  31.199  53.500  0.00  0.00    -0.203 OA
ATOM     15  O   UNL d   1      54.314  32.262  53.013  0.00  0.00    -0.203 OA
ATOM     16  C   UNL d   1      53.283  31.479  54.026  0.00  0.00     0.165 C 
ENDBRANCH   1  13
BRANCH   3  17
ATOM     17  C   UNL d   1      54.026  33.340  54.516  0.00  0.00     0.048 A 
ATOM     18  S   UNL d   1      54.053  33.128  55.309  0.00  0.00    -0.085 SA
ATOM     19  C   UNL d   1      54.759  33.359  55.626  0.00  0.00     0.035 A 
ATOM     20  C   UNL d   1      55.192  33.722  55.035  0.00  0.00     0.007 A 
ATOM     21  C   UNL d   1      54.751  33.713  54.355  0.00  0.00     0.009 A 
ENDBRANCH   3  17
TORSDOF 3
ENDMDL
MODEL 2
REMARK VINA RESULT:      -8.6      2.453      3.246
REMARK  3 active torsions:
REMARK  status: ('A' for Active; 'I' for Inactive)
REMARK    1  A    between atoms: S_3  and  N_1 
REMARK    2  A    between atoms: C_7  and  C_4 
REMARK    3  A    between atoms: C_11  and  C_5 
ROOT
ATOM      1  N   UNL d   1      54.257  33.170  54.566  0.00  0.00    -0.155 N 
ATOM      2  N   UNL d   1      54.245  32.342  54.396  0.00  0.00    -0.156 NA
ATOM      3  C   UNL d   1      53.546  33.462  54.251  0.00  0.00     0.102 A 
ATOM      4  C   UNL d   1      53.554  32.160  53.998  0.00  0.00     0.104 A 
ATOM      5  C   UNL d   1      53.123  32.871  53.913  0.00  0.00     0.041 A 
ENDROOT
BRANCH   4   6
ATOM      6  C   UNL d   1      53.344  31.425  53.743  0.00  0.00     0.019 A 
ATOM      7  C   UNL d   1      53.502  30.763  54.219  0.00  0.00     0.002 A 
ATOM      8  C   UNL d   1      53.297  30.003  53.978  0.00  0.00     0.007 A 
ATOM      9  C   UNL d   1      52.920  29.883  53.240  0.00  0.00     0.035 A 
ATOM     10  C   UNL d   1      52.761  30.548  52.763  0.00  0.00     0.007 A 
ATOM     11 BR   UNL d   1      52.715  29.128  53.000  0.00  0.00    -0.049 Br
ATOM     12  C   UNL d   1      52.968  31.309  53.006  0.00  0.00     0.002 A 
ENDBRANCH   4   6
BRANCH   1  13
ATOM     13  S   UNL d   1      54.835  33.577  54.949  0.00  0.00     0.266 S 
ATOM     14  O   UNL d   1      55.444  34.003  55.338  0.00  0.00    -0.203 OA
ATOM     15  O   UNL d   1      54.430  33.506  55.642  0.00  0.00    -0.203 OA
ATOM     16  C   UNL d   1      55.254  33.650  54.227  0.00  0.00     0.165 C 
ENDBRANCH   1  13
BRANCH   3  17
ATOM     17  C   UNL d   1      53.317  34.252  54.288  0.00  0.00     0.048 A 
ATOM     18  S   UNL d   1      52.953  34.637  54.916  0.00  0.00    -0.085 SA
ATOM     19  C   UNL d   1      52.824  35.410  54.720  0.00  0.00     0.035 A 
ATOM     20  C   UNL d   1      53.106  35.527  53.961  0.00  0.00     0.007 A 
ATOM     21  C   UNL d   1      53.408  34.825  53.692  0.00  0.00     0.009 A 
ENDBRANCH   3  17
TORSDOF 3
ENDMDL
MODEL 3
REMARK VINA RESULT:      -8.4      0.893      1.871
REMARK  3 active torsions:
REMARK  status: ('A' for Active; 'I' for Inactive)
REMARK    1  A    between atoms: S_3  and  N_1 
REMARK    2  A    between atoms: C_7  and  C_4 
REMARK    3  A    between atoms: C_11  and  C_5 
ROOT
ATOM      1  N   UNL d   1      53.408  32.666  53.596  0.00  0.00    -0.155 N 
ATOM      2  N   UNL d   1      52.891  33.315  53.433  0.00  0.00    -0.156 NA
ATOM      3  C   UNL d   1      52.975  31.991  53.381  0.00  0.00     0.102 A 
ATOM      4  C   UNL d   1      52.186  33.028  53.134  0.00  0.00     0.104 A 
ATOM      5  C   UNL d   1      52.251  32.195  53.106  0.00  0.00     0.041 A 
ENDROOT
BRANCH   4   6
ATOM      6  C   UNL d   1      51.556  33.479  52.913  0.00  0.00     0.019 A 
ATOM      7  C   UNL d   1      50.879  33.504  53.394  0.00  0.00     0.002 A 
ATOM      8  C   UNL d   1      50.224  33.958  53.187  0.00  0.00     0.007 A 
ATOM      9  C   UNL d   1      50.229  34.408  52.481  0.00  0.00     0.035 A 
ATOM     10  C   UNL d   1      50.909  34.382  51.999  0.00  0.00     0.007 A 
ATOM     11 BR   UNL d   1      49.579  34.860  52.275  0.00  0.00    -0.049 Br
ATOM     12  C   UNL d   1      51.565  33.927  52.207  0.00  0.00     0.002 A 
ENDBRANCH   4   6
BRANCH   1  13
ATOM     13  S   UNL d   1      54.153  32.705  53.894  0.00  0.00     0.266 S 
ATOM     14  O   UNL d   1      54.926  32.745  54.217  0.00  0.00    -0.203 OA
ATOM     15  O   UNL d   1      54.458  32.667  53.149  0.00  0.00    -0.203 OA
ATOM     16  C   UNL d   1      53.835  32.744  54.668  0.00  0.00     0.165 C 
ENDBRANCH   1  13
BRANCH   3  17
ATOM     17  C   UNL d   1      53.262  31.221  53.445  0.00  0.00     0.048 A 
ATOM     18  S   UNL d   1      53.230  30.731  54.103  0.00  0.00    -0.085 SA
ATOM     19  C   UNL d   1      53.575  30.022  53.928  0.00  0.00     0.035 A 
ATOM     20  C   UNL d   1      53.833  30.053  53.153  0.00  0.00     0.007 A 
ATOM     21  C   UNL d   1      53.645  30.781  52.852  0.00  0.00     0.009 A 
ENDBRANCH   3  17
TORSDOF 3
ENDMDL
MODEL 4
REMARK VINA RESULT:      -8.0      2.394      3.429
REMARK  3 active torsions:
REMARK  status: ('A' for Active; 'I' for Inactive)
REMARK    1  A    between atoms: S_3  and  N_1 
REMARK    2  A    between atoms: C_7  and  C_4 
REMARK    3  A    between atoms: C_11  and  C_5 
ROOT
ATOM      1  N   UNL d   1      51.993  33.499  53.041  0.00  0.00    -0.155 N 
ATOM      2  N   UNL d   1      52.026  32.660  52.937  0.00  0.00    -0.156 NA
ATOM      3  C   UNL d   1      52.636  33.677  53.535  0.00  0.00     0.102 A 
ATOM      4  C   UNL d   1      52.664  32.363  53.355  0.00  0.00     0.104 A 
ATOM      5  C   UNL d   1      53.039  33.012  53.727  0.00  0.00     0.041 A 
ENDROOT
BRANCH   4   6
ATOM      6  C   UNL d   1      52.875  31.587  53.390  0.00  0.00     0.019 A 
ATOM      7  C   UNL d   1      53.460  31.343  53.928  0.00  0.00     0.002 A 
ATOM      8  C   UNL d   1      53.692  30.556  53.981  0.00  0.00     0.007 A 
ATOM      9  C   UNL d   1      53.338  29.979  53.488  0.00  0.00     0.035 A 
ATOM     10  C   UNL d   1      52.752  30.223  52.948  0.00  0.00     0.007 A 
ATOM     11 BR   UNL d   1      53.568  29.195  53.540  0.00  0.00    -0.049 Br
ATOM     12  C   UNL d   1      52.521  31.014  52.896  0.00  0.00     0.002 A 
ENDBRANCH   4   6
BRANCH   1  13
ATOM     13  S   UNL d   1      51.454  34.005  52.726  0.00  0.00     0.266 S 
ATOM     14  O   UNL d   1      50.883  34.530  52.406  0.00  0.00    -0.203 OA
ATOM     15  O   UNL d   1      51.965  34.185  52.130  0.00  0.00    -0.203 OA
ATOM     16  C   UNL d   1      50.923  33.816  53.346  0.00  0.00     0.165 C 
ENDBRANCH   1  13
BRANCH   3  17
ATOM     17  C   UNL d   1      52.825  34.439  53.789  0.00  0.00     0.048 A 
ATOM     18  S   UNL d   1      52.604  34.798  54.493  0.00  0.00    -0.085 SA
ATOM     19  C   UNL d   1      52.906  35.546  54.521  0.00  0.00     0.035 A 
ATOM     20  C   UNL d   1      53.326  35.672  53.830  0.00  0.00     0.007 A 
ATOM     21  C   UNL d   1      53.280  35.001  53.379  0.00  0.00     0.009 A 
ENDBRANCH   3  17
TORSDOF 3
ENDMDL
