MODEL 1
REMARK VINA RESULT:      49.8      0.000      0.000
REMARK  10 active torsions:
REMARK  status: ('A' for Active; 'I' for Inactive)
REMARK    1  A    between atoms: N_2  and  S_1 
REMARK    2  A    between atoms: C_12  and  S_1 
REMARK    3  A    between atoms: C_4  and  N_2 
REMARK    4  A    between atoms: O_22  and  C_6 
REMARK    5  A    between atoms: C_7  and  N_15 
REMARK    6  A    between atoms: N_8  and  C_7 
REMARK       I    between atoms: C_10  and  N_8 
REMARK    7  A    between atoms: O_23  and  C_9 
REMARK    8  A    between atoms: C_20  and  C_10 
REMARK    9  A    between atoms: N_15  and  C_21 
REMARK   10  A    between atoms: C_26  and  C_20 
ROOT
ATOM      1  C   UNL d   1     -55.516-100.503 -43.394  0.00  0.00     0.105 A 
ATOM      2  C   UNL d   1     -55.073-101.068 -43.767  0.00  0.00     0.015 A 
ATOM      3  C   UNL d   1     -55.705-100.588 -42.605  0.00  0.00     0.015 A 
ATOM      4  C   UNL d   1     -55.001-101.815 -42.560  0.00  0.00     0.084 A 
ATOM      5  C   UNL d   1     -54.803-101.732 -43.376  0.00  0.00     0.020 A 
ATOM      6  C   UNL d   1     -55.446-101.242 -42.197  0.00  0.00     0.020 A 
ENDROOT
BRANCH   1   7
ATOM      7  S   UNL d   1     -55.791 -99.817 -43.810  0.00  0.00     0.287 S 
ATOM      8  O   UNL d   1     -55.011 -99.685 -44.082  0.00  0.00    -0.198 OA
ATOM      9  O   UNL d   1     -56.561 -99.955 -43.535  0.00  0.00    -0.198 OA
BRANCH   7  10
ATOM     10  N   UNL d   1     -56.047 -99.138 -44.225  0.00  0.00    -0.139 NA
BRANCH  10  11
ATOM     11  C   UNL d   1     -56.857 -99.028 -44.410  0.00  0.00     0.182 A 
ATOM     12  N   UNL d   1     -57.393 -98.981 -43.826  0.00  0.00    -0.185 NA
ATOM     13  C   UNL d   1     -58.202 -98.872 -43.981  0.00  0.00     0.274 A 
ATOM     14  N   UNL d   1     -58.449 -98.812 -44.755  0.00  0.00    -0.181 NA
ATOM     15  C   UNL d   1     -57.928 -98.856 -45.369  0.00  0.00     0.185 A 
ATOM     16  C   UNL d   1     -57.079 -98.971 -45.189  0.00  0.00     0.084 A 
BRANCH  13  17
ATOM     17  O   UNL d   1     -58.766 -98.822 -43.370  0.00  0.00    -0.297 OA
ATOM     18  C   UNL d   1     -59.576 -98.757 -43.536  0.00  0.00     0.185 C 
ENDBRANCH  13  17
BRANCH  15  19
ATOM     19  O   UNL d   1     -58.210 -98.792 -46.148  0.00  0.00    -0.312 OA
ATOM     20  C   UNL d   1     -59.014 -98.917 -46.297  0.00  0.00     0.183 C 
ENDBRANCH  15  19
ENDBRANCH  10  11
ENDBRANCH   7  10
ENDBRANCH   1   7
BRANCH   4  21
ATOM     21  N   UNL d   1     -54.745-102.480 -42.122  0.00  0.00    -0.217 NA
BRANCH  21  22
ATOM     22  C   UNL d   1     -55.169-102.691 -41.448  0.00  0.00     0.223 C 
ATOM     23  S   UNL d   1     -55.991-102.797 -41.472  0.00  0.00    -0.037 SA
BRANCH  22  24
ATOM     24  N   UNL d   1     -54.767-102.799 -40.736  0.00  0.00    -0.179 NA
ATOM     25  C   UNL d   1     -55.150-102.671 -40.009  0.00  0.00     0.281 C 
ATOM     26  O   UNL d   1     -55.943-102.433 -40.002  0.00  0.00    -0.265 OA
BRANCH  25  27
ATOM     27  C   UNL d   1     -54.744-102.780 -39.299  0.00  0.00     0.063 C 
BRANCH  27  28
ATOM     28  C   UNL d   1     -55.150-102.825 -38.581  0.00  0.00     0.005 C 
ATOM     29  C   UNL d   1     -55.994-102.872 -38.549  0.00  0.00     0.000 C 
ATOM     30  C   UNL d   1     -54.720-102.826 -37.879  0.00  0.00     0.000 C 
ENDBRANCH  27  28
ENDBRANCH  25  27
ENDBRANCH  22  24
ENDBRANCH  21  22
ENDBRANCH   4  21
TORSDOF 10
ENDMDL
