MODEL 1
REMARK VINA RESULT:      99.7      0.000      0.000
REMARK  7 active torsions:
REMARK  status: ('A' for Active; 'I' for Inactive)
REMARK    1  A    between atoms: C_4  and  C_1 
REMARK    2  A    between atoms: N_5  and  C_2 
REMARK    3  A    between atoms: C_15  and  C_4 
REMARK    4  A    between atoms: C_9  and  C_13 
REMARK    5  A    between atoms: O_21  and  C_9 
REMARK    6  A    between atoms: C_25  and  C_20 
REMARK    7  A    between atoms: C_26  and  O_21 
ROOT
ATOM      1  C   UNL d   1     -50.918  26.449  34.152  0.00  0.00     0.074 A 
ATOM      2  C   UNL d   1     -50.573  26.816  34.813  0.00  0.00     0.070 A 
ATOM      3  C   UNL d   1     -49.926  27.316  34.716  0.00  0.00     0.034 A 
ATOM      4  C   UNL d   1     -50.610  26.586  33.399  0.00  0.00     0.103 A 
ATOM      5  N   UNL d   1     -49.957  27.092  33.307  0.00  0.00    -0.244 NA
ATOM      6  C   UNL d   1     -49.618  27.454  33.963  0.00  0.00     0.083 A 
ATOM      7  C   UNL d   1     -49.587  27.679  35.374  0.00  0.00     0.003 A 
ATOM      8  C   UNL d   1     -48.971  27.954  33.868  0.00  0.00     0.019 A 
ATOM      9  C   UNL d   1     -48.937  28.182  35.279  0.00  0.00     0.000 A 
ATOM     10  C   UNL d   1     -48.629  28.320  34.526  0.00  0.00     0.002 A 
ENDROOT
BRANCH   2  11
ATOM     11  N   UNL d   1     -50.885  26.677  35.577  0.00  0.00    -0.304 N 
ATOM     12  C   UNL d   1     -50.511  26.149  36.086  0.00  0.00     0.080 A 
ATOM     13  C   UNL d   1     -50.819  26.011  36.839  0.00  0.00     0.024 A 
ATOM     14  C   UNL d   1     -51.501  26.402  37.083  0.00  0.00     0.067 A 
ATOM     15  C   UNL d   1     -51.879  26.933  36.574  0.00  0.00     0.024 A 
ATOM     16  C   UNL d   1     -51.572  27.070  35.821  0.00  0.00     0.080 A 
BRANCH  14  17
ATOM     17  C   UNL d   1     -51.803  26.259  37.837  0.00  0.00     0.300 C 
ATOM     18  O   UNL d   1     -51.536  26.695  38.487  0.00  0.00    -0.259 OA
BRANCH  17  19
ATOM     19  O   UNL d   1     -52.375  25.675  37.941  0.00  0.00    -0.271 OA
BRANCH  19  20
ATOM     20  C   UNL d   1     -52.676  25.506  38.690  0.00  0.00     0.126 C 
ATOM     21  C   UNL d   1     -53.060  24.790  38.844  0.00  0.00     0.029 C 
ENDBRANCH  19  20
ENDBRANCH  17  19
ENDBRANCH  14  17
ENDBRANCH   2  11
BRANCH   1  22
ATOM     22  C   UNL d   1     -51.568  25.946  34.247  0.00  0.00     0.198 C 
ATOM     23  O   UNL d   1     -52.238  26.201  34.654  0.00  0.00    -0.286 OA
BRANCH  22  24
ATOM     24  C   UNL d   1     -51.548  25.185  33.933  0.00  0.00     0.039 A 
ATOM     25  C   UNL d   1     -50.844  24.888  33.622  0.00  0.00     0.003 A 
ATOM     26  C   UNL d   1     -50.826  24.127  33.308  0.00  0.00     0.000 A 
ATOM     27  C   UNL d   1     -51.509  23.663  33.306  0.00  0.00     0.000 A 
ATOM     28  C   UNL d   1     -52.215  23.956  33.617  0.00  0.00     0.000 A 
ATOM     29  C   UNL d   1     -52.231  24.725  33.933  0.00  0.00     0.003 A 
ENDBRANCH  22  24
ENDBRANCH   1  22
BRANCH   9  30
ATOM     30  C   UNL d   1     -48.595  28.548  35.943  0.00  0.00     0.000 C 
ATOM     31  C   UNL d   1     -47.818  28.823  35.900  0.00  0.00     0.000 C 
ENDBRANCH   9  30
TORSDOF 7
ENDMDL
