MODEL 1
REMARK VINA RESULT:      -8.6      0.000      0.000
REMARK  4 active torsions:
REMARK  status: ('A' for Active; 'I' for Inactive)
REMARK    1  A    between atoms: C_5  and  N_1 
REMARK    2  A    between atoms: C_7  and  C_3 
REMARK    3  A    between atoms: C_8  and  C_4 
REMARK    4  A    between atoms: N_10  and  C_5 
ROOT
ATOM      1  N   UNL d   1      53.259  32.678  53.682  0.00  0.00    -0.203 N 
ATOM      2  N   UNL d   1      52.781  33.313  53.450  0.00  0.00    -0.163 NA
ATOM      3  C   UNL d   1      52.076  33.040  53.170  0.00  0.00     0.103 A 
ATOM      4  C   UNL d   1      52.838  31.972  53.543  0.00  0.00     0.087 A 
ATOM      5  C   UNL d   1      52.104  32.187  53.226  0.00  0.00     0.040 A 
ENDROOT
BRANCH   3   6
ATOM      6  C   UNL d   1      51.454  33.516  52.886  0.00  0.00     0.019 A 
ATOM      7  C   UNL d   1      50.754  33.596  53.313  0.00  0.00     0.002 A 
ATOM      8  C   UNL d   1      50.142  34.079  53.011  0.00  0.00     0.000 A 
ATOM      9  C   UNL d   1      50.240  34.467  52.297  0.00  0.00     0.000 A 
ATOM     10  C   UNL d   1      50.948  34.375  51.884  0.00  0.00     0.000 A 
ATOM     11  C   UNL d   1      49.698  34.849  52.104  0.00  0.00     0.000 C 
ATOM     12  C   UNL d   1      51.544  33.909  52.171  0.00  0.00     0.002 A 
ENDBRANCH   3   6
BRANCH   1  13
ATOM     13  C   UNL d   1      54.037  32.728  54.004  0.00  0.00     0.222 C 
ATOM     14  S   UNL d   1      54.701  32.683  53.480  0.00  0.00    -0.037 SA
BRANCH  13  15
ATOM     15  N   UNL d   1      54.167  32.822  54.835  0.00  0.00    -0.214 NA
ATOM     16  C   UNL d   1      54.774  33.322  55.107  0.00  0.00     0.122 C 
ENDBRANCH  13  15
ENDBRANCH   1  13
BRANCH   4  17
ATOM     17  C   UNL d   1      53.075  31.192  53.683  0.00  0.00     0.018 A 
ATOM     18  C   UNL d   1      52.979  30.846  54.420  0.00  0.00     0.002 A 
ATOM     19  C   UNL d   1      53.215  30.069  54.557  0.00  0.00     0.011 A 
ATOM     20  C   UNL d   1      53.553  29.634  53.947  0.00  0.00     0.058 A 
ATOM     21  C   UNL d   1      53.653  29.961  53.221  0.00  0.00     0.011 A 
ATOM     22 CL   UNL d   1      53.788  28.844  54.108  0.00  0.00    -0.082 Cl
ATOM     23  C   UNL d   1      53.416  30.741  53.082  0.00  0.00     0.002 A 
ENDBRANCH   4  17
TORSDOF 4
ENDMDL
MODEL 2
REMARK VINA RESULT:      -8.6      1.394      2.458
REMARK  4 active torsions:
REMARK  status: ('A' for Active; 'I' for Inactive)
REMARK    1  A    between atoms: C_5  and  N_1 
REMARK    2  A    between atoms: C_7  and  C_3 
REMARK    3  A    between atoms: C_8  and  C_4 
REMARK    4  A    between atoms: N_10  and  C_5 
ROOT
ATOM      1  N   UNL d   1      52.875  32.466  53.381  0.00  0.00    -0.203 N 
ATOM      2  N   UNL d   1      52.173  32.609  52.966  0.00  0.00    -0.163 NA
ATOM      3  C   UNL d   1      51.950  33.379  53.059  0.00  0.00     0.103 A 
ATOM      4  C   UNL d   1      53.106  33.176  53.754  0.00  0.00     0.087 A 
ATOM      5  C   UNL d   1      52.538  33.745  53.559  0.00  0.00     0.040 A 
ENDROOT
BRANCH   3   6
ATOM      6  C   UNL d   1      51.272  33.727  52.722  0.00  0.00     0.019 A 
ATOM      7  C   UNL d   1      51.270  33.977  51.938  0.00  0.00     0.002 A 
ATOM      8  C   UNL d   1      50.579  34.323  51.619  0.00  0.00     0.000 A 
ATOM      9  C   UNL d   1      49.913  34.413  52.084  0.00  0.00     0.000 A 
ATOM     10  C   UNL d   1      49.933  34.157  52.868  0.00  0.00     0.000 A 
ATOM     11  C   UNL d   1      49.377  34.705  51.762  0.00  0.00     0.000 C 
ATOM     12  C   UNL d   1      50.599  33.820  53.183  0.00  0.00     0.002 A 
ENDBRANCH   3   6
BRANCH   1  13
ATOM     13  C   UNL d   1      53.290  31.733  53.425  0.00  0.00     0.222 C 
ATOM     14  S   UNL d   1      53.941  31.599  52.902  0.00  0.00    -0.037 SA
BRANCH  13  15
ATOM     15  N   UNL d   1      53.070  31.133  53.980  0.00  0.00    -0.214 NA
ATOM     16  C   UNL d   1      53.214  30.332  53.805  0.00  0.00     0.122 C 
ENDBRANCH  13  15
ENDBRANCH   1  13
BRANCH   4  17
ATOM     17  C   UNL d   1      53.766  33.318  54.231  0.00  0.00     0.018 A 
ATOM     18  C   UNL d   1      53.719  33.256  55.048  0.00  0.00     0.002 A 
ATOM     19  C   UNL d   1      54.377  33.398  55.522  0.00  0.00     0.011 A 
ATOM     20  C   UNL d   1      55.091  33.606  55.173  0.00  0.00     0.058 A 
ATOM     21  C   UNL d   1      55.151  33.671  54.375  0.00  0.00     0.011 A 
ATOM     22 CL   UNL d   1      55.750  33.747  55.674  0.00  0.00    -0.082 Cl
ATOM     23  C   UNL d   1      54.491  33.528  53.897  0.00  0.00     0.002 A 
ENDBRANCH   4  17
TORSDOF 4
ENDMDL
MODEL 3
REMARK VINA RESULT:      -8.2      1.992      4.278
REMARK  4 active torsions:
REMARK  status: ('A' for Active; 'I' for Inactive)
REMARK    1  A    between atoms: C_5  and  N_1 
REMARK    2  A    between atoms: C_7  and  C_3 
REMARK    3  A    between atoms: C_8  and  C_4 
REMARK    4  A    between atoms: N_10  and  C_5 
ROOT
ATOM      1  N   UNL d   1      52.505  33.623  53.303  0.00  0.00    -0.203 N 
ATOM      2  N   UNL d   1      52.983  32.969  53.475  0.00  0.00    -0.163 NA
ATOM      3  C   UNL d   1      52.592  32.286  53.295  0.00  0.00     0.103 A 
ATOM      4  C   UNL d   1      51.780  33.342  53.000  0.00  0.00     0.087 A 
ATOM      5  C   UNL d   1      51.826  32.516  52.992  0.00  0.00     0.040 A 
ENDROOT
BRANCH   3   6
ATOM      6  C   UNL d   1      52.897  31.517  53.393  0.00  0.00     0.019 A 
ATOM      7  C   UNL d   1      53.474  31.361  53.960  0.00  0.00     0.002 A 
ATOM      8  C   UNL d   1      53.767  30.582  54.043  0.00  0.00     0.000 A 
ATOM      9  C   UNL d   1      53.481  29.983  53.564  0.00  0.00     0.000 A 
ATOM     10  C   UNL d   1      52.904  30.159  53.002  0.00  0.00     0.000 A 
ATOM     11  C   UNL d   1      53.764  29.364  53.683  0.00  0.00     0.000 C 
ATOM     12  C   UNL d   1      52.616  30.911  52.917  0.00  0.00     0.002 A 
ENDBRANCH   3   6
BRANCH   1  13
ATOM     13  C   UNL d   1      52.708  34.434  53.411  0.00  0.00     0.222 C 
ATOM     14  S   UNL d   1      53.054  34.860  52.767  0.00  0.00    -0.037 SA
BRANCH  13  15
ATOM     15  N   UNL d   1      52.573  34.829  54.147  0.00  0.00    -0.214 NA
ATOM     16  C   UNL d   1      53.066  35.458  54.378  0.00  0.00     0.122 C 
ENDBRANCH  13  15
ENDBRANCH   1  13
BRANCH   4  17
ATOM     17  C   UNL d   1      51.122  33.776  52.748  0.00  0.00     0.018 A 
ATOM     18  C   UNL d   1      51.050  34.019  51.968  0.00  0.00     0.002 A 
ATOM     19  C   UNL d   1      50.395  34.450  51.718  0.00  0.00     0.011 A 
ATOM     20  C   UNL d   1      49.804  34.640  52.257  0.00  0.00     0.058 A 
ATOM     21  C   UNL d   1      49.863  34.407  53.023  0.00  0.00     0.011 A 
ATOM     22 CL   UNL d   1      49.144  35.080  51.982  0.00  0.00    -0.082 Cl
ATOM     23  C   UNL d   1      50.520  33.974  53.276  0.00  0.00     0.002 A 
ENDBRANCH   4  17
TORSDOF 4
ENDMDL
MODEL 4
REMARK VINA RESULT:      -7.8      2.323      4.412
REMARK  4 active torsions:
REMARK  status: ('A' for Active; 'I' for Inactive)
REMARK    1  A    between atoms: C_5  and  N_1 
REMARK    2  A    between atoms: C_7  and  C_3 
REMARK    3  A    between atoms: C_8  and  C_4 
REMARK    4  A    between atoms: N_10  and  C_5 
ROOT
ATOM      1  N   UNL d   1      52.028  33.325  53.065  0.00  0.00    -0.203 N 
ATOM      2  N   UNL d   1      52.071  32.507  52.948  0.00  0.00    -0.163 NA
ATOM      3  C   UNL d   1      52.685  32.199  53.372  0.00  0.00     0.103 A 
ATOM      4  C   UNL d   1      52.641  33.546  53.587  0.00  0.00     0.087 A 
ATOM      5  C   UNL d   1      53.052  32.854  53.781  0.00  0.00     0.040 A 
ENDROOT
BRANCH   3   6
ATOM      6  C   UNL d   1      52.900  31.394  53.392  0.00  0.00     0.019 A 
ATOM      7  C   UNL d   1      53.597  31.152  53.757  0.00  0.00     0.002 A 
ATOM      8  C   UNL d   1      53.795  30.340  53.767  0.00  0.00     0.000 A 
ATOM      9  C   UNL d   1      53.299  29.793  53.415  0.00  0.00     0.000 A 
ATOM     10  C   UNL d   1      52.604  30.054  53.054  0.00  0.00     0.000 A 
ATOM     11  C   UNL d   1      53.519  29.140  53.457  0.00  0.00     0.000 C 
ATOM     12  C   UNL d   1      52.407  30.839  53.042  0.00  0.00     0.002 A 
ENDBRANCH   3   6
BRANCH   1  13
ATOM     13  C   UNL d   1      51.466  33.851  52.722  0.00  0.00     0.222 C 
ATOM     14  S   UNL d   1      51.648  34.220  51.982  0.00  0.00    -0.037 SA
BRANCH  13  15
ATOM     15  N   UNL d   1      50.728  34.018  53.100  0.00  0.00    -0.214 NA
ATOM     16  C   UNL d   1      50.077  34.272  52.648  0.00  0.00     0.122 C 
ENDBRANCH  13  15
ENDBRANCH   1  13
BRANCH   4  17
ATOM     17  C   UNL d   1      52.831  34.298  53.874  0.00  0.00     0.018 A 
ATOM     18  C   UNL d   1      53.258  34.829  53.418  0.00  0.00     0.002 A 
ATOM     19  C   UNL d   1      53.446  35.577  53.705  0.00  0.00     0.011 A 
ATOM     20  C   UNL d   1      53.203  35.796  54.459  0.00  0.00     0.058 A 
ATOM     21  C   UNL d   1      52.784  35.284  54.916  0.00  0.00     0.011 A 
ATOM     22 CL   UNL d   1      53.405  36.563  54.733  0.00  0.00    -0.082 Cl
ATOM     23  C   UNL d   1      52.595  34.533  54.628  0.00  0.00     0.002 A 
ENDBRANCH   4  17
TORSDOF 4
ENDMDL
