MODEL 1
REMARK VINA RESULT:     -10.1      0.000      0.000
REMARK  5 active torsions:
REMARK  status: ('A' for Active; 'I' for Inactive)
REMARK    1  A    between atoms: N_6  and  C_1 
REMARK    2  A    between atoms: C_11  and  N_2 
REMARK    3  A    between atoms: S_3  and  C_10 
REMARK    4  A    between atoms: N_8  and  S_3 
REMARK       I    between atoms: C_9  and  N_6 
REMARK    5  A    between atoms: C_15  and  C_9 
ROOT
ATOM      1  N   UNL d   1      52.464  32.653  53.552  0.00  0.00    -0.189 NA
ATOM      2  C   UNL d   1      52.163  32.955  52.890  0.00  0.00     0.281 C 
ATOM      3  O   UNL d   1      52.572  32.758  52.205  0.00  0.00    -0.265 OA
ENDROOT
BRANCH   2   4
ATOM      4  C   UNL d   1      51.484  33.437  52.860  0.00  0.00     0.058 A 
ATOM      5  C   UNL d   1      50.913  33.323  53.313  0.00  0.00     0.005 A 
ATOM      6  C   UNL d   1      50.270  33.772  53.293  0.00  0.00     0.013 A 
ATOM      7  C   UNL d   1      50.243  34.394  52.737  0.00  0.00     0.104 A 
ATOM      8  C   UNL d   1      50.874  34.458  52.293  0.00  0.00     0.013 A 
ATOM      9  C   UNL d   1      51.511  34.000  52.326  0.00  0.00     0.005 A 
BRANCH   7  10
ATOM     10  S   UNL d   1      49.556  34.878  52.711  0.00  0.00     0.271 S 
ATOM     11  O   UNL d   1      49.301  34.533  52.058  0.00  0.00    -0.200 OA
ATOM     12  O   UNL d   1      49.818  35.268  53.426  0.00  0.00    -0.200 OA
BRANCH  10  13
ATOM     13  N   UNL d   1      48.871  35.315  52.629  0.00  0.00    -0.229 N 
ATOM     14  C   UNL d   1      48.553  35.778  53.213  0.00  0.00     0.092 A 
ATOM     15  C   UNL d   1      47.850  36.122  52.878  0.00  0.00     0.021 A 
ATOM     16  C   UNL d   1      47.769  35.872  52.145  0.00  0.00     0.021 A 
ATOM     17  C   UNL d   1      48.388  35.369  51.961  0.00  0.00     0.092 A 
ENDBRANCH  10  13
ENDBRANCH   7  10
ENDBRANCH   2   4
BRANCH   1  18
ATOM     18  C   UNL d   1      53.119  32.175  53.678  0.00  0.00     0.165 A 
ATOM     19  N   UNL d   1      53.845  32.253  53.979  0.00  0.00    -0.238 N 
ATOM     20  N   UNL d   1      54.293  31.631  53.987  0.00  0.00    -0.168 NA
ATOM     21  C   UNL d   1      53.837  31.037  53.655  0.00  0.00     0.111 A 
ATOM     22  C   UNL d   1      53.111  31.350  53.458  0.00  0.00     0.062 A 
ATOM     23  C   UNL d   1      53.805  30.224  53.428  0.00  0.00     0.056 A 
ATOM     24  C   UNL d   1      52.624  30.749  53.111  0.00  0.00     0.040 A 
ATOM     25  S   UNL d   1      53.072  30.040  53.097  0.00  0.00    -0.084 SA
BRANCH  19  26
ATOM     26  C   UNL d   1      54.161  32.963  54.288  0.00  0.00     0.088 C 
ATOM     27  C   UNL d   1      54.585  33.107  53.568  0.00  0.00     0.025 C 
ATOM     28  C   UNL d   1      53.734  32.825  55.026  0.00  0.00     0.025 C 
ATOM     29  C   UNL d   1      54.475  33.699  54.640  0.00  0.00     0.025 C 
ENDBRANCH  19  26
ENDBRANCH   1  18
TORSDOF 5
ENDMDL
MODEL 2
REMARK VINA RESULT:      -9.1      1.129      1.887
REMARK  5 active torsions:
REMARK  status: ('A' for Active; 'I' for Inactive)
REMARK    1  A    between atoms: N_6  and  C_1 
REMARK    2  A    between atoms: C_11  and  N_2 
REMARK    3  A    between atoms: S_3  and  C_10 
REMARK    4  A    between atoms: N_8  and  S_3 
REMARK       I    between atoms: C_9  and  N_6 
REMARK    5  A    between atoms: C_15  and  C_9 
ROOT
ATOM      1  N   UNL d   1      52.426  33.106  53.644  0.00  0.00    -0.189 NA
ATOM      2  C   UNL d   1      52.309  33.688  53.128  0.00  0.00     0.281 C 
ATOM      3  O   UNL d   1      52.995  34.031  52.834  0.00  0.00    -0.265 OA
ENDROOT
BRANCH   2   4
ATOM      4  C   UNL d   1      51.558  33.955  52.882  0.00  0.00     0.058 A 
ATOM      5  C   UNL d   1      50.999  34.018  53.360  0.00  0.00     0.005 A 
ATOM      6  C   UNL d   1      50.289  34.268  53.138  0.00  0.00     0.013 A 
ATOM      7  C   UNL d   1      50.175  34.465  52.335  0.00  0.00     0.104 A 
ATOM      8  C   UNL d   1      50.802  34.375  51.889  0.00  0.00     0.013 A 
ATOM      9  C   UNL d   1      51.507  34.124  52.126  0.00  0.00     0.005 A 
BRANCH   7  10
ATOM     10  S   UNL d   1      49.416  34.733  52.092  0.00  0.00     0.271 S 
ATOM     11  O   UNL d   1      49.484  34.386  51.395  0.00  0.00    -0.200 OA
ATOM     12  O   UNL d   1      49.323  35.118  52.850  0.00  0.00    -0.200 OA
BRANCH  10  13
ATOM     13  N   UNL d   1      48.690  34.961  51.797  0.00  0.00    -0.229 N 
ATOM     14  C   UNL d   1      48.171  35.444  52.190  0.00  0.00     0.092 A 
ATOM     15  C   UNL d   1      47.498  35.527  51.673  0.00  0.00     0.021 A 
ATOM     16  C   UNL d   1      47.624  35.117  51.024  0.00  0.00     0.021 A 
ATOM     17  C   UNL d   1      48.356  34.754  51.071  0.00  0.00     0.092 A 
ENDBRANCH  10  13
ENDBRANCH   7  10
ENDBRANCH   2   4
BRANCH   1  18
ATOM     18  C   UNL d   1      53.117  32.779  53.942  0.00  0.00     0.165 A 
ATOM     19  N   UNL d   1      53.507  32.094  53.885  0.00  0.00    -0.238 N 
ATOM     20  N   UNL d   1      54.162  32.027  54.276  0.00  0.00    -0.168 NA
ATOM     21  C   UNL d   1      54.256  32.745  54.659  0.00  0.00     0.111 A 
ATOM     22  C   UNL d   1      53.623  33.223  54.467  0.00  0.00     0.062 A 
ATOM     23  C   UNL d   1      54.739  33.204  55.176  0.00  0.00     0.056 A 
ATOM     24  C   UNL d   1      53.702  33.973  54.854  0.00  0.00     0.040 A 
ATOM     25  S   UNL d   1      54.412  33.951  55.301  0.00  0.00    -0.084 SA
BRANCH  19  26
ATOM     26  C   UNL d   1      53.257  31.438  53.430  0.00  0.00     0.088 C 
ATOM     27  C   UNL d   1      52.684  31.228  54.017  0.00  0.00     0.025 C 
ATOM     28  C   UNL d   1      53.839  31.644  52.825  0.00  0.00     0.025 C 
ATOM     29  C   UNL d   1      53.020  30.761  52.931  0.00  0.00     0.025 C 
ENDBRANCH  19  26
ENDBRANCH   1  18
TORSDOF 5
ENDMDL
