MODEL 1
REMARK VINA RESULT:      75.2      0.000      0.000
REMARK  2 active torsions:
REMARK  status: ('A' for Active; 'I' for Inactive)
REMARK       I    between atoms: N_2  and  C_1 
REMARK    1  A    between atoms: C_4  and  C_1 
REMARK    2  A    between atoms: C_7  and  N_3 
ROOT
ATOM      1  C   UNL d   1     -54.762-100.056 -39.435  0.00  0.00     0.265 C 
ATOM      2  N   UNL d   1     -54.768-100.157 -40.252  0.00  0.00    -0.269 N 
ATOM      3  N   UNL d   1     -54.779-100.356 -41.892  0.00  0.00    -0.301 N 
ATOM      4  C   UNL d   1     -54.735 -99.493 -40.747  0.00  0.00     0.102 A 
ATOM      5  C   UNL d   1     -54.806-100.918 -40.571  0.00  0.00     0.102 A 
ATOM      6  C   UNL d   1     -54.812-101.015 -41.386  0.00  0.00     0.100 A 
ATOM      7  C   UNL d   1     -54.741 -99.598 -41.565  0.00  0.00     0.100 A 
ATOM      8  O   UNL d   1     -54.724 -99.296 -39.111  0.00  0.00    -0.267 OA
ENDROOT
BRANCH   1   9
ATOM      9  C   UNL d   1     -54.795-100.720 -38.939  0.00  0.00     0.059 A 
ATOM     10  C   UNL d   1     -54.735-100.619 -38.123  0.00  0.00     0.031 A 
ATOM     11  C   UNL d   1     -54.766-101.280 -37.612  0.00  0.00     0.119 A 
ATOM     12  O   UNL d   1     -54.722-101.358 -36.789  0.00  0.00    -0.300 OA
ATOM     13  C   UNL d   1     -54.860-102.050 -37.935  0.00  0.00     0.119 A 
ATOM     14  C   UNL d   1     -54.788-102.168 -36.600  0.00  0.00     0.304 A 
ATOM     15  O   UNL d   1     -54.873-102.598 -37.310  0.00  0.00    -0.300 OA
ATOM     16  C   UNL d   1     -54.921-102.146 -38.764  0.00  0.00     0.026 A 
ATOM     17  C   UNL d   1     -54.889-101.489 -39.262  0.00  0.00     0.007 A 
ENDBRANCH   1   9
BRANCH   3  18
ATOM     18  C   UNL d   1     -54.785-100.460 -42.710  0.00  0.00     0.064 A 
ATOM     19  C   UNL d   1     -54.766-101.222 -43.022  0.00  0.00     0.018 A 
ATOM     20  C   UNL d   1     -54.772-101.320 -43.836  0.00  0.00     0.013 A 
ATOM     21  C   UNL d   1     -54.797-100.663 -44.334  0.00  0.00     0.058 A 
ATOM     22  C   UNL d   1     -54.816 -99.902 -44.010  0.00  0.00     0.013 A 
ATOM     23 CL   UNL d   1     -54.803-100.767 -45.152  0.00  0.00    -0.082 Cl
ATOM     24  C   UNL d   1     -54.810 -99.807 -43.200  0.00  0.00     0.018 A 
ENDBRANCH   3  18
TORSDOF 2
ENDMDL
