MODEL 1
REMARK VINA RESULT:      57.9      0.000      0.000
REMARK  5 active torsions:
REMARK  status: ('A' for Active; 'I' for Inactive)
REMARK    1  A    between atoms: C_2  and  S_1 
REMARK    2  A    between atoms: N_11  and  S_1 
REMARK    3  A    between atoms: N_3  and  C_17 
REMARK    4  A    between atoms: C_16  and  N_11 
REMARK    5  A    between atoms: C_17  and  C_16 
ROOT
ATOM      1  S   UNL d   1      60.957  48.775  50.991  0.00  0.00     0.285 S 
ATOM      2  O   UNL d   1      61.646  48.814  51.444  0.00  0.00    -0.198 OA
ATOM      3  O   UNL d   1      60.684  49.476  51.337  0.00  0.00    -0.198 OA
ENDROOT
BRANCH   1   4
ATOM      4  C   UNL d   1      61.214  48.070  50.632  0.00  0.00     0.105 A 
ATOM      5  C   UNL d   1      60.980  47.343  50.944  0.00  0.00     0.012 A 
ATOM      6  C   UNL d   1      61.231  46.646  50.593  0.00  0.00     0.001 A 
ATOM      7  C   UNL d   1      60.491  47.311  51.612  0.00  0.00     0.001 C 
ATOM      8  C   UNL d   1      61.722  46.669  49.923  0.00  0.00     0.000 A 
ATOM      9  C   UNL d   1      61.952  47.406  49.616  0.00  0.00     0.001 A 
ATOM     10  C   UNL d   1      61.982  45.976  49.561  0.00  0.00     0.000 C 
ATOM     11  C   UNL d   1      61.694  48.103  49.977  0.00  0.00     0.012 A 
ATOM     12  C   UNL d   1      61.925  48.831  49.669  0.00  0.00     0.001 C 
ENDBRANCH   1   4
BRANCH   1  13
ATOM     13  N   UNL d   1      60.223  48.923  50.648  0.00  0.00    -0.155 NA
BRANCH  13  14
ATOM     14  C   UNL d   1      59.864  49.661  50.736  0.00  0.00     0.131 C 
BRANCH  14  15
ATOM     15  C   UNL d   1      59.059  49.708  50.909  0.00  0.00     0.102 C 
BRANCH  15  16
ATOM     16  N   UNL d   1      58.506  49.706  50.297  0.00  0.00    -0.303 N 
ATOM     17  C   UNL d   1      58.678  49.706  49.487  0.00  0.00     0.080 A 
ATOM     18  C   UNL d   1      57.966  49.705  49.074  0.00  0.00     0.021 A 
ATOM     19  C   UNL d   1      57.348  49.704  49.620  0.00  0.00     0.018 A 
ATOM     20  C   UNL d   1      57.679  49.705  50.378  0.00  0.00     0.064 A 
ATOM     21  C   UNL d   1      56.529  49.703  49.540  0.00  0.00     0.002 A 
ATOM     22  C   UNL d   1      57.201  49.705  51.047  0.00  0.00     0.018 A 
ATOM     23  C   UNL d   1      56.382  49.703  50.965  0.00  0.00     0.002 A 
ATOM     24  C   UNL d   1      56.033  49.702  50.207  0.00  0.00     0.000 A 
ENDBRANCH  15  16
ENDBRANCH  14  15
ENDBRANCH  13  14
ENDBRANCH   1  13
TORSDOF 5
ENDMDL
