MODEL 1
REMARK VINA RESULT:      58.2      0.000      0.000
REMARK  4 active torsions:
REMARK  status: ('A' for Active; 'I' for Inactive)
REMARK    1  A    between atoms: C_6  and  C_1 
REMARK    2  A    between atoms: C_3  and  C_15 
REMARK    3  A    between atoms: O_11  and  C_6 
REMARK    4  A    between atoms: C_15  and  O_11 
ROOT
ATOM      1  C   UNL d   1      13.639  14.387  -4.270  0.00  0.00     0.127 A 
ATOM      2  C   UNL d   1      13.558  14.829  -4.950  0.00  0.00     0.305 A 
ATOM      3  C   UNL d   1      13.974  14.729  -3.592  0.00  0.00     0.013 A 
ATOM      4  C   UNL d   1      14.216  15.525  -3.644  0.00  0.00     0.023 A 
ATOM      5  O   UNL d   1      13.791  15.603  -5.009  0.00  0.00    -0.273 OA
ATOM      6  C   UNL d   1      14.137  15.965  -4.319  0.00  0.00     0.103 A 
ATOM      7  C   UNL d   1      14.560  15.887  -2.960  0.00  0.00     0.002 A 
ATOM      8  O   UNL d   1      13.206  14.451  -5.647  0.00  0.00    -0.259 OA
ATOM      9  C   UNL d   1      14.379  16.768  -4.377  0.00  0.00     0.025 A 
ATOM     10  C   UNL d   1      14.802  16.684  -3.012  0.00  0.00     0.000 A 
ATOM     11  C   UNL d   1      14.713  17.110  -3.704  0.00  0.00     0.002 A 
ATOM     12  C   UNL d   1      14.660  15.481  -2.255  0.00  0.00     0.000 A 
ATOM     13  C   UNL d   1      15.132  17.053  -2.377  0.00  0.00     0.000 A 
ATOM     14  C   UNL d   1      15.003  15.863  -1.592  0.00  0.00     0.000 A 
ATOM     15  C   UNL d   1      15.238  16.643  -1.650  0.00  0.00     0.000 A 
ENDROOT
BRANCH   1  16
ATOM     16  C   UNL d   1      13.369  13.547  -4.258  0.00  0.00     0.305 C 
ATOM     17  O   UNL d   1      13.531  13.096  -4.929  0.00  0.00    -0.259 OA
BRANCH  16  18
ATOM     18  O   UNL d   1      12.975  13.222  -3.615  0.00  0.00    -0.271 OA
BRANCH  18  19
ATOM     19  C   UNL d   1      13.183  12.461  -3.361  0.00  0.00     0.127 C 
ATOM     20  C   UNL d   1      13.013  11.811  -3.856  0.00  0.00     0.029 C 
BRANCH  19  21
ATOM     21  C   UNL d   1      13.551  12.315  -2.640  0.00  0.00     0.134 A 
ATOM     22  N   UNL d   1      14.337  12.185  -2.487  0.00  0.00    -0.236 NA
ATOM     23  C   UNL d   1      14.391  12.067  -1.651  0.00  0.00     0.088 A 
ATOM     24  C   UNL d   1      15.034  11.914  -1.169  0.00  0.00     0.020 A 
ATOM     25  C   UNL d   1      13.703  12.121  -1.339  0.00  0.00     0.049 A 
ATOM     26  C   UNL d   1      14.973  11.811  -0.326  0.00  0.00     0.002 A 
ATOM     27  C   UNL d   1      14.243  11.873  -0.031  0.00  0.00     0.001 A 
ATOM     28  C   UNL d   1      13.595  12.028  -0.516  0.00  0.00     0.008 A 
ATOM     29  S   UNL d   1      13.138  12.277  -1.922  0.00  0.00    -0.065 SA
ENDBRANCH  19  21
ENDBRANCH  18  19
ENDBRANCH  16  18
ENDBRANCH   1  16
TORSDOF 4
ENDMDL
MODEL 2
REMARK VINA RESULT:      59.2      1.570      4.153
REMARK  4 active torsions:
REMARK  status: ('A' for Active; 'I' for Inactive)
REMARK    1  A    between atoms: C_6  and  C_1 
REMARK    2  A    between atoms: C_3  and  C_15 
REMARK    3  A    between atoms: O_11  and  C_6 
REMARK    4  A    between atoms: C_15  and  O_11 
ROOT
ATOM      1  C   UNL d   1      13.565  13.026  -3.176  0.00  0.00     0.127 A 
ATOM      2  C   UNL d   1      13.580  12.212  -3.158  0.00  0.00     0.305 A 
ATOM      3  C   UNL d   1      13.906  13.460  -2.555  0.00  0.00     0.013 A 
ATOM      4  C   UNL d   1      14.252  13.029  -1.932  0.00  0.00     0.023 A 
ATOM      5  O   UNL d   1      13.915  11.785  -2.555  0.00  0.00    -0.273 OA
ATOM      6  C   UNL d   1      14.267  12.219  -1.912  0.00  0.00     0.103 A 
ATOM      7  C   UNL d   1      14.603  13.458  -1.291  0.00  0.00     0.002 A 
ATOM      8  O   UNL d   1      13.218  11.779  -3.817  0.00  0.00    -0.259 OA
ATOM      9  C   UNL d   1      14.616  11.780  -1.286  0.00  0.00     0.025 A 
ATOM     10  C   UNL d   1      14.950  13.027  -0.667  0.00  0.00     0.000 A 
ATOM     11  C   UNL d   1      14.954  12.208  -0.668  0.00  0.00     0.002 A 
ATOM     12  C   UNL d   1      14.611  14.278  -1.268  0.00  0.00     0.000 A 
ATOM     13  C   UNL d   1      15.291  13.409  -0.046  0.00  0.00     0.000 A 
ATOM     14  C   UNL d   1      14.966  14.678  -0.622  0.00  0.00     0.000 A 
ATOM     15  C   UNL d   1      15.303  14.249  -0.014  0.00  0.00     0.000 A 
ENDROOT
BRANCH   1  16
ATOM     16  C   UNL d   1      13.188  13.443  -3.855  0.00  0.00     0.305 C 
ATOM     17  O   UNL d   1      13.039  12.993  -4.530  0.00  0.00    -0.259 OA
BRANCH  16  18
ATOM     18  O   UNL d   1      12.991  14.240  -3.827  0.00  0.00    -0.271 OA
BRANCH  18  19
ATOM     19  C   UNL d   1      13.183  14.723  -4.472  0.00  0.00     0.127 C 
ATOM     20  C   UNL d   1      12.795  14.595  -5.200  0.00  0.00     0.029 C 
BRANCH  19  21
ATOM     21  C   UNL d   1      13.740  15.327  -4.430  0.00  0.00     0.134 A 
ATOM     22  N   UNL d   1      14.069  15.671  -3.772  0.00  0.00    -0.236 NA
ATOM     23  C   UNL d   1      14.605  16.257  -4.064  0.00  0.00     0.088 A 
ATOM     24  C   UNL d   1      15.095  16.781  -3.672  0.00  0.00     0.020 A 
ATOM     25  C   UNL d   1      14.594  16.260  -4.821  0.00  0.00     0.049 A 
ATOM     26  C   UNL d   1      15.601  17.337  -4.071  0.00  0.00     0.002 A 
ATOM     27  C   UNL d   1      15.567  17.316  -4.861  0.00  0.00     0.001 A 
ATOM     28  C   UNL d   1      15.073  16.788  -5.256  0.00  0.00     0.008 A 
ATOM     29  S   UNL d   1      14.063  15.691  -5.101  0.00  0.00    -0.065 SA
ENDBRANCH  19  21
ENDBRANCH  18  19
ENDBRANCH  16  18
ENDBRANCH   1  16
TORSDOF 4
ENDMDL
