MODEL 1
REMARK VINA RESULT:      -4.5      0.000      0.000
REMARK  1 active torsions:
REMARK  status: ('A' for Active; 'I' for Inactive)
REMARK    1  A    between atoms: C_11  and  N_5 
ROOT
ATOM      1  C   UNL d   1      58.045   0.018  30.880  0.00  0.00     0.130 A 
ATOM      2  C   UNL d   1      58.717   0.308  31.262  0.00  0.00     0.157 A 
ATOM      3  N   UNL d   1      58.685   0.508  32.054  0.00  0.00    -0.210 NA
ATOM      4  C   UNL d   1      57.337  -0.070  31.294  0.00  0.00     0.272 A 
ATOM      5  N   UNL d   1      57.303   0.131  32.090  0.00  0.00    -0.259 N 
ATOM      6  C   UNL d   1      58.082  -0.183  30.080  0.00  0.00     0.204 A 
ATOM      7  N   UNL d   1      59.418   0.393  30.844  0.00  0.00    -0.289 N 
ATOM      8  C   UNL d   1      57.974   0.421  32.475  0.00  0.00     0.152 A 
ATOM      9  C   UNL d   1      58.778  -0.096  29.670  0.00  0.00     0.055 A 
ATOM     10  C   UNL d   1      59.449   0.191  30.046  0.00  0.00     0.069 A 
ATOM     11  O   UNL d   1      56.671  -0.358  30.911  0.00  0.00    -0.266 OA
ATOM     12  O   UNL d   1      57.410  -0.470  29.704  0.00  0.00    -0.286 OA
ATOM     13  C   UNL d   1      60.089   0.681  31.221  0.00  0.00     0.101 C 
ATOM     14  C   UNL d   1      57.942   0.623  33.273  0.00  0.00     0.041 C 
ATOM     15  C   UNL d   1      58.811  -0.299  28.869  0.00  0.00     0.005 A 
ATOM     16  C   UNL d   1      60.160   0.279  29.625  0.00  0.00     0.018 A 
ATOM     17  C   UNL d   1      59.518  -0.211  28.455  0.00  0.00     0.000 A 
ATOM     18  C   UNL d   1      60.189   0.077  28.831  0.00  0.00     0.002 A 
ENDROOT
BRANCH   5  19
ATOM     19  C   UNL d   1      56.593   0.041  32.502  0.00  0.00     0.068 A 
ATOM     20  C   UNL d   1      56.073   0.682  32.590  0.00  0.00     0.020 A 
ATOM     21  C   UNL d   1      55.362   0.591  33.002  0.00  0.00     0.031 A 
ATOM     22  C   UNL d   1      55.161  -0.137  33.331  0.00  0.00     0.140 A 
ATOM     23  C   UNL d   1      55.679  -0.786  33.247  0.00  0.00     0.031 A 
ATOM     24  F   UNL d   1      54.449  -0.229  33.745  0.00  0.00    -0.204 F 
ATOM     25  C   UNL d   1      56.395  -0.691  32.830  0.00  0.00     0.020 A 
ENDBRANCH   5  19
TORSDOF 1
ENDMDL
MODEL 2
REMARK VINA RESULT:      -2.2      1.706      4.343
REMARK  1 active torsions:
REMARK  status: ('A' for Active; 'I' for Inactive)
REMARK    1  A    between atoms: C_11  and  N_5 
ROOT
ATOM      1  C   UNL d   1      56.825   0.210  32.449  0.00  0.00     0.130 A 
ATOM      2  C   UNL d   1      57.344   0.388  33.066  0.00  0.00     0.157 A 
ATOM      3  N   UNL d   1      58.147   0.450  32.923  0.00  0.00    -0.210 NA
ATOM      4  C   UNL d   1      57.112   0.094  31.685  0.00  0.00     0.272 A 
ATOM      5  N   UNL d   1      57.919   0.155  31.539  0.00  0.00    -0.259 N 
ATOM      6  C   UNL d   1      56.016   0.149  32.599  0.00  0.00     0.204 A 
ATOM      7  N   UNL d   1      57.052   0.503  33.824  0.00  0.00    -0.289 N 
ATOM      8  C   UNL d   1      58.441   0.333  32.154  0.00  0.00     0.152 A 
ATOM      9  C   UNL d   1      55.730   0.263  33.351  0.00  0.00     0.055 A 
ATOM     10  C   UNL d   1      56.243   0.440  33.967  0.00  0.00     0.069 A 
ATOM     11  O   UNL d   1      56.593  -0.083  31.074  0.00  0.00    -0.266 OA
ATOM     12  O   UNL d   1      55.503  -0.029  31.982  0.00  0.00    -0.286 OA
ATOM     13  C   UNL d   1      57.565   0.680  34.441  0.00  0.00     0.101 C 
ATOM     14  C   UNL d   1      59.249   0.396  32.010  0.00  0.00     0.041 C 
ATOM     15  C   UNL d   1      54.918   0.201  33.497  0.00  0.00     0.005 A 
ATOM     16  C   UNL d   1      55.949   0.557  34.736  0.00  0.00     0.018 A 
ATOM     17  C   UNL d   1      54.632   0.317  34.260  0.00  0.00     0.000 A 
ATOM     18  C   UNL d   1      55.144   0.494  34.876  0.00  0.00     0.002 A 
ENDROOT
BRANCH   5  19
ATOM     19  C   UNL d   1      58.203   0.038  30.773  0.00  0.00     0.068 A 
ATOM     20  C   UNL d   1      58.216  -0.722  30.439  0.00  0.00     0.020 A 
ATOM     21  C   UNL d   1      58.501  -0.839  29.672  0.00  0.00     0.031 A 
ATOM     22  C   UNL d   1      58.775  -0.201  29.228  0.00  0.00     0.140 A 
ATOM     23  C   UNL d   1      58.765   0.566  29.556  0.00  0.00     0.031 A 
ATOM     24  F   UNL d   1      59.061  -0.316  28.459  0.00  0.00    -0.204 F 
ATOM     25  C   UNL d   1      58.477   0.680  30.330  0.00  0.00     0.020 A 
ENDBRANCH   5  19
TORSDOF 1
ENDMDL
