MODEL 1
REMARK VINA RESULT:      45.8      0.000      0.000
REMARK  6 active torsions:
REMARK  status: ('A' for Active; 'I' for Inactive)
REMARK    1  A    between atoms: C_2  and  S_1 
REMARK    2  A    between atoms: N_3  and  S_1 
REMARK    3  A    between atoms: C_5  and  C_6 
REMARK    4  A    between atoms: O_13  and  C_5 
REMARK    5  A    between atoms: C_22  and  O_13 
REMARK    6  A    between atoms: C_21  and  C_22 
ROOT
ATOM      1  C   UNL d   1      13.718  14.897  -3.861  0.00  0.00     0.104 A 
ATOM      2  C   UNL d   1      13.708  14.080  -3.745  0.00  0.00     0.018 A 
ATOM      3  C   UNL d   1      13.283  13.594  -4.261  0.00  0.00     0.064 A 
ATOM      4  C   UNL d   1      13.306  15.221  -4.488  0.00  0.00     0.012 A 
ATOM      5  C   UNL d   1      12.868  13.925  -4.893  0.00  0.00     0.005 A 
ATOM      6  C   UNL d   1      12.885  14.740  -4.999  0.00  0.00     0.001 A 
ATOM      7  C   UNL d   1      13.316  16.038  -4.604  0.00  0.00     0.001 C 
ENDROOT
BRANCH   3   8
ATOM      8  C   UNL d   1      13.272  12.777  -4.145  0.00  0.00     0.300 C 
ATOM      9  O   UNL d   1      13.627  12.279  -4.702  0.00  0.00    -0.259 OA
BRANCH   8  10
ATOM     10  O   UNL d   1      12.911  12.459  -3.478  0.00  0.00    -0.271 OA
BRANCH  10  11
ATOM     11  C   UNL d   1      13.216  11.780  -3.132  0.00  0.00     0.126 C 
BRANCH  11  12
ATOM     12  C   UNL d   1      13.436  11.781  -2.336  0.00  0.00     0.027 A 
ATOM     13  C   UNL d   1      14.224  11.783  -2.131  0.00  0.00     0.028 A 
ATOM     14  C   UNL d   1      14.449  11.783  -1.337  0.00  0.00     0.119 A 
ATOM     15  O   UNL d   1      15.192  11.785  -0.963  0.00  0.00    -0.300 OA
ATOM     16  C   UNL d   1      13.866  11.782  -0.750  0.00  0.00     0.119 A 
ATOM     17  C   UNL d   1      15.061  11.785  -0.142  0.00  0.00     0.304 A 
ATOM     18  O   UNL d   1      14.246  11.783  -0.014  0.00  0.00    -0.300 OA
ATOM     19  C   UNL d   1      13.061  11.780  -0.956  0.00  0.00     0.026 A 
ATOM     20  C   UNL d   1      12.850  11.779  -1.753  0.00  0.00     0.004 A 
ENDBRANCH  11  12
ENDBRANCH  10  11
ENDBRANCH   8  10
ENDBRANCH   3   8
BRANCH   1  21
ATOM     21  S   UNL d   1      14.141  15.381  -3.347  0.00  0.00     0.271 S 
ATOM     22  O   UNL d   1      14.474  15.782  -3.999  0.00  0.00    -0.200 OA
ATOM     23  O   UNL d   1      13.765  14.927  -2.609  0.00  0.00    -0.200 OA
BRANCH  21  24
ATOM     24  N   UNL d   1      14.540  15.835  -2.793  0.00  0.00    -0.229 N 
ATOM     25  C   UNL d   1      14.673  15.545  -2.034  0.00  0.00     0.092 A 
ATOM     26  C   UNL d   1      15.075  16.009  -1.482  0.00  0.00     0.020 A 
ATOM     27  C   UNL d   1      15.341  16.756  -1.689  0.00  0.00     0.003 A 
ATOM     28  C   UNL d   1      15.208  17.041  -2.446  0.00  0.00     0.020 A 
ATOM     29  C   UNL d   1      14.810  16.587  -2.995  0.00  0.00     0.092 A 
ENDBRANCH  21  24
ENDBRANCH   1  21
TORSDOF 6
ENDMDL
