MODEL 1
REMARK VINA RESULT:      -7.6      0.000      0.000
REMARK  4 active torsions:
REMARK  status: ('A' for Active; 'I' for Inactive)
REMARK    1  A    between atoms: C_2  and  S_1 
REMARK    2  A    between atoms: N_11  and  S_1 
REMARK    3  A    between atoms: C_7  and  C_19 
REMARK    4  A    between atoms: C_19  and  N_11 
ROOT
ATOM      1  C   UNL d   1      51.118  33.929  53.228  0.00  0.00     0.133 C 
ENDROOT
BRANCH   1   2
ATOM      2  C   UNL d   1      50.450  34.230  52.838  0.00  0.00     0.120 A 
ATOM      3  N   UNL d   1      49.915  34.741  53.166  0.00  0.00    -0.225 NA
ATOM      4  C   UNL d   1      49.330  34.905  52.590  0.00  0.00     0.148 A 
ATOM      5  C   UNL d   1      48.656  35.381  52.604  0.00  0.00     0.037 A 
ATOM      6  N   UNL d   1      49.524  34.484  51.909  0.00  0.00    -0.288 N 
ATOM      7  C   UNL d   1      48.175  35.434  51.937  0.00  0.00     0.004 A 
ATOM      8  C   UNL d   1      47.503  35.912  51.960  0.00  0.00     0.000 C 
ATOM      9  C   UNL d   1      48.369  35.013  51.257  0.00  0.00     0.019 A 
ATOM     10  C   UNL d   1      49.043  34.538  51.243  0.00  0.00     0.082 A 
ATOM     11  C   UNL d   1      50.222  34.061  52.060  0.00  0.00     0.102 A 
ENDBRANCH   1   2
BRANCH   1  12
ATOM     12  N   UNL d   1      51.840  33.882  52.830  0.00  0.00    -0.155 NA
BRANCH  12  13
ATOM     13  S   UNL d   1      52.513  33.616  53.232  0.00  0.00     0.291 S 
ATOM     14  O   UNL d   1      52.825  34.388  53.219  0.00  0.00    -0.198 OA
ATOM     15  O   UNL d   1      52.195  32.843  53.243  0.00  0.00    -0.198 OA
BRANCH  13  16
ATOM     16  C   UNL d   1      53.182  33.347  53.633  0.00  0.00     0.135 A 
ATOM     17  S   UNL d   1      53.435  33.592  54.370  0.00  0.00    -0.062 SA
ATOM     18  C   UNL d   1      54.125  33.185  54.562  0.00  0.00     0.088 A 
ATOM     19 CL   UNL d   1      54.559  33.267  55.255  0.00  0.00    -0.075 Cl
ATOM     20  C   UNL d   1      54.300  32.676  53.925  0.00  0.00     0.019 A 
ATOM     21  C   UNL d   1      53.718  32.777  53.353  0.00  0.00     0.021 A 
ENDBRANCH  13  16
ENDBRANCH  12  13
ENDBRANCH   1  12
TORSDOF 4
ENDMDL
MODEL 2
REMARK VINA RESULT:      -7.5      2.396      5.075
REMARK  4 active torsions:
REMARK  status: ('A' for Active; 'I' for Inactive)
REMARK    1  A    between atoms: C_2  and  S_1 
REMARK    2  A    between atoms: N_11  and  S_1 
REMARK    3  A    between atoms: C_7  and  C_19 
REMARK    4  A    between atoms: C_19  and  N_11 
ROOT
ATOM      1  C   UNL d   1      51.384  34.169  52.601  0.00  0.00     0.133 C 
ENDROOT
BRANCH   1   2
ATOM      2  C   UNL d   1      52.037  33.897  53.035  0.00  0.00     0.120 A 
ATOM      3  N   UNL d   1      52.459  34.341  53.563  0.00  0.00    -0.225 NA
ATOM      4  C   UNL d   1      53.068  33.860  53.877  0.00  0.00     0.148 A 
ATOM      5  C   UNL d   1      53.662  34.007  54.430  0.00  0.00     0.037 A 
ATOM      6  N   UNL d   1      53.004  33.116  53.527  0.00  0.00    -0.288 N 
ATOM      7  C   UNL d   1      54.193  33.411  54.633  0.00  0.00     0.004 A 
ATOM      8  C   UNL d   1      54.784  33.567  55.186  0.00  0.00     0.000 C 
ATOM      9  C   UNL d   1      54.130  32.669  54.284  0.00  0.00     0.019 A 
ATOM     10  C   UNL d   1      53.535  32.521  53.731  0.00  0.00     0.082 A 
ATOM     11  C   UNL d   1      52.362  33.136  53.001  0.00  0.00     0.102 A 
ENDBRANCH   1   2
BRANCH   1  12
ATOM     12  N   UNL d   1      50.635  34.180  52.947  0.00  0.00    -0.155 NA
BRANCH  12  13
ATOM     13  S   UNL d   1      49.984  34.439  52.507  0.00  0.00     0.291 S 
ATOM     14  O   UNL d   1      50.311  34.094  51.822  0.00  0.00    -0.198 OA
ATOM     15  O   UNL d   1      49.660  34.782  53.196  0.00  0.00    -0.198 OA
BRANCH  13  16
ATOM     16  C   UNL d   1      49.333  34.698  52.071  0.00  0.00     0.135 A 
ATOM     17  S   UNL d   1      48.748  35.203  52.331  0.00  0.00    -0.062 SA
ATOM     18  C   UNL d   1      48.205  35.317  51.721  0.00  0.00     0.088 A 
ATOM     19 CL   UNL d   1      47.531  35.787  51.752  0.00  0.00    -0.075 Cl
ATOM     20  C   UNL d   1      48.466  34.868  51.068  0.00  0.00     0.019 A 
ATOM     21  C   UNL d   1      49.162  34.487  51.285  0.00  0.00     0.021 A 
ENDBRANCH  13  16
ENDBRANCH  12  13
ENDBRANCH   1  12
TORSDOF 4
ENDMDL
