MODEL 1
REMARK VINA RESULT:      43.8      0.000      0.000
REMARK  5 active torsions:
REMARK  status: ('A' for Active; 'I' for Inactive)
REMARK    1  A    between atoms: C_5  and  C_1 
REMARK       I    between atoms: N_7  and  C_5 
REMARK    2  A    between atoms: C_10  and  N_7 
REMARK    3  A    between atoms: S_15  and  C_14 
REMARK    4  A    between atoms: C_20  and  S_15 
REMARK    5  A    between atoms: C_16  and  C_20 
ROOT
ATOM      1  N   UNL d   1      13.325  12.079  -4.832  0.00  0.00    -0.191 NA
ATOM      2  C   UNL d   1      13.114  11.952  -4.035  0.00  0.00     0.102 C 
ATOM      3  C   UNL d   1      12.914  11.829  -3.244  0.00  0.00     0.085 C 
ENDROOT
BRANCH   3   4
ATOM      4  C   UNL d   1      13.486  11.879  -2.658  0.00  0.00     0.046 C 
BRANCH   4   5
ATOM      5  S   UNL d   1      13.497  12.532  -2.145  0.00  0.00    -0.084 SA
BRANCH   5   6
ATOM      6  C   UNL d   1      13.919  12.490  -1.432  0.00  0.00     0.047 A 
ATOM      7  C   UNL d   1      14.423  13.103  -1.220  0.00  0.00     0.091 A 
ATOM      8  C   UNL d   1      14.847  13.068  -0.511  0.00  0.00     0.020 A 
ATOM      9  C   UNL d   1      14.765  12.417  -0.014  0.00  0.00     0.002 A 
ATOM     10  C   UNL d   1      14.256  11.797  -0.227  0.00  0.00     0.001 A 
ATOM     11  C   UNL d   1      13.836  11.839  -0.936  0.00  0.00     0.008 A 
BRANCH   7  12
ATOM     12  N   UNL d   1      14.507  13.757  -1.716  0.00  0.00    -0.206 NA
ATOM     13  C   UNL d   1      14.690  14.488  -1.397  0.00  0.00     0.302 C 
ATOM     14  O   UNL d   1      14.791  14.577  -0.585  0.00  0.00    -0.263 OA
BRANCH  13  15
ATOM     15  C   UNL d   1      14.776  15.151  -1.896  0.00  0.00     0.161 A 
ATOM     16  C   UNL d   1      14.951  15.886  -1.583  0.00  0.00     0.072 A 
ATOM     17  C   UNL d   1      15.034  16.537  -2.087  0.00  0.00     0.200 A 
ATOM     18  O   UNL d   1      15.211  17.285  -1.777  0.00  0.00    -0.286 OA
ATOM     19  C   UNL d   1      14.940  16.441  -2.897  0.00  0.00     0.062 A 
ATOM     20  C   UNL d   1      14.765  15.707  -3.214  0.00  0.00     0.103 A 
ATOM     21  C   UNL d   1      15.023  17.093  -3.406  0.00  0.00     0.005 A 
ATOM     22  O   UNL d   1      14.683  15.055  -2.706  0.00  0.00    -0.302 OA
ATOM     23  C   UNL d   1      14.670  15.602  -4.029  0.00  0.00     0.025 A 
ATOM     24  C   UNL d   1      14.753  16.253  -4.529  0.00  0.00     0.002 A 
ATOM     25  C   UNL d   1      14.929  16.996  -4.216  0.00  0.00     0.000 A 
ENDBRANCH  13  15
ENDBRANCH   7  12
ENDBRANCH   5   6
ENDBRANCH   4   5
ENDBRANCH   3   4
TORSDOF 5
ENDMDL
MODEL 2
REMARK VINA RESULT:      46.1      1.790      4.129
REMARK  5 active torsions:
REMARK  status: ('A' for Active; 'I' for Inactive)
REMARK    1  A    between atoms: C_5  and  C_1 
REMARK       I    between atoms: N_7  and  C_5 
REMARK    2  A    between atoms: C_10  and  N_7 
REMARK    3  A    between atoms: S_15  and  C_14 
REMARK    4  A    between atoms: C_20  and  S_15 
REMARK    5  A    between atoms: C_16  and  C_20 
ROOT
ATOM      1  N   UNL d   1      14.450  16.660  -5.005  0.00  0.00    -0.191 NA
ATOM      2  C   UNL d   1      14.068  15.966  -5.269  0.00  0.00     0.102 C 
ATOM      3  C   UNL d   1      13.696  15.277  -5.526  0.00  0.00     0.085 C 
ENDROOT
BRANCH   3   4
ATOM      4  C   UNL d   1      13.921  14.546  -5.227  0.00  0.00     0.046 C 
BRANCH   4   5
ATOM      5  S   UNL d   1      13.400  14.118  -4.744  0.00  0.00    -0.084 SA
BRANCH   5   6
ATOM      6  C   UNL d   1      13.199  13.338  -4.943  0.00  0.00     0.047 A 
ATOM      7  C   UNL d   1      13.227  12.750  -4.370  0.00  0.00     0.091 A 
ATOM      8  C   UNL d   1      13.028  11.970  -4.561  0.00  0.00     0.020 A 
ATOM      9  C   UNL d   1      12.800  11.781  -5.328  0.00  0.00     0.002 A 
ATOM     10  C   UNL d   1      12.771  12.374  -5.909  0.00  0.00     0.001 A 
ATOM     11  C   UNL d   1      12.971  13.148  -5.711  0.00  0.00     0.008 A 
BRANCH   7  12
ATOM     12  N   UNL d   1      13.455  12.938  -3.599  0.00  0.00    -0.206 NA
ATOM     13  C   UNL d   1      14.055  12.513  -3.239  0.00  0.00     0.302 C 
ATOM     14  O   UNL d   1      14.433  11.901  -3.638  0.00  0.00    -0.263 OA
BRANCH  13  15
ATOM     15  C   UNL d   1      14.287  12.700  -2.460  0.00  0.00     0.161 A 
ATOM     16  C   UNL d   1      14.178  12.163  -1.854  0.00  0.00     0.072 A 
ATOM     17  C   UNL d   1      14.413  12.359  -1.084  0.00  0.00     0.200 A 
ATOM     18  O   UNL d   1      14.305  11.818  -0.465  0.00  0.00    -0.286 OA
ATOM     19  C   UNL d   1      14.753  13.091  -0.935  0.00  0.00     0.062 A 
ATOM     20  C   UNL d   1      14.864  13.632  -1.540  0.00  0.00     0.103 A 
ATOM     21  C   UNL d   1      14.990  13.290  -0.164  0.00  0.00     0.005 A 
ATOM     22  O   UNL d   1      14.628  13.432  -2.311  0.00  0.00    -0.302 OA
ATOM     23  C   UNL d   1      15.206  14.371  -1.397  0.00  0.00     0.025 A 
ATOM     24  C   UNL d   1      15.440  14.564  -0.629  0.00  0.00     0.002 A 
ATOM     25  C   UNL d   1      15.330  14.022  -0.015  0.00  0.00     0.000 A 
ENDBRANCH  13  15
ENDBRANCH   7  12
ENDBRANCH   5   6
ENDBRANCH   4   5
ENDBRANCH   3   4
TORSDOF 5
ENDMDL
