MODEL 1
REMARK VINA RESULT:      -8.3      0.000      0.000
REMARK  5 active torsions:
REMARK  status: ('A' for Active; 'I' for Inactive)
REMARK    1  A    between atoms: C_4  and  S_1 
REMARK    2  A    between atoms: N_6  and  S_1 
REMARK    3  A    between atoms: C_3  and  C_2 
REMARK    4  A    between atoms: C_10  and  N_6 
REMARK    5  A    between atoms: C_17  and  C_10 
ROOT
ATOM      1  C   UNL d   1     -46.973  13.145  22.542  0.00  0.00     0.083 A 
ATOM      2  C   UNL d   1     -48.341  13.026  22.123  0.00  0.00     0.105 A 
ATOM      3  C   UNL d   1     -47.609  13.406  22.073  0.00  0.00     0.018 A 
ATOM      4  C   UNL d   1     -47.075  12.507  23.057  0.00  0.00     0.062 A 
ATOM      5  C   UNL d   1     -48.440  12.391  22.636  0.00  0.00     0.014 A 
ATOM      6  C   UNL d   1     -47.804  12.130  23.105  0.00  0.00     0.012 A 
ATOM      7 CL   UNL d   1     -46.445  12.248  23.521  0.00  0.00    -0.082 Cl
ENDROOT
BRANCH   2   8
ATOM      8  S   UNL d   1     -48.975  13.279  21.662  0.00  0.00     0.285 S 
ATOM      9  O   UNL d   1     -49.604  13.534  21.211  0.00  0.00    -0.198 OA
ATOM     10  O   UNL d   1     -48.778  12.741  21.082  0.00  0.00    -0.198 OA
BRANCH   8  11
ATOM     11  N   UNL d   1     -49.177  13.824  22.246  0.00  0.00    -0.155 NA
BRANCH  11  12
ATOM     12  C   UNL d   1     -49.828  14.326  22.138  0.00  0.00     0.137 C 
BRANCH  12  13
ATOM     13  C   UNL d   1     -50.023  14.875  22.720  0.00  0.00     0.120 A 
ATOM     14  O   UNL d   1     -49.580  15.538  22.949  0.00  0.00    -0.304 OA
ATOM     15  C   UNL d   1     -49.988  15.921  23.546  0.00  0.00     0.123 A 
ATOM     16  C   UNL d   1     -50.681  15.509  23.696  0.00  0.00     0.029 A 
ATOM     17  C   UNL d   1     -50.707  14.861  23.188  0.00  0.00     0.028 A 
ENDBRANCH  12  13
ENDBRANCH  11  12
ENDBRANCH   8  11
ENDBRANCH   2   8
BRANCH   1  18
ATOM     18  C   UNL d   1     -46.244  13.521  22.494  0.00  0.00     0.420 C 
ATOM     19  F   UNL d   1     -45.954  14.206  22.935  0.00  0.00    -0.166 F 
ATOM     20  F   UNL d   1     -45.571  13.870  22.451  0.00  0.00    -0.166 F 
ATOM     21  F   UNL d   1     -45.568  13.339  21.994  0.00  0.00    -0.166 F 
ENDBRANCH   1  18
TORSDOF 5
ENDMDL
MODEL 2
REMARK VINA RESULT:      -7.5      2.649      3.892
REMARK  5 active torsions:
REMARK  status: ('A' for Active; 'I' for Inactive)
REMARK    1  A    between atoms: C_4  and  S_1 
REMARK    2  A    between atoms: N_6  and  S_1 
REMARK    3  A    between atoms: C_3  and  C_2 
REMARK    4  A    between atoms: C_10  and  N_6 
REMARK    5  A    between atoms: C_17  and  C_10 
ROOT
ATOM      1  C   UNL d   1     -49.936  12.766  22.648  0.00  0.00     0.083 A 
ATOM      2  C   UNL d   1     -49.045  13.878  22.477  0.00  0.00     0.105 A 
ATOM      3  C   UNL d   1     -49.416  13.330  22.971  0.00  0.00     0.018 A 
ATOM      4  C   UNL d   1     -50.081  12.757  21.835  0.00  0.00     0.062 A 
ATOM      5  C   UNL d   1     -49.190  13.867  21.668  0.00  0.00     0.014 A 
ATOM      6  C   UNL d   1     -49.710  13.303  21.346  0.00  0.00     0.012 A 
ATOM      7 CL   UNL d   1     -50.596  12.199  21.515  0.00  0.00    -0.082 Cl
ENDROOT
BRANCH   2   8
ATOM      8  S   UNL d   1     -48.528  14.439  22.789  0.00  0.00     0.285 S 
ATOM      9  O   UNL d   1     -48.011  14.988  23.097  0.00  0.00    -0.198 OA
ATOM     10  O   UNL d   1     -49.142  14.966  22.879  0.00  0.00    -0.198 OA
BRANCH   8  11
ATOM     11  N   UNL d   1     -47.904  13.908  22.699  0.00  0.00    -0.155 NA
BRANCH  11  12
ATOM     12  C   UNL d   1     -47.141  14.118  22.947  0.00  0.00     0.137 C 
BRANCH  12  13
ATOM     13  C   UNL d   1     -46.516  13.593  22.838  0.00  0.00     0.120 A 
ATOM     14  O   UNL d   1     -46.353  12.911  23.280  0.00  0.00    -0.304 OA
ATOM     15  C   UNL d   1     -45.679  12.564  22.973  0.00  0.00     0.123 A 
ATOM     16  C   UNL d   1     -45.415  13.017  22.342  0.00  0.00     0.029 A 
ATOM     17  C   UNL d   1     -45.930  13.655  22.255  0.00  0.00     0.028 A 
ENDBRANCH  12  13
ENDBRANCH  11  12
ENDBRANCH   8  11
ENDBRANCH   2   8
BRANCH   1  18
ATOM     18  C   UNL d   1     -50.307  12.220  23.137  0.00  0.00     0.420 C 
ATOM     19  F   UNL d   1     -50.036  11.436  23.381  0.00  0.00    -0.166 F 
ATOM     20  F   UNL d   1     -50.648  11.714  23.589  0.00  0.00    -0.166 F 
ATOM     21  F   UNL d   1     -51.064  12.276  23.542  0.00  0.00    -0.166 F 
ENDBRANCH   1  18
TORSDOF 5
ENDMDL
MODEL 3
REMARK VINA RESULT:      -7.4      2.637      3.826
REMARK  5 active torsions:
REMARK  status: ('A' for Active; 'I' for Inactive)
REMARK    1  A    between atoms: C_4  and  S_1 
REMARK    2  A    between atoms: N_6  and  S_1 
REMARK    3  A    between atoms: C_3  and  C_2 
REMARK    4  A    between atoms: C_10  and  N_6 
REMARK    5  A    between atoms: C_17  and  C_10 
ROOT
ATOM      1  C   UNL d   1     -50.167  13.572  22.663  0.00  0.00     0.083 A 
ATOM      2  C   UNL d   1     -49.381  12.372  22.703  0.00  0.00     0.105 A 
ATOM      3  C   UNL d   1     -49.629  13.075  23.058  0.00  0.00     0.018 A 
ATOM      4  C   UNL d   1     -50.452  13.360  21.917  0.00  0.00     0.062 A 
ATOM      5  C   UNL d   1     -49.666  12.163  21.962  0.00  0.00     0.014 A 
ATOM      6  C   UNL d   1     -50.204  12.659  21.567  0.00  0.00     0.012 A 
ATOM      7 CL   UNL d   1     -50.985  13.852  21.526  0.00  0.00    -0.082 Cl
ENDROOT
BRANCH   2   8
ATOM      8  S   UNL d   1     -48.848  11.875  23.088  0.00  0.00     0.285 S 
ATOM      9  O   UNL d   1     -48.315  11.388  23.467  0.00  0.00    -0.198 OA
ATOM     10  O   UNL d   1     -49.457  11.380  23.309  0.00  0.00    -0.198 OA
BRANCH   8  11
ATOM     11  N   UNL d   1     -48.230  12.373  22.867  0.00  0.00    -0.155 NA
BRANCH  11  12
ATOM     12  C   UNL d   1     -47.466  12.242  23.162  0.00  0.00     0.137 C 
BRANCH  12  13
ATOM     13  C   UNL d   1     -46.847  12.732  22.925  0.00  0.00     0.120 A 
ATOM     14  O   UNL d   1     -46.397  12.667  22.232  0.00  0.00    -0.304 OA
ATOM     15  C   UNL d   1     -45.845  13.272  22.230  0.00  0.00     0.123 A 
ATOM     16  C   UNL d   1     -45.942  13.716  22.912  0.00  0.00     0.029 A 
ATOM     17  C   UNL d   1     -46.561  13.386  23.346  0.00  0.00     0.028 A 
ENDBRANCH  12  13
ENDBRANCH  11  12
ENDBRANCH   8  11
ENDBRANCH   2   8
BRANCH   1  18
ATOM     18  C   UNL d   1     -50.415  14.272  23.014  0.00  0.00     0.420 C 
ATOM     19  F   UNL d   1     -51.032  14.396  23.607  0.00  0.00    -0.166 F 
ATOM     20  F   UNL d   1     -50.645  14.919  23.339  0.00  0.00    -0.166 F 
ATOM     21  F   UNL d   1     -50.131  15.075  22.889  0.00  0.00    -0.166 F 
ENDBRANCH   1  18
TORSDOF 5
ENDMDL
MODEL 4
REMARK VINA RESULT:      -7.1      1.967      2.407
REMARK  5 active torsions:
REMARK  status: ('A' for Active; 'I' for Inactive)
REMARK    1  A    between atoms: C_4  and  S_1 
REMARK    2  A    between atoms: N_6  and  S_1 
REMARK    3  A    between atoms: C_3  and  C_2 
REMARK    4  A    between atoms: C_10  and  N_6 
REMARK    5  A    between atoms: C_17  and  C_10 
ROOT
ATOM      1  C   UNL d   1     -46.126  13.066  22.468  0.00  0.00     0.083 A 
ATOM      2  C   UNL d   1     -47.255  12.474  23.126  0.00  0.00     0.105 A 
ATOM      3  C   UNL d   1     -46.608  12.405  22.618  0.00  0.00     0.018 A 
ATOM      4  C   UNL d   1     -46.297  13.790  22.827  0.00  0.00     0.062 A 
ATOM      5  C   UNL d   1     -47.423  13.195  23.482  0.00  0.00     0.014 A 
ATOM      6  C   UNL d   1     -46.942  13.857  23.332  0.00  0.00     0.012 A 
ATOM      7 CL   UNL d   1     -45.820  14.446  22.678  0.00  0.00    -0.082 Cl
ENDROOT
BRANCH   2   8
ATOM      8  S   UNL d   1     -47.737  11.823  23.280  0.00  0.00     0.285 S 
ATOM      9  O   UNL d   1     -48.219  11.183  23.428  0.00  0.00    -0.198 OA
ATOM     10  O   UNL d   1     -47.133  11.464  23.694  0.00  0.00    -0.198 OA
BRANCH   8  11
ATOM     11  N   UNL d   1     -48.350  12.182  22.863  0.00  0.00    -0.155 NA
BRANCH  11  12
ATOM     12  C   UNL d   1     -49.071  11.786  22.760  0.00  0.00     0.137 C 
BRANCH  12  13
ATOM     13  C   UNL d   1     -49.691  12.160  22.368  0.00  0.00     0.120 A 
ATOM     14  O   UNL d   1     -49.756  12.299  21.553  0.00  0.00    -0.304 OA
ATOM     15  C   UNL d   1     -50.464  12.686  21.416  0.00  0.00     0.123 A 
ATOM     16  C   UNL d   1     -50.846  12.793  22.134  0.00  0.00     0.029 A 
ATOM     17  C   UNL d   1     -50.371  12.469  22.726  0.00  0.00     0.028 A 
ENDBRANCH  12  13
ENDBRANCH  11  12
ENDBRANCH   8  11
ENDBRANCH   2   8
BRANCH   1  18
ATOM     18  C   UNL d   1     -45.481  13.000  21.963  0.00  0.00     0.420 C 
ATOM     19  F   UNL d   1     -45.466  12.975  21.099  0.00  0.00    -0.166 F 
ATOM     20  F   UNL d   1     -44.886  12.939  21.495  0.00  0.00    -0.166 F 
ATOM     21  F   UNL d   1     -44.644  12.939  22.153  0.00  0.00    -0.166 F 
ENDBRANCH   1  18
TORSDOF 5
ENDMDL
MODEL 5
REMARK VINA RESULT:      -6.4      2.710      4.228
REMARK  5 active torsions:
REMARK  status: ('A' for Active; 'I' for Inactive)
REMARK    1  A    between atoms: C_4  and  S_1 
REMARK    2  A    between atoms: N_6  and  S_1 
REMARK    3  A    between atoms: C_3  and  C_2 
REMARK    4  A    between atoms: C_10  and  N_6 
REMARK    5  A    between atoms: C_17  and  C_10 
ROOT
ATOM      1  C   UNL d   1     -48.217  12.680  21.998  0.00  0.00     0.083 A 
ATOM      2  C   UNL d   1     -47.145  13.185  22.808  0.00  0.00     0.105 A 
ATOM      3  C   UNL d   1     -47.632  13.253  22.144  0.00  0.00     0.018 A 
ATOM      4  C   UNL d   1     -48.310  12.044  22.516  0.00  0.00     0.062 A 
ATOM      5  C   UNL d   1     -47.239  12.551  23.323  0.00  0.00     0.014 A 
ATOM      6  C   UNL d   1     -47.824  11.978  23.176  0.00  0.00     0.012 A 
ATOM      7 CL   UNL d   1     -48.889  11.477  22.371  0.00  0.00    -0.082 Cl
ENDROOT
BRANCH   2   8
ATOM      8  S   UNL d   1     -46.563  13.748  22.960  0.00  0.00     0.285 S 
ATOM      9  O   UNL d   1     -45.983  14.301  23.107  0.00  0.00    -0.198 OA
ATOM     10  O   UNL d   1     -47.112  14.227  23.326  0.00  0.00    -0.198 OA
BRANCH   8  11
ATOM     11  N   UNL d   1     -46.006  13.266  22.591  0.00  0.00    -0.155 NA
BRANCH  11  12
ATOM     12  C   UNL d   1     -45.257  13.569  22.400  0.00  0.00     0.137 C 
BRANCH  12  13
ATOM     13  C   UNL d   1     -44.664  13.059  22.141  0.00  0.00     0.120 A 
ATOM     14  O   UNL d   1     -44.405  12.365  22.515  0.00  0.00    -0.304 OA
ATOM     15  C   UNL d   1     -43.807  12.041  22.059  0.00  0.00     0.123 A 
ATOM     16  C   UNL d   1     -43.687  12.520  21.405  0.00  0.00     0.029 A 
ATOM     17  C   UNL d   1     -44.215  13.152  21.451  0.00  0.00     0.028 A 
ENDBRANCH  12  13
ENDBRANCH  11  12
ENDBRANCH   8  11
ENDBRANCH   2   8
BRANCH   1  18
ATOM     18  C   UNL d   1     -48.702  12.747  21.338  0.00  0.00     0.420 C 
ATOM     19  F   UNL d   1     -48.546  12.511  20.521  0.00  0.00    -0.166 F 
ATOM     20  F   UNL d   1     -49.149  12.807  20.727  0.00  0.00    -0.166 F 
ATOM     21  F   UNL d   1     -49.498  13.069  21.276  0.00  0.00    -0.166 F 
ENDBRANCH   1  18
TORSDOF 5
ENDMDL
MODEL 6
REMARK VINA RESULT:      -6.1      8.124      9.765
REMARK  5 active torsions:
REMARK  status: ('A' for Active; 'I' for Inactive)
REMARK    1  A    between atoms: C_4  and  S_1 
REMARK    2  A    between atoms: N_6  and  S_1 
REMARK    3  A    between atoms: C_3  and  C_2 
REMARK    4  A    between atoms: C_10  and  N_6 
REMARK    5  A    between atoms: C_17  and  C_10 
ROOT
ATOM      1  C   UNL d   1     -40.579  15.075  20.179  0.00  0.00     0.083 A 
ATOM      2  C   UNL d   1     -40.202  15.312  18.815  0.00  0.00     0.105 A 
ATOM      3  C   UNL d   1     -40.700  14.950  19.365  0.00  0.00     0.018 A 
ATOM      4  C   UNL d   1     -39.961  15.560  20.434  0.00  0.00     0.062 A 
ATOM      5  C   UNL d   1     -39.588  15.795  19.071  0.00  0.00     0.014 A 
ATOM      6  C   UNL d   1     -39.467  15.919  19.884  0.00  0.00     0.012 A 
ATOM      7 CL   UNL d   1     -39.841  15.683  21.240  0.00  0.00    -0.082 Cl
ENDROOT
BRANCH   2   8
ATOM      8  S   UNL d   1     -40.316  15.194  18.007  0.00  0.00     0.285 S 
ATOM      9  O   UNL d   1     -40.423  15.071  17.209  0.00  0.00    -0.198 OA
ATOM     10  O   UNL d   1     -40.862  15.798  17.987  0.00  0.00    -0.198 OA
BRANCH   8  11
ATOM     11  N   UNL d   1     -39.764  14.582  18.023  0.00  0.00    -0.155 NA
BRANCH  11  12
ATOM     12  C   UNL d   1     -39.609  14.143  17.336  0.00  0.00     0.137 C 
BRANCH  12  13
ATOM     13  C   UNL d   1     -39.055  13.534  17.356  0.00  0.00     0.120 A 
ATOM     14  O   UNL d   1     -39.129  12.804  17.741  0.00  0.00    -0.304 OA
ATOM     15  C   UNL d   1     -38.444  12.377  17.609  0.00  0.00     0.123 A 
ATOM     16  C   UNL d   1     -37.940  12.827  17.146  0.00  0.00     0.029 A 
ATOM     17  C   UNL d   1     -38.313  13.545  16.986  0.00  0.00     0.028 A 
ENDBRANCH  12  13
ENDBRANCH  11  12
ENDBRANCH   8  11
ENDBRANCH   2   8
BRANCH   1  18
ATOM     18  C   UNL d   1     -41.073  14.716  20.729  0.00  0.00     0.420 C 
ATOM     19  F   UNL d   1     -40.999  13.939  21.102  0.00  0.00    -0.166 F 
ATOM     20  F   UNL d   1     -41.528  14.382  21.237  0.00  0.00    -0.166 F 
ATOM     21  F   UNL d   1     -41.798  15.011  21.085  0.00  0.00    -0.166 F 
ENDBRANCH   1  18
TORSDOF 5
ENDMDL
MODEL 7
REMARK VINA RESULT:      -6.0      2.533      3.921
REMARK  5 active torsions:
REMARK  status: ('A' for Active; 'I' for Inactive)
REMARK    1  A    between atoms: C_4  and  S_1 
REMARK    2  A    between atoms: N_6  and  S_1 
REMARK    3  A    between atoms: C_3  and  C_2 
REMARK    4  A    between atoms: C_10  and  N_6 
REMARK    5  A    between atoms: C_17  and  C_10 
ROOT
ATOM      1  C   UNL d   1     -49.110  13.749  21.987  0.00  0.00     0.083 A 
ATOM      2  C   UNL d   1     -47.941  14.095  22.745  0.00  0.00     0.105 A 
ATOM      3  C   UNL d   1     -48.284  13.733  22.086  0.00  0.00     0.018 A 
ATOM      4  C   UNL d   1     -49.585  14.126  22.548  0.00  0.00     0.062 A 
ATOM      5  C   UNL d   1     -48.416  14.469  23.302  0.00  0.00     0.014 A 
ATOM      6  C   UNL d   1     -49.242  14.485  23.203  0.00  0.00     0.012 A 
ATOM      7 CL   UNL d   1     -50.403  14.142  22.450  0.00  0.00    -0.082 Cl
ENDROOT
BRANCH   2   8
ATOM      8  S   UNL d   1     -47.124  14.083  22.850  0.00  0.00     0.285 S 
ATOM      9  O   UNL d   1     -46.316  14.064  22.956  0.00  0.00    -0.198 OA
ATOM     10  O   UNL d   1     -47.074  14.858  22.603  0.00  0.00    -0.198 OA
BRANCH   8  11
ATOM     11  N   UNL d   1     -47.171  13.299  23.100  0.00  0.00    -0.155 NA
BRANCH  11  12
ATOM     12  C   UNL d   1     -46.490  12.905  23.363  0.00  0.00     0.137 C 
BRANCH  12  13
ATOM     13  C   UNL d   1     -46.512  12.092  23.492  0.00  0.00     0.120 A 
ATOM     14  O   UNL d   1     -47.187  11.615  23.560  0.00  0.00    -0.304 OA
ATOM     15  C   UNL d   1     -46.942  10.845  23.685  0.00  0.00     0.123 A 
ATOM     16  C   UNL d   1     -46.122  10.830  23.698  0.00  0.00     0.029 A 
ATOM     17  C   UNL d   1     -45.851  11.600  23.578  0.00  0.00     0.028 A 
ENDBRANCH  12  13
ENDBRANCH  11  12
ENDBRANCH   8  11
ENDBRANCH   2   8
BRANCH   1  18
ATOM     18  C   UNL d   1     -49.454  13.390  21.332  0.00  0.00     0.420 C 
ATOM     19  F   UNL d   1     -50.057  13.699  20.796  0.00  0.00    -0.166 F 
ATOM     20  F   UNL d   1     -49.772  13.060  20.727  0.00  0.00    -0.166 F 
ATOM     21  F   UNL d   1     -49.309  12.610  21.000  0.00  0.00    -0.166 F 
ENDBRANCH   1  18
TORSDOF 5
ENDMDL
MODEL 8
REMARK VINA RESULT:      -6.0      1.745      2.441
REMARK  5 active torsions:
REMARK  status: ('A' for Active; 'I' for Inactive)
REMARK    1  A    between atoms: C_4  and  S_1 
REMARK    2  A    between atoms: N_6  and  S_1 
REMARK    3  A    between atoms: C_3  and  C_2 
REMARK    4  A    between atoms: C_10  and  N_6 
REMARK    5  A    between atoms: C_17  and  C_10 
ROOT
ATOM      1  C   UNL d   1     -46.302  12.513  22.972  0.00  0.00     0.083 A 
ATOM      2  C   UNL d   1     -46.978  13.763  22.768  0.00  0.00     0.105 A 
ATOM      3  C   UNL d   1     -46.938  13.024  23.135  0.00  0.00     0.018 A 
ATOM      4  C   UNL d   1     -45.712  12.747  22.443  0.00  0.00     0.062 A 
ATOM      5  C   UNL d   1     -46.389  13.993  22.243  0.00  0.00     0.014 A 
ATOM      6  C   UNL d   1     -45.753  13.483  22.080  0.00  0.00     0.012 A 
ATOM      7 CL   UNL d   1     -45.081  12.241  22.282  0.00  0.00    -0.082 Cl
ENDROOT
BRANCH   2   8
ATOM      8  S   UNL d   1     -47.605  14.274  22.925  0.00  0.00     0.285 S 
ATOM      9  O   UNL d   1     -48.230  14.775  23.076  0.00  0.00    -0.198 OA
ATOM     10  O   UNL d   1     -47.103  14.782  23.319  0.00  0.00    -0.198 OA
BRANCH   8  11
ATOM     11  N   UNL d   1     -48.115  13.764  22.527  0.00  0.00    -0.155 NA
BRANCH  11  12
ATOM     12  C   UNL d   1     -48.905  13.983  22.397  0.00  0.00     0.137 C 
BRANCH  12  13
ATOM     13  C   UNL d   1     -49.420  13.458  22.027  0.00  0.00     0.120 A 
ATOM     14  O   UNL d   1     -49.482  13.309  21.214  0.00  0.00    -0.304 OA
ATOM     15  C   UNL d   1     -50.066  12.747  21.103  0.00  0.00     0.123 A 
ATOM     16  C   UNL d   1     -50.373  12.540  21.835  0.00  0.00     0.029 A 
ATOM     17  C   UNL d   1     -49.976  12.978  22.411  0.00  0.00     0.028 A 
ENDBRANCH  12  13
ENDBRANCH  11  12
ENDBRANCH   8  11
ENDBRANCH   2   8
BRANCH   1  18
ATOM     18  C   UNL d   1     -46.261  11.778  23.335  0.00  0.00     0.420 C 
ATOM     19  F   UNL d   1     -46.886  11.193  23.454  0.00  0.00    -0.166 F 
ATOM     20  F   UNL d   1     -46.224  11.098  23.671  0.00  0.00    -0.166 F 
ATOM     21  F   UNL d   1     -45.586  11.386  23.698  0.00  0.00    -0.166 F 
ENDBRANCH   1  18
TORSDOF 5
ENDMDL
MODEL 9
REMARK VINA RESULT:      -5.4      8.085      9.283
REMARK  5 active torsions:
REMARK  status: ('A' for Active; 'I' for Inactive)
REMARK    1  A    between atoms: C_4  and  S_1 
REMARK    2  A    between atoms: N_6  and  S_1 
REMARK    3  A    between atoms: C_3  and  C_2 
REMARK    4  A    between atoms: C_10  and  N_6 
REMARK    5  A    between atoms: C_17  and  C_10 
ROOT
ATOM      1  C   UNL d   1     -40.402  14.797  20.544  0.00  0.00     0.083 A 
ATOM      2  C   UNL d   1     -39.515  14.662  19.424  0.00  0.00     0.105 A 
ATOM      3  C   UNL d   1     -40.167  14.394  19.855  0.00  0.00     0.018 A 
ATOM      4  C   UNL d   1     -39.983  15.463  20.796  0.00  0.00     0.062 A 
ATOM      5  C   UNL d   1     -39.100  15.326  19.675  0.00  0.00     0.014 A 
ATOM      6  C   UNL d   1     -39.336  15.728  20.365  0.00  0.00     0.012 A 
ATOM      7 CL   UNL d   1     -40.216  15.861  21.478  0.00  0.00    -0.082 Cl
ENDROOT
BRANCH   2   8
ATOM      8  S   UNL d   1     -39.276  14.269  18.740  0.00  0.00     0.285 S 
ATOM      9  O   UNL d   1     -39.045  13.885  18.059  0.00  0.00    -0.198 OA
ATOM     10  O   UNL d   1     -38.746  13.825  19.171  0.00  0.00    -0.198 OA
BRANCH   8  11
ATOM     11  N   UNL d   1     -39.811  14.717  18.301  0.00  0.00    -0.155 NA
BRANCH  11  12
ATOM     12  C   UNL d   1     -39.913  14.566  17.491  0.00  0.00     0.137 C 
BRANCH  12  13
ATOM     13  C   UNL d   1     -40.459  15.006  17.058  0.00  0.00     0.120 A 
ATOM     14  O   UNL d   1     -41.280  14.898  17.036  0.00  0.00    -0.304 OA
ATOM     15  C   UNL d   1     -41.596  15.462  16.533  0.00  0.00     0.123 A 
ATOM     16  C   UNL d   1     -40.984  15.922  16.239  0.00  0.00     0.029 A 
ATOM     17  C   UNL d   1     -40.278  15.644  16.561  0.00  0.00     0.028 A 
ENDBRANCH  12  13
ENDBRANCH  11  12
ENDBRANCH   8  11
ENDBRANCH   2   8
BRANCH   1  18
ATOM     18  C   UNL d   1     -41.050  14.532  20.975  0.00  0.00     0.420 C 
ATOM     19  F   UNL d   1     -41.834  14.887  21.053  0.00  0.00    -0.166 F 
ATOM     20  F   UNL d   1     -41.649  14.288  21.373  0.00  0.00    -0.166 F 
ATOM     21  F   UNL d   1     -41.127  13.830  21.466  0.00  0.00    -0.166 F 
ENDBRANCH   1  18
TORSDOF 5
ENDMDL
