MODEL 1
REMARK VINA RESULT:      -3.1      0.000      0.000
REMARK  5 active torsions:
REMARK  status: ('A' for Active; 'I' for Inactive)
REMARK    1  A    between atoms: C_2  and  C_1 
REMARK       I    between atoms: N_3  and  C_1 
REMARK    2  A    between atoms: C_8  and  N_3 
REMARK    3  A    between atoms: C_5  and  C_4 
REMARK    4  A    between atoms: O_15  and  C_12 
REMARK    5  A    between atoms: O_16  and  C_13 
ROOT
ATOM      1  C   UNL d   1     -41.711-122.582 -52.058  0.00  0.00     0.279 C 
ATOM      2  N   UNL d   1     -41.798-123.336 -51.678  0.00  0.00    -0.208 NA
ATOM      3  O   UNL d   1     -41.634-121.909 -51.615  0.00  0.00    -0.265 OA
ENDROOT
BRANCH   1   4
ATOM      4  C   UNL d   1     -41.707-122.561 -52.882  0.00  0.00     0.062 A 
ATOM      5  C   UNL d   1     -42.004-121.881 -53.258  0.00  0.00     0.029 A 
ATOM      6  C   UNL d   1     -42.008-121.842 -54.082  0.00  0.00     0.096 A 
ATOM      7  C   UNL d   1     -41.709-122.499 -54.533  0.00  0.00     0.048 A 
ATOM      8  C   UNL d   1     -41.420-123.163 -54.138  0.00  0.00     0.096 A 
ATOM      9  C   UNL d   1     -41.416-123.200 -53.320  0.00  0.00     0.029 A 
BRANCH   6  10
ATOM     10  O   UNL d   1     -42.312-121.146 -54.435  0.00  0.00    -0.328 OA
ATOM     11  C   UNL d   1     -42.509-121.134 -55.248  0.00  0.00     0.181 C 
ENDBRANCH   6  10
BRANCH   8  12
ATOM     12  O   UNL d   1     -41.123-123.817 -54.591  0.00  0.00    -0.328 OA
ATOM     13  C   UNL d   1     -41.135-123.786 -55.415  0.00  0.00     0.181 C 
ENDBRANCH   8  12
ENDBRANCH   1   4
BRANCH   2  14
ATOM     14  C   UNL d   1     -41.800-123.343 -50.851  0.00  0.00     0.085 A 
ATOM     15  C   UNL d   1     -42.509-123.497 -50.457  0.00  0.00     0.022 A 
ATOM     16  C   UNL d   1     -42.559-123.513 -49.674  0.00  0.00     0.041 A 
ATOM     17  C   UNL d   1     -41.853-123.366 -49.210  0.00  0.00     0.003 A 
ATOM     18  C   UNL d   1     -41.140-123.211 -49.592  0.00  0.00     0.002 A 
ATOM     19  C   UNL d   1     -41.124-123.202 -50.417  0.00  0.00     0.019 A 
BRANCH  16  20
ATOM     20  C   UNL d   1     -43.292-123.673 -49.295  0.00  0.00     0.196 C 
ATOM     21  O   UNL d   1     -43.979-123.794 -49.743  0.00  0.00    -0.287 OA
ATOM     22  C   UNL d   1     -43.312-123.705 -48.470  0.00  0.00     0.045 C 
ENDBRANCH  16  20
ENDBRANCH   2  14
TORSDOF 5
ENDMDL
MODEL 2
REMARK VINA RESULT:      -3.0      1.185      4.505
REMARK  5 active torsions:
REMARK  status: ('A' for Active; 'I' for Inactive)
REMARK    1  A    between atoms: C_2  and  C_1 
REMARK       I    between atoms: N_3  and  C_1 
REMARK    2  A    between atoms: C_8  and  N_3 
REMARK    3  A    between atoms: C_5  and  C_4 
REMARK    4  A    between atoms: O_15  and  C_12 
REMARK    5  A    between atoms: O_16  and  C_13 
ROOT
ATOM      1  C   UNL d   1     -41.746-123.108 -52.380  0.00  0.00     0.279 C 
ATOM      2  N   UNL d   1     -41.316-122.675 -52.971  0.00  0.00    -0.208 NA
ATOM      3  O   UNL d   1     -42.248-123.705 -52.597  0.00  0.00    -0.265 OA
ENDROOT
BRANCH   1   4
ATOM      4  C   UNL d   1     -41.635-122.901 -51.590  0.00  0.00     0.062 A 
ATOM      5  C   UNL d   1     -41.437-122.111 -51.416  0.00  0.00     0.029 A 
ATOM      6  C   UNL d   1     -41.323-121.886 -50.630  0.00  0.00     0.096 A 
ATOM      7  C   UNL d   1     -41.409-122.465 -50.013  0.00  0.00     0.048 A 
ATOM      8  C   UNL d   1     -41.605-123.241 -50.209  0.00  0.00     0.096 A 
ATOM      9  C   UNL d   1     -41.719-123.464 -50.990  0.00  0.00     0.029 A 
BRANCH   6  10
ATOM     10  O   UNL d   1     -41.124-121.086 -50.483  0.00  0.00    -0.328 OA
ATOM     11  C   UNL d   1     -41.147-120.522 -51.101  0.00  0.00     0.181 C 
ENDBRANCH   6  10
BRANCH   8  12
ATOM     12  O   UNL d   1     -41.690-123.817 -49.591  0.00  0.00    -0.328 OA
ATOM     13  C   UNL d   1     -41.679-123.577 -48.801  0.00  0.00     0.181 C 
ENDBRANCH   8  12
ENDBRANCH   1   4
BRANCH   2  14
ATOM     14  C   UNL d   1     -41.437-122.892 -53.759  0.00  0.00     0.085 A 
ATOM     15  C   UNL d   1     -41.878-122.393 -54.245  0.00  0.00     0.022 A 
ATOM     16  C   UNL d   1     -42.019-122.558 -54.999  0.00  0.00     0.041 A 
ATOM     17  C   UNL d   1     -41.703-123.283 -55.332  0.00  0.00     0.003 A 
ATOM     18  C   UNL d   1     -41.260-123.789 -54.855  0.00  0.00     0.002 A 
ATOM     19  C   UNL d   1     -41.132-123.583 -54.067  0.00  0.00     0.019 A 
BRANCH  16  20
ATOM     20  C   UNL d   1     -42.472-122.034 -55.476  0.00  0.00     0.196 C 
ATOM     21  O   UNL d   1     -43.293-121.974 -55.371  0.00  0.00    -0.287 OA
ATOM     22  C   UNL d   1     -42.083-121.584 -56.048  0.00  0.00     0.045 C 
ENDBRANCH  16  20
ENDBRANCH   2  14
TORSDOF 5
ENDMDL
MODEL 3
REMARK VINA RESULT:      -2.4      1.249      4.736
REMARK  5 active torsions:
REMARK  status: ('A' for Active; 'I' for Inactive)
REMARK    1  A    between atoms: C_2  and  C_1 
REMARK       I    between atoms: N_3  and  C_1 
REMARK    2  A    between atoms: C_8  and  N_3 
REMARK    3  A    between atoms: C_5  and  C_4 
REMARK    4  A    between atoms: O_15  and  C_12 
REMARK    5  A    between atoms: O_16  and  C_13 
ROOT
ATOM      1  C   UNL d   1     -41.699-122.770 -52.414  0.00  0.00     0.279 C 
ATOM      2  N   UNL d   1     -41.176-122.482 -53.017  0.00  0.00    -0.208 NA
ATOM      3  O   UNL d   1     -42.323-123.248 -52.609  0.00  0.00    -0.265 OA
ENDROOT
BRANCH   1   4
ATOM      4  C   UNL d   1     -41.552-122.547 -51.634  0.00  0.00     0.062 A 
ATOM      5  C   UNL d   1     -41.549-123.142 -51.051  0.00  0.00     0.029 A 
ATOM      6  C   UNL d   1     -41.403-122.938 -50.265  0.00  0.00     0.096 A 
ATOM      7  C   UNL d   1     -41.259-122.123 -50.065  0.00  0.00     0.048 A 
ATOM      8  C   UNL d   1     -41.267-121.552 -50.659  0.00  0.00     0.096 A 
ATOM      9  C   UNL d   1     -41.412-121.756 -51.439  0.00  0.00     0.029 A 
BRANCH   6  10
ATOM     10  O   UNL d   1     -41.405-123.555 -49.699  0.00  0.00    -0.328 OA
ATOM     11  C   UNL d   1     -41.628-123.403 -48.907  0.00  0.00     0.181 C 
ENDBRANCH   6  10
BRANCH   8  12
ATOM     12  O   UNL d   1     -41.123-120.740 -50.455  0.00  0.00    -0.328 OA
ATOM     13  C   UNL d   1     -41.153-120.159 -51.040  0.00  0.00     0.181 C 
ENDBRANCH   8  12
ENDBRANCH   1   4
BRANCH   2  14
ATOM     14  C   UNL d   1     -41.335-122.712 -53.795  0.00  0.00     0.085 A 
ATOM     15  C   UNL d   1     -41.668-122.162 -54.311  0.00  0.00     0.022 A 
ATOM     16  C   UNL d   1     -41.837-122.335 -55.058  0.00  0.00     0.041 A 
ATOM     17  C   UNL d   1     -41.669-123.123 -55.350  0.00  0.00     0.003 A 
ATOM     18  C   UNL d   1     -41.336-123.681 -54.843  0.00  0.00     0.002 A 
ATOM     19  C   UNL d   1     -41.172-123.465 -54.064  0.00  0.00     0.019 A 
BRANCH  16  20
ATOM     20  C   UNL d   1     -42.177-121.757 -55.566  0.00  0.00     0.196 C 
ATOM     21  O   UNL d   1     -42.050-120.949 -55.426  0.00  0.00    -0.287 OA
ATOM     22  C   UNL d   1     -42.636-122.011 -56.202  0.00  0.00     0.045 C 
ENDBRANCH  16  20
ENDBRANCH   2  14
TORSDOF 5
ENDMDL
MODEL 4
REMARK VINA RESULT:      -2.0      0.650      1.543
REMARK  5 active torsions:
REMARK  status: ('A' for Active; 'I' for Inactive)
REMARK    1  A    between atoms: C_2  and  C_1 
REMARK       I    between atoms: N_3  and  C_1 
REMARK    2  A    between atoms: C_8  and  N_3 
REMARK    3  A    between atoms: C_5  and  C_4 
REMARK    4  A    between atoms: O_15  and  C_12 
REMARK    5  A    between atoms: O_16  and  C_13 
ROOT
ATOM      1  C   UNL d   1     -41.574-123.101 -52.121  0.00  0.00     0.279 C 
ATOM      2  N   UNL d   1     -41.872-122.560 -51.539  0.00  0.00    -0.208 NA
ATOM      3  O   UNL d   1     -41.271-123.817 -51.896  0.00  0.00    -0.265 OA
ENDROOT
BRANCH   1   4
ATOM      4  C   UNL d   1     -41.604-122.874 -52.914  0.00  0.00     0.062 A 
ATOM      5  C   UNL d   1     -41.356-123.423 -53.488  0.00  0.00     0.029 A 
ATOM      6  C   UNL d   1     -41.379-123.213 -54.286  0.00  0.00     0.096 A 
ATOM      7  C   UNL d   1     -41.656-122.439 -54.506  0.00  0.00     0.048 A 
ATOM      8  C   UNL d   1     -41.897-121.912 -53.920  0.00  0.00     0.096 A 
ATOM      9  C   UNL d   1     -41.873-122.122 -53.128  0.00  0.00     0.029 A 
BRANCH   6  10
ATOM     10  O   UNL d   1     -41.125-123.784 -54.843  0.00  0.00    -0.328 OA
ATOM     11  C   UNL d   1     -41.470-123.817 -55.605  0.00  0.00     0.181 C 
ENDBRANCH   6  10
BRANCH   8  12
ATOM     12  O   UNL d   1     -42.172-121.141 -54.143  0.00  0.00    -0.328 OA
ATOM     13  C   UNL d   1     -42.594-121.042 -54.845  0.00  0.00     0.181 C 
ENDBRANCH   8  12
ENDBRANCH   1   4
BRANCH   2  14
ATOM     14  C   UNL d   1     -41.836-122.800 -50.749  0.00  0.00     0.085 A 
ATOM     15  C   UNL d   1     -42.517-122.745 -50.286  0.00  0.00     0.022 A 
ATOM     16  C   UNL d   1     -42.531-122.961 -49.532  0.00  0.00     0.041 A 
ATOM     17  C   UNL d   1     -41.813-123.265 -49.174  0.00  0.00     0.003 A 
ATOM     18  C   UNL d   1     -41.127-123.324 -49.627  0.00  0.00     0.002 A 
ATOM     19  C   UNL d   1     -41.150-123.088 -50.417  0.00  0.00     0.019 A 
BRANCH  16  20
ATOM     20  C   UNL d   1     -43.237-122.896 -49.080  0.00  0.00     0.196 C 
ATOM     21  O   UNL d   1     -43.971-122.812 -49.458  0.00  0.00    -0.287 OA
ATOM     22  C   UNL d   1     -43.183-122.917 -48.257  0.00  0.00     0.045 C 
ENDBRANCH  16  20
ENDBRANCH   2  14
TORSDOF 5
ENDMDL
