MODEL 1
REMARK VINA RESULT:      63.8      0.000      0.000
REMARK  7 active torsions:
REMARK  status: ('A' for Active; 'I' for Inactive)
REMARK    1  A    between atoms: N_7  and  S_1 
REMARK    2  A    between atoms: C_19  and  S_1 
REMARK    3  A    between atoms: N_2  and  C_3 
REMARK    4  A    between atoms: C_3  and  C_6 
REMARK    5  A    between atoms: C_5  and  C_3 
REMARK    6  A    between atoms: C_16  and  N_4 
REMARK    7  A    between atoms: C_6  and  N_7 
ROOT
ATOM      1  C   UNL d   1     -48.075  29.923  34.800  0.00  0.00     0.107 C 
ENDROOT
BRANCH   1   2
ATOM      2  N   UNL d   1     -48.534  29.284  34.552  0.00  0.00    -0.298 N 
ATOM      3  C   UNL d   1     -49.128  29.397  33.990  0.00  0.00     0.100 A 
ATOM      4  C   UNL d   1     -49.585  28.758  33.745  0.00  0.00     0.100 A 
ATOM      5  N   UNL d   1     -49.454  28.006  34.054  0.00  0.00    -0.301 N 
ATOM      6  C   UNL d   1     -48.860  27.893  34.615  0.00  0.00     0.100 A 
ATOM      7  C   UNL d   1     -48.401  28.532  34.864  0.00  0.00     0.100 A 
BRANCH   5   8
ATOM      8  C   UNL d   1     -49.909  27.372  33.808  0.00  0.00     0.064 A 
ATOM      9  C   UNL d   1     -49.558  26.649  33.647  0.00  0.00     0.018 A 
ATOM     10  C   UNL d   1     -50.013  26.009  33.399  0.00  0.00     0.002 A 
ATOM     11  C   UNL d   1     -50.829  26.098  33.313  0.00  0.00     0.000 A 
ATOM     12  C   UNL d   1     -51.185  26.825  33.474  0.00  0.00     0.002 A 
ATOM     13  C   UNL d   1     -50.725  27.460  33.721  0.00  0.00     0.018 A 
ENDBRANCH   5   8
ENDBRANCH   1   2
BRANCH   1  14
ATOM     14  C   UNL d   1     -48.003  30.604  34.339  0.00  0.00     0.132 C 
BRANCH  14  15
ATOM     15  N   UNL d   1     -48.012  31.355  34.714  0.00  0.00    -0.155 NA
BRANCH  15  16
ATOM     16  S   UNL d   1     -48.017  32.039  34.259  0.00  0.00     0.286 S 
ATOM     17  O   UNL d   1     -48.807  31.899  34.049  0.00  0.00    -0.198 OA
ATOM     18  O   UNL d   1     -47.225  32.175  34.473  0.00  0.00    -0.198 OA
BRANCH  16  19
ATOM     19  C   UNL d   1     -48.010  32.730  33.804  0.00  0.00     0.117 C 
ATOM     20  C   UNL d   1     -47.304  33.143  33.696  0.00  0.00     0.014 C 
ENDBRANCH  16  19
ENDBRANCH  15  16
ENDBRANCH  14  15
ENDBRANCH   1  14
BRANCH   1  21
ATOM     21  C   UNL d   1     -47.672  29.884  35.535  0.00  0.00     0.118 A 
ATOM     22  O   UNL d   1     -48.093  29.809  36.238  0.00  0.00    -0.304 OA
ATOM     23  C   UNL d   1     -47.548  29.785  36.862  0.00  0.00     0.123 A 
ATOM     24  C   UNL d   1     -46.800  29.845  36.544  0.00  0.00     0.029 A 
ATOM     25  C   UNL d   1     -46.873  29.906  35.723  0.00  0.00     0.028 A 
ENDBRANCH   1  21
TORSDOF 7
ENDMDL
MODEL 2
REMARK VINA RESULT:      64.5      3.009      5.480
REMARK  7 active torsions:
REMARK  status: ('A' for Active; 'I' for Inactive)
REMARK    1  A    between atoms: N_7  and  S_1 
REMARK    2  A    between atoms: C_19  and  S_1 
REMARK    3  A    between atoms: N_2  and  C_3 
REMARK    4  A    between atoms: C_3  and  C_6 
REMARK    5  A    between atoms: C_5  and  C_3 
REMARK    6  A    between atoms: C_16  and  N_4 
REMARK    7  A    between atoms: C_6  and  N_7 
ROOT
ATOM      1  C   UNL d   1     -50.291  26.222  33.630  0.00  0.00     0.107 C 
ENDROOT
BRANCH   1   2
ATOM      2  N   UNL d   1     -49.838  26.827  33.962  0.00  0.00    -0.298 N 
ATOM      3  C   UNL d   1     -49.191  27.130  33.550  0.00  0.00     0.100 A 
ATOM      4  C   UNL d   1     -48.741  27.734  33.884  0.00  0.00     0.100 A 
ATOM      5  N   UNL d   1     -48.932  28.037  34.625  0.00  0.00    -0.301 N 
ATOM      6  C   UNL d   1     -49.579  27.734  35.036  0.00  0.00     0.100 A 
ATOM      7  C   UNL d   1     -50.032  27.129  34.705  0.00  0.00     0.100 A 
BRANCH   5   8
ATOM      8  C   UNL d   1     -48.483  28.637  34.955  0.00  0.00     0.064 A 
ATOM      9  C   UNL d   1     -48.481  29.384  34.618  0.00  0.00     0.018 A 
ATOM     10  C   UNL d   1     -48.030  29.989  34.948  0.00  0.00     0.002 A 
ATOM     11  C   UNL d   1     -47.579  29.842  35.623  0.00  0.00     0.000 A 
ATOM     12  C   UNL d   1     -47.581  29.090  35.964  0.00  0.00     0.002 A 
ATOM     13  C   UNL d   1     -48.032  28.490  35.630  0.00  0.00     0.018 A 
ENDBRANCH   5   8
ENDBRANCH   1   2
BRANCH   1  14
ATOM     14  C   UNL d   1     -51.058  26.361  33.357  0.00  0.00     0.132 C 
BRANCH  14  15
ATOM     15  N   UNL d   1     -51.682  25.867  33.623  0.00  0.00    -0.155 NA
BRANCH  15  16
ATOM     16  S   UNL d   1     -52.462  26.085  33.485  0.00  0.00     0.286 S 
ATOM     17  O   UNL d   1     -52.233  26.880  33.418  0.00  0.00    -0.198 OA
ATOM     18  O   UNL d   1     -52.687  25.288  33.553  0.00  0.00    -0.198 OA
BRANCH  16  19
ATOM     19  C   UNL d   1     -53.251  26.294  33.347  0.00  0.00     0.117 C 
ATOM     20  C   UNL d   1     -53.829  25.705  33.306  0.00  0.00     0.014 C 
ENDBRANCH  16  19
ENDBRANCH  15  16
ENDBRANCH  14  15
ENDBRANCH   1  14
BRANCH   1  21
ATOM     21  C   UNL d   1     -49.969  25.450  33.566  0.00  0.00     0.118 A 
ATOM     22  O   UNL d   1     -50.437  24.823  33.311  0.00  0.00    -0.304 OA
ATOM     23  C   UNL d   1     -49.970  24.139  33.306  0.00  0.00     0.123 A 
ATOM     24  C   UNL d   1     -49.222  24.344  33.556  0.00  0.00     0.029 A 
ATOM     25  C   UNL d   1     -49.219  25.155  33.718  0.00  0.00     0.028 A 
ENDBRANCH   1  21
TORSDOF 7
ENDMDL
