MODEL 1
REMARK VINA RESULT:       1.9      0.000      0.000
REMARK  0 active torsions:
REMARK  status: ('A' for Active; 'I' for Inactive)
ROOT
ATOM      1  C   UNL d   1      24.008  13.387  -0.477  0.00  0.00     0.061 A 
ATOM      2  C   UNL d   1      24.043  14.187  -0.277  0.00  0.00     0.279 A 
ATOM      3  C   UNL d   1      23.289  12.987  -0.446  0.00  0.00     0.045 A 
ATOM      4  N   UNL d   1      23.360  14.582  -0.049  0.00  0.00    -0.206 NA
ATOM      5  C   UNL d   1      23.258  12.183  -0.647  0.00  0.00     0.196 A 
ATOM      6  O   UNL d   1      24.761  14.588  -0.308  0.00  0.00    -0.265 OA
ATOM      7  C   UNL d   1      22.640  14.177  -0.019  0.00  0.00     0.102 A 
ATOM      8  O   UNL d   1      22.539  11.783  -0.617  0.00  0.00    -0.287 OA
ATOM      9  C   UNL d   1      22.612  13.376  -0.220  0.00  0.00     0.024 A 
ATOM     10  C   UNL d   1      24.702  12.988  -0.709  0.00  0.00     0.005 A 
ATOM     11  C   UNL d   1      24.665  12.193  -0.907  0.00  0.00     0.003 A 
ATOM     12  C   UNL d   1      23.946  11.792  -0.876  0.00  0.00     0.042 A 
ENDROOT
TORSDOF 0
ENDMDL
