MODEL 1
REMARK VINA RESULT:      -4.0      0.000      0.000
REMARK  2 active torsions:
REMARK  status: ('A' for Active; 'I' for Inactive)
REMARK    1  A    between atoms: C_10  and  N_3 
REMARK    2  A    between atoms: C_11  and  C_4 
ROOT
ATOM      1  C   UNL d   1      58.329   0.168  31.416  0.00  0.00     0.154 A 
ATOM      2  C   UNL d   1      57.796   0.168  32.037  0.00  0.00     0.094 A 
ATOM      3  N   UNL d   1      57.940  -0.115  30.743  0.00  0.00    -0.290 N 
ATOM      4  C   UNL d   1      57.072  -0.115  31.755  0.00  0.00     0.025 A 
ATOM      5  C   UNL d   1      57.164  -0.288  30.960  0.00  0.00     0.082 A 
ATOM      6  N   UNL d   1      59.105   0.424  31.532  0.00  0.00    -0.206 NA
ATOM      7  C   UNL d   1      58.028   0.425  32.786  0.00  0.00     0.284 A 
ATOM      8  N   UNL d   1      58.805   0.682  32.903  0.00  0.00    -0.186 NA
ATOM      9  C   UNL d   1      59.338   0.681  32.281  0.00  0.00     0.203 A 
ATOM     10  O   UNL d   1      57.495   0.426  33.408  0.00  0.00    -0.265 OA
ENDROOT
BRANCH   3  11
ATOM     11  C   UNL d   1      58.229  -0.221  29.989  0.00  0.00     0.065 A 
ATOM     12  C   UNL d   1      58.169   0.387  29.435  0.00  0.00     0.018 A 
ATOM     13  C   UNL d   1      58.462   0.281  28.670  0.00  0.00     0.002 A 
ATOM     14  C   UNL d   1      58.820  -0.441  28.455  0.00  0.00     0.000 A 
ATOM     15  C   UNL d   1      58.876  -1.045  29.017  0.00  0.00     0.002 A 
ATOM     16  C   UNL d   1      58.582  -0.935  29.779  0.00  0.00     0.018 A 
ENDBRANCH   3  11
BRANCH   4  17
ATOM     17  C   UNL d   1      56.448  -0.161  32.294  0.00  0.00     0.002 A 
ATOM     18  C   UNL d   1      56.307  -0.864  32.705  0.00  0.00     0.000 A 
ATOM     19  C   UNL d   1      55.684  -0.911  33.244  0.00  0.00     0.000 A 
ATOM     20  C   UNL d   1      55.202  -0.256  33.372  0.00  0.00     0.000 A 
ATOM     21  C   UNL d   1      55.344   0.448  32.960  0.00  0.00     0.000 A 
ATOM     22  C   UNL d   1      55.964   0.494  32.424  0.00  0.00     0.000 A 
ENDBRANCH   4  17
TORSDOF 2
ENDMDL
MODEL 2
REMARK VINA RESULT:      -3.8      0.891      3.641
REMARK  2 active torsions:
REMARK  status: ('A' for Active; 'I' for Inactive)
REMARK    1  A    between atoms: C_10  and  N_3 
REMARK    2  A    between atoms: C_11  and  C_4 
ROOT
ATOM      1  C   UNL d   1      57.884   0.302  32.062  0.00  0.00     0.154 A 
ATOM      2  C   UNL d   1      58.301   0.300  31.357  0.00  0.00     0.094 A 
ATOM      3  N   UNL d   1      57.101   0.093  31.898  0.00  0.00    -0.290 N 
ATOM      4  C   UNL d   1      57.780   0.090  30.751  0.00  0.00     0.025 A 
ATOM      5  C   UNL d   1      57.044  -0.037  31.087  0.00  0.00     0.082 A 
ATOM      6  N   UNL d   1      58.263   0.492  32.770  0.00  0.00    -0.206 NA
ATOM      7  C   UNL d   1      59.104   0.489  31.348  0.00  0.00     0.284 A 
ATOM      8  N   UNL d   1      59.484   0.680  32.056  0.00  0.00    -0.186 NA
ATOM      9  C   UNL d   1      59.067   0.682  32.761  0.00  0.00     0.203 A 
ATOM     10  O   UNL d   1      59.522   0.488  30.643  0.00  0.00    -0.265 OA
ENDROOT
BRANCH   3  11
ATOM     11  C   UNL d   1      56.472   0.016  32.410  0.00  0.00     0.065 A 
ATOM     12  C   UNL d   1      56.299  -0.717  32.745  0.00  0.00     0.018 A 
ATOM     13  C   UNL d   1      55.661  -0.795  33.264  0.00  0.00     0.002 A 
ATOM     14  C   UNL d   1      55.190  -0.132  33.452  0.00  0.00     0.000 A 
ATOM     15  C   UNL d   1      55.372   0.599  33.112  0.00  0.00     0.002 A 
ATOM     16  C   UNL d   1      56.009   0.672  32.594  0.00  0.00     0.018 A 
ENDBRANCH   3  11
BRANCH   4  17
ATOM     17  C   UNL d   1      58.086   0.054  29.985  0.00  0.00     0.002 A 
ATOM     18  C   UNL d   1      58.511  -0.612  29.739  0.00  0.00     0.000 A 
ATOM     19  C   UNL d   1      58.817  -0.648  28.974  0.00  0.00     0.000 A 
ATOM     20  C   UNL d   1      58.699  -0.020  28.455  0.00  0.00     0.000 A 
ATOM     21  C   UNL d   1      58.274   0.645  28.702  0.00  0.00     0.000 A 
ATOM     22  C   UNL d   1      57.970   0.682  29.463  0.00  0.00     0.000 A 
ENDBRANCH   4  17
TORSDOF 2
ENDMDL
MODEL 3
REMARK VINA RESULT:      -2.7      1.679      4.278
REMARK  2 active torsions:
REMARK  status: ('A' for Active; 'I' for Inactive)
REMARK    1  A    between atoms: C_10  and  N_3 
REMARK    2  A    between atoms: C_11  and  C_4 
ROOT
ATOM      1  C   UNL d   1      56.043  -0.750  32.868  0.00  0.00     0.154 A 
ATOM      2  C   UNL d   1      56.550  -0.686  32.228  0.00  0.00     0.094 A 
ATOM      3  N   UNL d   1      55.963  -0.001  33.208  0.00  0.00    -0.290 N 
ATOM      4  C   UNL d   1      56.788   0.104  32.167  0.00  0.00     0.025 A 
ATOM      5  C   UNL d   1      56.425   0.522  32.771  0.00  0.00     0.082 A 
ATOM      6  N   UNL d   1      55.713  -1.480  33.067  0.00  0.00    -0.206 NA
ATOM      7  C   UNL d   1      56.736  -1.350  31.775  0.00  0.00     0.284 A 
ATOM      8  N   UNL d   1      56.407  -2.081  31.974  0.00  0.00    -0.186 NA
ATOM      9  C   UNL d   1      55.900  -2.145  32.614  0.00  0.00     0.203 A 
ATOM     10  O   UNL d   1      57.243  -1.285  31.135  0.00  0.00    -0.265 OA
ENDROOT
BRANCH   3  11
ATOM     11  C   UNL d   1      55.521   0.224  33.855  0.00  0.00     0.065 A 
ATOM     12  C   UNL d   1      54.725   0.420  33.764  0.00  0.00     0.018 A 
ATOM     13  C   UNL d   1      54.276   0.648  34.418  0.00  0.00     0.002 A 
ATOM     14  C   UNL d   1      54.627   0.682  35.175  0.00  0.00     0.000 A 
ATOM     15  C   UNL d   1      55.425   0.484  35.257  0.00  0.00     0.002 A 
ATOM     16  C   UNL d   1      55.869   0.257  34.601  0.00  0.00     0.018 A 
ENDBRANCH   3  11
BRANCH   4  17
ATOM     17  C   UNL d   1      57.305   0.296  31.553  0.00  0.00     0.002 A 
ATOM     18  C   UNL d   1      58.121   0.298  31.684  0.00  0.00     0.000 A 
ATOM     19  C   UNL d   1      58.639   0.491  31.071  0.00  0.00     0.000 A 
ATOM     20  C   UNL d   1      58.340   0.680  30.327  0.00  0.00     0.000 A 
ATOM     21  C   UNL d   1      57.524   0.678  30.197  0.00  0.00     0.000 A 
ATOM     22  C   UNL d   1      57.009   0.487  30.807  0.00  0.00     0.000 A 
ENDBRANCH   4  17
TORSDOF 2
ENDMDL
MODEL 4
REMARK VINA RESULT:      -1.7      9.496      9.921
REMARK  2 active torsions:
REMARK  status: ('A' for Active; 'I' for Inactive)
REMARK    1  A    between atoms: C_10  and  N_3 
REMARK    2  A    between atoms: C_11  and  C_4 
ROOT
ATOM      1  C   UNL d   1      59.526  -9.609  32.519  0.00  0.00     0.154 A 
ATOM      2  C   UNL d   1      59.778  -9.479  33.288  0.00  0.00     0.094 A 
ATOM      3  N   UNL d   1      58.701  -9.556  32.507  0.00  0.00    -0.290 N 
ATOM      4  C   UNL d   1      59.111  -9.344  33.757  0.00  0.00     0.025 A 
ATOM      5  C   UNL d   1      58.451  -9.392  33.274  0.00  0.00     0.082 A 
ATOM      6  N   UNL d   1      60.074  -9.761  31.921  0.00  0.00    -0.206 NA
ATOM      7  C   UNL d   1      60.582  -9.499  33.472  0.00  0.00     0.284 A 
ATOM      8  N   UNL d   1      61.131  -9.650  32.874  0.00  0.00    -0.186 NA
ATOM      9  C   UNL d   1      60.879  -9.780  32.105  0.00  0.00     0.203 A 
ATOM     10  O   UNL d   1      60.834  -9.369  34.241  0.00  0.00    -0.265 OA
ENDROOT
BRANCH   3  11
ATOM     11  C   UNL d   1      58.191  -9.641  31.877  0.00  0.00     0.065 A 
ATOM     12  C   UNL d   1      58.487  -9.687  31.109  0.00  0.00     0.018 A 
ATOM     13  C   UNL d   1      57.971  -9.774  30.470  0.00  0.00     0.002 A 
ATOM     14  C   UNL d   1      57.147  -9.816  30.600  0.00  0.00     0.000 A 
ATOM     15  C   UNL d   1      56.860  -9.769  31.373  0.00  0.00     0.002 A 
ATOM     16  C   UNL d   1      57.378  -9.683  32.007  0.00  0.00     0.018 A 
ENDBRANCH   3  11
BRANCH   4  17
ATOM     17  C   UNL d   1      59.237  -9.199  34.560  0.00  0.00     0.002 A 
ATOM     18  C   UNL d   1      59.170  -9.814  35.108  0.00  0.00     0.000 A 
ATOM     19  C   UNL d   1      59.296  -9.669  35.911  0.00  0.00     0.000 A 
ATOM     20  C   UNL d   1      59.488  -8.910  36.165  0.00  0.00     0.000 A 
ATOM     21  C   UNL d   1      59.555  -8.295  35.616  0.00  0.00     0.000 A 
ATOM     22  C   UNL d   1      59.429  -8.439  34.818  0.00  0.00     0.000 A 
ENDBRANCH   4  17
TORSDOF 2
ENDMDL
MODEL 5
REMARK VINA RESULT:      -1.5      1.601      4.139
REMARK  2 active torsions:
REMARK  status: ('A' for Active; 'I' for Inactive)
REMARK    1  A    between atoms: C_10  and  N_3 
REMARK    2  A    between atoms: C_11  and  C_4 
ROOT
ATOM      1  C   UNL d   1      57.820  -0.711  30.734  0.00  0.00     0.154 A 
ATOM      2  C   UNL d   1      58.417  -0.642  30.177  0.00  0.00     0.094 A 
ATOM      3  N   UNL d   1      57.790  -0.007  31.167  0.00  0.00    -0.290 N 
ATOM      4  C   UNL d   1      58.761   0.106  30.260  0.00  0.00     0.025 A 
ATOM      5  C   UNL d   1      58.373   0.493  30.870  0.00  0.00     0.082 A 
ATOM      6  N   UNL d   1      57.375  -1.403  30.784  0.00  0.00    -0.206 NA
ATOM      7  C   UNL d   1      58.578  -1.264  29.660  0.00  0.00     0.284 A 
ATOM      8  N   UNL d   1      58.132  -1.957  29.709  0.00  0.00    -0.186 NA
ATOM      9  C   UNL d   1      57.536  -2.027  30.266  0.00  0.00     0.203 A 
ATOM     10  O   UNL d   1      59.174  -1.195  29.102  0.00  0.00    -0.265 OA
ENDROOT
BRANCH   3  11
ATOM     11  C   UNL d   1      57.294   0.197  31.780  0.00  0.00     0.065 A 
ATOM     12  C   UNL d   1      56.504   0.379  31.630  0.00  0.00     0.018 A 
ATOM     13  C   UNL d   1      56.001   0.586  32.251  0.00  0.00     0.002 A 
ATOM     14  C   UNL d   1      56.290   0.613  33.033  0.00  0.00     0.000 A 
ATOM     15  C   UNL d   1      57.083   0.429  33.175  0.00  0.00     0.002 A 
ATOM     16  C   UNL d   1      57.582   0.223  32.552  0.00  0.00     0.018 A 
ENDBRANCH   3  11
BRANCH   4  17
ATOM     17  C   UNL d   1      59.380   0.296  29.749  0.00  0.00     0.002 A 
ATOM     18  C   UNL d   1      60.160   0.288  30.022  0.00  0.00     0.000 A 
ATOM     19  C   UNL d   1      60.780   0.478  29.510  0.00  0.00     0.000 A 
ATOM     20  C   UNL d   1      60.619   0.675  28.727  0.00  0.00     0.000 A 
ATOM     21  C   UNL d   1      59.838   0.682  28.455  0.00  0.00     0.000 A 
ATOM     22  C   UNL d   1      59.222   0.493  28.963  0.00  0.00     0.000 A 
ENDBRANCH   4  17
TORSDOF 2
ENDMDL
