MODEL 1
REMARK VINA RESULT:      -2.4      0.000      0.000
REMARK  4 active torsions:
REMARK  status: ('A' for Active; 'I' for Inactive)
REMARK    1  A    between atoms: C_2  and  N_1 
REMARK       I    between atoms: C_3  and  N_1 
REMARK    2  A    between atoms: C_6  and  C_3 
REMARK    3  A    between atoms: O_7  and  C_6 
REMARK    4  A    between atoms: C_9  and  O_7 
ROOT
ATOM      1  C   UNL d   1      31.172  17.304 -24.618  0.00  0.00     0.158 C 
ATOM      2  C   UNL d   1      31.012  17.958 -25.079  0.00  0.00     0.032 C 
ENDROOT
BRANCH   1   3
ATOM      3  C   UNL d   1      30.585  16.742 -24.480  0.00  0.00     0.304 C 
ATOM      4  N   UNL d   1      29.821  16.978 -24.306  0.00  0.00    -0.181 NA
ATOM      5  O   UNL d   1      30.770  15.939 -24.518  0.00  0.00    -0.263 OA
BRANCH   4   6
ATOM      6  C   UNL d   1      29.233  16.417 -24.168  0.00  0.00     0.197 A 
ATOM      7  N   UNL d   1      28.889  15.925 -24.739  0.00  0.00    -0.219 NA
ATOM      8  C   UNL d   1      28.329  15.453 -24.364  0.00  0.00     0.108 A 
ATOM      9  C   UNL d   1      28.325  15.651 -23.554  0.00  0.00     0.059 A 
ATOM     10  S   UNL d   1      28.883  16.245 -23.438  0.00  0.00    -0.046 SA
ENDBRANCH   4   6
ENDBRANCH   1   3
BRANCH   1  11
ATOM     11  O   UNL d   1      31.924  17.207 -24.292  0.00  0.00    -0.302 OA
BRANCH  11  12
ATOM     12  C   UNL d   1      32.357  17.864 -24.048  0.00  0.00     0.100 A 
ATOM     13  C   UNL d   1      32.711  18.362 -24.610  0.00  0.00     0.025 A 
ATOM     14  C   UNL d   1      33.144  19.020 -24.358  0.00  0.00     0.002 A 
ATOM     15  C   UNL d   1      33.227  19.185 -23.554  0.00  0.00     0.000 A 
ATOM     16  C   UNL d   1      32.878  18.694 -22.993  0.00  0.00     0.002 A 
ATOM     17  C   UNL d   1      32.440  18.030 -23.236  0.00  0.00     0.025 A 
ENDBRANCH  11  12
ENDBRANCH   1  11
TORSDOF 4
ENDMDL
MODEL 2
REMARK VINA RESULT:      -2.2      1.488      4.155
REMARK  4 active torsions:
REMARK  status: ('A' for Active; 'I' for Inactive)
REMARK    1  A    between atoms: C_2  and  N_1 
REMARK       I    between atoms: C_3  and  N_1 
REMARK    2  A    between atoms: C_6  and  C_3 
REMARK    3  A    between atoms: O_7  and  C_6 
REMARK    4  A    between atoms: C_9  and  O_7 
ROOT
ATOM      1  C   UNL d   1      30.410  16.713 -24.605  0.00  0.00     0.158 C 
ATOM      2  C   UNL d   1      29.899  17.147 -25.069  0.00  0.00     0.032 C 
ENDROOT
BRANCH   1   3
ATOM      3  C   UNL d   1      31.161  17.006 -24.433  0.00  0.00     0.304 C 
ATOM      4  N   UNL d   1      31.276  17.808 -24.315  0.00  0.00    -0.181 NA
ATOM      5  O   UNL d   1      31.801  16.487 -24.381  0.00  0.00    -0.263 OA
BRANCH   4   6
ATOM      6  C   UNL d   1      32.026  18.101 -24.144  0.00  0.00     0.197 A 
ATOM      7  N   UNL d   1      32.377  18.125 -23.393  0.00  0.00    -0.219 NA
ATOM      8  C   UNL d   1      33.125  18.459 -23.472  0.00  0.00     0.108 A 
ATOM      9  C   UNL d   1      33.241  18.645 -24.277  0.00  0.00     0.059 A 
ATOM     10  S   UNL d   1      32.562  18.423 -24.687  0.00  0.00    -0.046 SA
ENDBRANCH   4   6
ENDBRANCH   1   3
BRANCH   1  11
ATOM     11  O   UNL d   1      30.172  15.981 -24.308  0.00  0.00    -0.302 OA
BRANCH  11  12
ATOM     12  C   UNL d   1      29.390  15.861 -24.081  0.00  0.00     0.100 A 
ATOM     13  C   UNL d   1      29.152  16.025 -23.303  0.00  0.00     0.025 A 
ATOM     14  C   UNL d   1      28.364  15.902 -23.081  0.00  0.00     0.002 A 
ATOM     15  C   UNL d   1      27.815  15.618 -23.627  0.00  0.00     0.000 A 
ATOM     16  C   UNL d   1      28.046  15.454 -24.400  0.00  0.00     0.002 A 
ATOM     17  C   UNL d   1      28.835  15.574 -24.632  0.00  0.00     0.025 A 
ENDBRANCH  11  12
ENDBRANCH   1  11
TORSDOF 4
ENDMDL
MODEL 3
REMARK VINA RESULT:      -2.0      2.639      3.806
REMARK  4 active torsions:
REMARK  status: ('A' for Active; 'I' for Inactive)
REMARK    1  A    between atoms: C_2  and  N_1 
REMARK       I    between atoms: C_3  and  N_1 
REMARK    2  A    between atoms: C_6  and  C_3 
REMARK    3  A    between atoms: O_7  and  C_6 
REMARK    4  A    between atoms: C_9  and  O_7 
ROOT
ATOM      1  C   UNL d   1      33.091  19.537 -22.615  0.00  0.00     0.158 C 
ATOM      2  C   UNL d   1      33.241  20.077 -23.208  0.00  0.00     0.032 C 
ENDROOT
BRANCH   1   3
ATOM      3  C   UNL d   1      32.973  18.743 -22.798  0.00  0.00     0.304 C 
ATOM      4  N   UNL d   1      32.592  18.531 -23.491  0.00  0.00    -0.181 NA
ATOM      5  O   UNL d   1      33.240  18.159 -22.280  0.00  0.00    -0.263 OA
BRANCH   4   6
ATOM      6  C   UNL d   1      32.474  17.737 -23.675  0.00  0.00     0.197 A 
ATOM      7  N   UNL d   1      31.801  17.291 -23.486  0.00  0.00    -0.219 NA
ATOM      8  C   UNL d   1      31.913  16.527 -23.772  0.00  0.00     0.108 A 
ATOM      9  C   UNL d   1      32.660  16.497 -24.142  0.00  0.00     0.059 A 
ATOM     10  S   UNL d   1      33.002  17.244 -24.080  0.00  0.00    -0.046 SA
ENDBRANCH   4   6
ENDBRANCH   1   3
BRANCH   1  11
ATOM     11  O   UNL d   1      33.059  19.792 -21.830  0.00  0.00    -0.302 OA
BRANCH  11  12
ATOM     12  C   UNL d   1      32.926  20.586 -21.657  0.00  0.00     0.100 A 
ATOM     13  C   UNL d   1      32.480  20.798 -20.989  0.00  0.00     0.025 A 
ATOM     14  C   UNL d   1      32.351  21.598 -20.822  0.00  0.00     0.002 A 
ATOM     15  C   UNL d   1      32.661  22.185 -21.311  0.00  0.00     0.000 A 
ATOM     16  C   UNL d   1      33.104  21.979 -21.974  0.00  0.00     0.002 A 
ATOM     17  C   UNL d   1      33.239  21.179 -22.152  0.00  0.00     0.025 A 
ENDBRANCH  11  12
ENDBRANCH   1  11
TORSDOF 4
ENDMDL
MODEL 4
REMARK VINA RESULT:      -2.0      4.121      5.463
REMARK  4 active torsions:
REMARK  status: ('A' for Active; 'I' for Inactive)
REMARK    1  A    between atoms: C_2  and  N_1 
REMARK       I    between atoms: C_3  and  N_1 
REMARK    2  A    between atoms: C_6  and  C_3 
REMARK    3  A    between atoms: O_7  and  C_6 
REMARK    4  A    between atoms: C_9  and  O_7 
ROOT
ATOM      1  C   UNL d   1      32.789  21.141 -21.525  0.00  0.00     0.158 C 
ATOM      2  C   UNL d   1      32.225  20.945 -20.968  0.00  0.00     0.032 C 
ENDROOT
BRANCH   1   3
ATOM      3  C   UNL d   1      32.950  20.626 -22.148  0.00  0.00     0.304 C 
ATOM      4  N   UNL d   1      32.823  19.821 -22.063  0.00  0.00    -0.181 NA
ATOM      5  O   UNL d   1      33.241  20.924 -22.860  0.00  0.00    -0.263 OA
BRANCH   4   6
ATOM      6  C   UNL d   1      32.984  19.306 -22.685  0.00  0.00     0.197 A 
ATOM      7  N   UNL d   1      33.093  19.523 -23.478  0.00  0.00    -0.219 NA
ATOM      8  C   UNL d   1      33.241  18.839 -23.910  0.00  0.00     0.108 A 
ATOM      9  C   UNL d   1      33.224  18.192 -23.384  0.00  0.00     0.059 A 
ATOM     10  S   UNL d   1      33.065  18.484 -22.631  0.00  0.00    -0.046 SA
ENDBRANCH   4   6
ENDBRANCH   1   3
BRANCH   1  11
ATOM     11  O   UNL d   1      33.196  21.856 -21.461  0.00  0.00    -0.302 OA
BRANCH  11  12
ATOM     12  C   UNL d   1      32.963  22.416 -20.905  0.00  0.00     0.100 A 
ATOM     13  C   UNL d   1      32.475  23.050 -21.130  0.00  0.00     0.025 A 
ATOM     14  C   UNL d   1      32.245  23.609 -20.566  0.00  0.00     0.002 A 
ATOM     15  C   UNL d   1      32.496  23.544 -19.783  0.00  0.00     0.000 A 
ATOM     16  C   UNL d   1      32.980  22.918 -19.556  0.00  0.00     0.002 A 
ATOM     17  C   UNL d   1      33.217  22.350 -20.114  0.00  0.00     0.025 A 
ENDBRANCH  11  12
ENDBRANCH   1  11
TORSDOF 4
ENDMDL
MODEL 5
REMARK VINA RESULT:      -1.9      2.664      4.450
REMARK  4 active torsions:
REMARK  status: ('A' for Active; 'I' for Inactive)
REMARK    1  A    between atoms: C_2  and  N_1 
REMARK       I    between atoms: C_3  and  N_1 
REMARK    2  A    between atoms: C_6  and  C_3 
REMARK    3  A    between atoms: O_7  and  C_6 
REMARK    4  A    between atoms: C_9  and  O_7 
ROOT
ATOM      1  C   UNL d   1      32.830  18.178 -23.626  0.00  0.00     0.158 C 
ATOM      2  C   UNL d   1      33.189  17.952 -24.323  0.00  0.00     0.032 C 
ENDROOT
BRANCH   1   3
ATOM      3  C   UNL d   1      32.923  18.946 -23.343  0.00  0.00     0.304 C 
ATOM      4  N   UNL d   1      33.001  19.085 -22.540  0.00  0.00    -0.181 NA
ATOM      5  O   UNL d   1      32.937  19.578 -23.873  0.00  0.00    -0.263 OA
BRANCH   4   6
ATOM      6  C   UNL d   1      33.093  19.852 -22.257  0.00  0.00     0.197 A 
ATOM      7  N   UNL d   1      33.155  20.536 -22.721  0.00  0.00    -0.219 NA
ATOM      8  C   UNL d   1      33.241  21.180 -22.216  0.00  0.00     0.108 A 
ATOM      9  C   UNL d   1      33.233  20.896 -21.432  0.00  0.00     0.059 A 
ATOM     10  S   UNL d   1      33.142  20.078 -21.462  0.00  0.00    -0.046 SA
ENDBRANCH   4   6
ENDBRANCH   1   3
BRANCH   1  11
ATOM     11  O   UNL d   1      32.373  17.633 -23.207  0.00  0.00    -0.302 OA
BRANCH  11  12
ATOM     12  C   UNL d   1      32.078  16.963 -23.583  0.00  0.00     0.100 A 
ATOM     13  C   UNL d   1      32.522  16.261 -23.593  0.00  0.00     0.025 A 
ATOM     14  C   UNL d   1      32.219  15.592 -23.973  0.00  0.00     0.002 A 
ATOM     15  C   UNL d   1      31.482  15.616 -24.343  0.00  0.00     0.000 A 
ATOM     16  C   UNL d   1      31.039  16.310 -24.336  0.00  0.00     0.002 A 
ATOM     17  C   UNL d   1      31.333  16.988 -23.956  0.00  0.00     0.025 A 
ENDBRANCH  11  12
ENDBRANCH   1  11
TORSDOF 4
ENDMDL
