MODEL 1
REMARK VINA RESULT:      50.5      0.000      0.000
REMARK  6 active torsions:
REMARK  status: ('A' for Active; 'I' for Inactive)
REMARK    1  A    between atoms: C_7  and  C_1 
REMARK    2  A    between atoms: S_9  and  C_2 
REMARK    3  A    between atoms: C_11  and  C_4 
REMARK    4  A    between atoms: C_15  and  S_9 
REMARK    5  A    between atoms: C_12  and  C_15 
REMARK    6  A    between atoms: O_21  and  C_12 
ROOT
ATOM      1  C   UNL d   1      46.200 -17.634  42.483  0.00  0.00     0.045 A 
ATOM      2  C   UNL d   1      46.393 -18.316  42.071  0.00  0.00     0.112 A 
ATOM      3  C   UNL d   1      46.301 -18.355  43.722  0.00  0.00     0.057 A 
ATOM      4  C   UNL d   1      46.152 -17.645  43.306  0.00  0.00     0.008 A 
ATOM      5  C   UNL d   1      46.495 -19.036  43.311  0.00  0.00     0.085 A 
ATOM      6  N   UNL d   1      46.543 -19.023  42.473  0.00  0.00    -0.239 NA
ATOM      7  C   UNL d   1      46.252 -18.360  44.536  0.00  0.00     0.197 A 
ATOM      8  O   UNL d   1      46.056 -17.669  44.953  0.00  0.00    -0.286 OA
ATOM      9  C   UNL d   1      46.644 -19.738  43.703  0.00  0.00     0.019 A 
ATOM     10  C   UNL d   1      46.401 -19.063  44.941  0.00  0.00     0.042 A 
ATOM     11  C   UNL d   1      46.594 -19.744  44.529  0.00  0.00     0.005 A 
ENDROOT
BRANCH   4  12
ATOM     12  C   UNL d   1      45.960 -16.969  43.715  0.00  0.00     0.000 A 
ATOM     13  C   UNL d   1      45.171 -16.763  43.818  0.00  0.00     0.000 A 
ATOM     14  C   UNL d   1      44.978 -16.082  44.230  0.00  0.00     0.000 A 
ATOM     15  C   UNL d   1      45.572 -15.606  44.538  0.00  0.00     0.000 A 
ATOM     16  C   UNL d   1      46.374 -15.810  44.436  0.00  0.00     0.000 A 
ATOM     17  C   UNL d   1      45.377 -14.919  44.953  0.00  0.00     0.000 C 
ATOM     18  C   UNL d   1      46.567 -16.491  44.025  0.00  0.00     0.000 A 
ENDBRANCH   4  12
BRANCH   1  19
ATOM     19  C   UNL d   1      46.050 -16.922  42.061  0.00  0.00     0.124 C 
ATOM     20  N   UNL d   1      45.660 -16.957  41.329  0.00  0.00    -0.146 N 
ENDBRANCH   1  19
BRANCH   2  21
ATOM     21  S   UNL d   1      46.447 -18.320  41.217  0.00  0.00    -0.062 SA
BRANCH  21  22
ATOM     22  C   UNL d   1      46.638 -19.013  40.831  0.00  0.00     0.105 C 
BRANCH  22  23
ATOM     23  C   UNL d   1      46.142 -19.304  40.231  0.00  0.00     0.303 C 
ATOM     24  O   UNL d   1      45.892 -18.816  39.613  0.00  0.00    -0.259 OA
BRANCH  23  25
ATOM     25  O   UNL d   1      45.897 -20.084  40.252  0.00  0.00    -0.295 OA
ATOM     26  C   UNL d   1      45.353 -20.328  40.832  0.00  0.00     0.185 C 
ENDBRANCH  23  25
ENDBRANCH  22  23
ENDBRANCH  21  22
ENDBRANCH   2  21
TORSDOF 6
ENDMDL
MODEL 2
REMARK VINA RESULT:      51.4      6.072      7.596
REMARK  6 active torsions:
REMARK  status: ('A' for Active; 'I' for Inactive)
REMARK    1  A    between atoms: C_7  and  C_1 
REMARK    2  A    between atoms: S_9  and  C_2 
REMARK    3  A    between atoms: C_11  and  C_4 
REMARK    4  A    between atoms: C_15  and  S_9 
REMARK    5  A    between atoms: C_12  and  C_15 
REMARK    6  A    between atoms: O_21  and  C_12 
ROOT
ATOM      1  C   UNL d   1      44.104 -14.213  37.963  0.00  0.00     0.045 A 
ATOM      2  C   UNL d   1      44.667 -13.683  38.234  0.00  0.00     0.112 A 
ATOM      3  C   UNL d   1      45.098 -14.850  37.144  0.00  0.00     0.057 A 
ATOM      4  C   UNL d   1      44.311 -14.798  37.420  0.00  0.00     0.008 A 
ATOM      5  C   UNL d   1      45.661 -14.320  37.415  0.00  0.00     0.085 A 
ATOM      6  N   UNL d   1      45.449 -13.726  37.968  0.00  0.00    -0.239 NA
ATOM      7  C   UNL d   1      45.297 -15.430  36.607  0.00  0.00     0.197 A 
ATOM      8  O   UNL d   1      44.726 -15.968  36.332  0.00  0.00    -0.286 OA
ATOM      9  C   UNL d   1      46.436 -14.358  37.155  0.00  0.00     0.019 A 
ATOM     10  C   UNL d   1      46.076 -15.477  36.339  0.00  0.00     0.042 A 
ATOM     11  C   UNL d   1      46.638 -14.947  36.610  0.00  0.00     0.005 A 
ENDROOT
BRANCH   4  12
ATOM     12  C   UNL d   1      43.752 -15.324  37.151  0.00  0.00     0.000 A 
ATOM     13  C   UNL d   1      43.984 -15.983  36.718  0.00  0.00     0.000 A 
ATOM     14  C   UNL d   1      43.421 -16.513  36.447  0.00  0.00     0.000 A 
ATOM     15  C   UNL d   1      42.626 -16.384  36.608  0.00  0.00     0.000 A 
ATOM     16  C   UNL d   1      42.385 -15.718  37.046  0.00  0.00     0.000 A 
ATOM     17  C   UNL d   1      42.058 -16.918  36.335  0.00  0.00     0.000 C 
ATOM     18  C   UNL d   1      42.947 -15.188  37.317  0.00  0.00     0.000 A 
ENDBRANCH   4  12
BRANCH   1  19
ATOM     19  C   UNL d   1      43.312 -14.158  38.242  0.00  0.00     0.124 C 
ATOM     20  N   UNL d   1      42.982 -13.409  38.385  0.00  0.00    -0.146 N 
ENDBRANCH   1  19
BRANCH   2  21
ATOM     21  S   UNL d   1      44.467 -13.070  38.798  0.00  0.00    -0.062 SA
BRANCH  21  22
ATOM     22  C   UNL d   1      45.065 -12.650  39.160  0.00  0.00     0.105 C 
BRANCH  22  23
ATOM     23  C   UNL d   1      45.006 -12.458  39.967  0.00  0.00     0.303 C 
ATOM     24  O   UNL d   1      44.321 -12.111  40.271  0.00  0.00    -0.259 OA
BRANCH  23  25
ATOM     25  O   UNL d   1      45.635 -12.615  40.466  0.00  0.00    -0.295 OA
ATOM     26  C   UNL d   1      45.726 -12.171  41.163  0.00  0.00     0.185 C 
ENDBRANCH  23  25
ENDBRANCH  22  23
ENDBRANCH  21  22
ENDBRANCH   2  21
TORSDOF 6
ENDMDL
