MODEL 1
REMARK VINA RESULT:      15.7      0.000      0.000
REMARK  7 active torsions:
REMARK  status: ('A' for Active; 'I' for Inactive)
REMARK    1  A    between atoms: C_6  and  C_1 
REMARK    2  A    between atoms: O_18  and  C_6 
REMARK    3  A    between atoms: C_7  and  C_11 
REMARK    4  A    between atoms: O_19  and  C_7 
REMARK    5  A    between atoms: O_10  and  C_12 
REMARK    6  A    between atoms: C_11  and  O_10 
REMARK    7  A    between atoms: C_21  and  O_18 
ROOT
ATOM      1  C   UNL d   1      46.440 -18.855  42.802  0.00  0.00     0.081 A 
ATOM      2  C   UNL d   1      46.397 -19.643  43.049  0.00  0.00     0.069 A 
ATOM      3  N   UNL d   1      46.280 -19.644  43.861  0.00  0.00    -0.304 N 
ATOM      4  C   UNL d   1      46.350 -18.376  43.458  0.00  0.00     0.025 A 
ATOM      5  C   UNL d   1      46.251 -18.864  44.113  0.00  0.00     0.064 A 
ATOM      6  C   UNL d   1      46.147 -18.536  44.859  0.00  0.00     0.020 A 
ATOM      7  C   UNL d   1      46.345 -17.560  43.549  0.00  0.00     0.026 A 
ATOM      8  C   UNL d   1      46.239 -17.230  44.306  0.00  0.00     0.100 A 
ATOM      9  C   UNL d   1      46.141 -17.713  44.954  0.00  0.00     0.026 A 
ATOM     10  C   UNL d   1      46.460 -20.307  42.568  0.00  0.00     0.019 C 
ATOM     11  C   UNL d   1      46.205 -20.319  44.339  0.00  0.00     0.099 C 
ENDROOT
BRANCH   8  12
ATOM     12  O   UNL d   1      46.234 -16.406  44.393  0.00  0.00    -0.302 OA
BRANCH  12  13
ATOM     13  C   UNL d   1      45.531 -16.028  44.601  0.00  0.00     0.163 C 
ATOM     14  C   UNL d   1      44.852 -16.473  44.762  0.00  0.00     0.032 C 
BRANCH  13  15
ATOM     15  C   UNL d   1      45.504 -15.204  44.648  0.00  0.00     0.319 C 
ATOM     16  O   UNL d   1      44.818 -14.822  44.909  0.00  0.00    -0.257 OA
BRANCH  15  17
ATOM     17  O   UNL d   1      46.158 -14.753  44.437  0.00  0.00    -0.294 OA
ATOM     18  C   UNL d   1      46.076 -13.942  44.313  0.00  0.00     0.185 C 
ENDBRANCH  15  17
ENDBRANCH  13  15
ENDBRANCH  12  13
ENDBRANCH   8  12
BRANCH   1  19
ATOM     19  C   UNL d   1      46.554 -18.595  42.025  0.00  0.00     0.302 C 
ATOM     20  O   UNL d   1      46.647 -17.787  41.875  0.00  0.00    -0.259 OA
BRANCH  19  21
ATOM     21  O   UNL d   1      46.576 -19.134  41.407  0.00  0.00    -0.271 OA
BRANCH  21  22
ATOM     22  C   UNL d   1      46.380 -18.892  40.643  0.00  0.00     0.126 C 
ATOM     23  C   UNL d   1      46.641 -19.330  39.995  0.00  0.00     0.029 C 
ENDBRANCH  21  22
ENDBRANCH  19  21
ENDBRANCH   1  19
TORSDOF 7
ENDMDL
