MODEL 1
REMARK VINA RESULT:       4.7      0.000      0.000
REMARK  6 active torsions:
REMARK  status: ('A' for Active; 'I' for Inactive)
REMARK    1  A    between atoms: C_9  and  C_3 
REMARK    2  A    between atoms: C_8  and  C_5 
REMARK    3  A    between atoms: O_19  and  C_9 
REMARK    4  A    between atoms: C_22  and  O_19 
REMARK    5  A    between atoms: O_21  and  C_23 
REMARK    6  A    between atoms: C_23  and  C_22 
ROOT
ATOM      1  N   UNL d   1      32.620  22.218 -20.296  0.00  0.00    -0.254 N 
ATOM      2  C   UNL d   1      32.635  23.042 -20.218  0.00  0.00     0.182 A 
ATOM      3  C   UNL d   1      32.489  22.355 -21.711  0.00  0.00     0.098 A 
ATOM      4  N   UNL d   1      32.576  23.517 -20.890  0.00  0.00    -0.222 NA
ATOM      5  C   UNL d   1      32.548  21.871 -21.041  0.00  0.00     0.081 A 
ATOM      6  C   UNL d   1      32.503  23.179 -21.638  0.00  0.00     0.090 A 
ATOM      7  C   UNL d   1      32.679  21.743 -19.624  0.00  0.00     0.267 A 
ATOM      8  S   UNL d   1      32.707  23.389 -19.478  0.00  0.00    -0.049 SA
ATOM      9  C   UNL d   1      32.751  22.090 -18.880  0.00  0.00     0.068 A 
ATOM     10  O   UNL d   1      32.665  20.919 -19.698  0.00  0.00    -0.267 OA
ATOM     11  C   UNL d   1      32.766  22.914 -18.806  0.00  0.00     0.043 A 
ATOM     12  C   UNL d   1      32.445  23.659 -22.305  0.00  0.00     0.021 C 
ENDROOT
BRANCH   3  13
ATOM     13  C   UNL d   1      32.417  22.012 -22.456  0.00  0.00     0.303 C 
ATOM     14  O   UNL d   1      31.763  21.539 -22.637  0.00  0.00    -0.259 OA
BRANCH  13  15
ATOM     15  O   UNL d   1      32.998  22.138 -23.028  0.00  0.00    -0.269 OA
BRANCH  15  16
ATOM     16  C   UNL d   1      33.154  21.562 -23.603  0.00  0.00     0.152 C 
BRANCH  16  17
ATOM     17  C   UNL d   1      33.238  21.778 -24.397  0.00  0.00     0.143 C 
BRANCH  17  18
ATOM     18  O   UNL d   1      32.959  21.272 -24.992  0.00  0.00    -0.324 OA
ATOM     19  C   UNL d   1      33.226  20.493 -25.031  0.00  0.00     0.182 C 
ENDBRANCH  17  18
ENDBRANCH  16  17
ENDBRANCH  15  16
ENDBRANCH  13  15
ENDBRANCH   3  13
BRANCH   5  20
ATOM     20  C   UNL d   1      32.533  21.048 -21.114  0.00  0.00     0.046 A 
ATOM     21  S   UNL d   1      31.917  20.518 -21.254  0.00  0.00    -0.085 SA
ATOM     22  C   UNL d   1      32.238  19.758 -21.271  0.00  0.00     0.035 A 
ATOM     23  C   UNL d   1      33.049  19.821 -21.141  0.00  0.00     0.007 A 
ATOM     24  C   UNL d   1      33.232  20.615 -21.044  0.00  0.00     0.009 A 
ENDBRANCH   5  20
TORSDOF 6
ENDMDL
MODEL 2
REMARK VINA RESULT:       5.1      4.838      6.551
REMARK  6 active torsions:
REMARK  status: ('A' for Active; 'I' for Inactive)
REMARK    1  A    between atoms: C_9  and  C_3 
REMARK    2  A    between atoms: C_8  and  C_5 
REMARK    3  A    between atoms: O_19  and  C_9 
REMARK    4  A    between atoms: C_22  and  O_19 
REMARK    5  A    between atoms: O_21  and  C_23 
REMARK    6  A    between atoms: C_23  and  C_22 
ROOT
ATOM      1  N   UNL d   1      31.709  18.053 -24.598  0.00  0.00    -0.254 N 
ATOM      2  C   UNL d   1      32.491  17.883 -24.386  0.00  0.00     0.182 A 
ATOM      3  C   UNL d   1      31.328  16.720 -24.257  0.00  0.00     0.098 A 
ATOM      4  N   UNL d   1      32.686  17.131 -24.110  0.00  0.00    -0.222 NA
ATOM      5  C   UNL d   1      31.126  17.474 -24.535  0.00  0.00     0.081 A 
ATOM      6  C   UNL d   1      32.109  16.546 -24.044  0.00  0.00     0.090 A 
ATOM      7  C   UNL d   1      31.514  18.805 -24.874  0.00  0.00     0.267 A 
ATOM      8  S   UNL d   1      33.073  18.459 -24.448  0.00  0.00    -0.049 SA
ATOM      9  C   UNL d   1      32.098  19.385 -24.937  0.00  0.00     0.068 A 
ATOM     10  O   UNL d   1      30.734  18.978 -25.088  0.00  0.00    -0.267 OA
ATOM     11  C   UNL d   1      32.878  19.211 -24.724  0.00  0.00     0.043 A 
ATOM     12  C   UNL d   1      32.310  15.797 -23.767  0.00  0.00     0.021 C 
ENDROOT
BRANCH   3  13
ATOM     13  C   UNL d   1      30.749  16.139 -24.193  0.00  0.00     0.303 C 
ATOM     14  O   UNL d   1      30.538  15.683 -24.850  0.00  0.00    -0.259 OA
BRANCH  13  15
ATOM     15  O   UNL d   1      30.372  16.009 -23.470  0.00  0.00    -0.269 OA
BRANCH  15  16
ATOM     16  C   UNL d   1      29.751  15.463 -23.412  0.00  0.00     0.152 C 
BRANCH  16  17
ATOM     17  C   UNL d   1      29.171  15.552 -22.829  0.00  0.00     0.143 C 
BRANCH  17  18
ATOM     18  O   UNL d   1      28.375  15.628 -23.049  0.00  0.00    -0.324 OA
ATOM     19  C   UNL d   1      27.807  15.826 -22.484  0.00  0.00     0.182 C 
ENDBRANCH  17  18
ENDBRANCH  16  17
ENDBRANCH  15  16
ENDBRANCH  13  15
ENDBRANCH   3  13
BRANCH   5  20
ATOM     20  C   UNL d   1      30.346  17.647 -24.749  0.00  0.00     0.046 A 
ATOM     21  S   UNL d   1      29.698  17.162 -24.910  0.00  0.00    -0.085 SA
ATOM     22  C   UNL d   1      29.059  17.650 -25.093  0.00  0.00     0.035 A 
ATOM     23  C   UNL d   1      29.313  18.432 -25.045  0.00  0.00     0.007 A 
ATOM     24  C   UNL d   1      30.105  18.431 -24.833  0.00  0.00     0.009 A 
ENDBRANCH   5  20
TORSDOF 6
ENDMDL
MODEL 3
REMARK VINA RESULT:       7.6      5.938      6.715
REMARK  6 active torsions:
REMARK  status: ('A' for Active; 'I' for Inactive)
REMARK    1  A    between atoms: C_9  and  C_3 
REMARK    2  A    between atoms: C_8  and  C_5 
REMARK    3  A    between atoms: O_19  and  C_9 
REMARK    4  A    between atoms: C_22  and  O_19 
REMARK    5  A    between atoms: O_21  and  C_23 
REMARK    6  A    between atoms: C_23  and  C_22 
ROOT
ATOM      1  N   UNL d   1      29.016  17.698 -24.182  0.00  0.00    -0.254 N 
ATOM      2  C   UNL d   1      29.371  18.268 -24.666  0.00  0.00     0.182 A 
ATOM      3  C   UNL d   1      30.174  16.872 -24.308  0.00  0.00     0.098 A 
ATOM      4  N   UNL d   1      30.127  18.135 -24.968  0.00  0.00    -0.222 NA
ATOM      5  C   UNL d   1      29.414  16.999 -24.001  0.00  0.00     0.081 A 
ATOM      6  C   UNL d   1      30.532  17.439 -24.792  0.00  0.00     0.090 A 
ATOM      7  C   UNL d   1      28.260  17.831 -23.880  0.00  0.00     0.267 A 
ATOM      8  S   UNL d   1      28.976  18.965 -24.847  0.00  0.00    -0.049 SA
ATOM      9  C   UNL d   1      27.862  18.531 -24.061  0.00  0.00     0.068 A 
ATOM     10  O   UNL d   1      27.902  17.264 -23.396  0.00  0.00    -0.267 OA
ATOM     11  C   UNL d   1      28.220  19.098 -24.545  0.00  0.00     0.043 A 
ATOM     12  C   UNL d   1      31.287  17.312 -25.096  0.00  0.00     0.021 C 
ENDROOT
BRANCH   3  13
ATOM     13  C   UNL d   1      30.574  16.175 -24.129  0.00  0.00     0.303 C 
ATOM     14  O   UNL d   1      30.154  15.488 -23.941  0.00  0.00    -0.259 OA
BRANCH  13  15
ATOM     15  O   UNL d   1      31.399  16.158 -24.136  0.00  0.00    -0.269 OA
BRANCH  15  16
ATOM     16  C   UNL d   1      31.807  15.453 -23.988  0.00  0.00     0.152 C 
BRANCH  16  17
ATOM     17  C   UNL d   1      32.530  15.465 -23.585  0.00  0.00     0.143 C 
BRANCH  17  18
ATOM     18  O   UNL d   1      32.542  15.593 -22.766  0.00  0.00    -0.324 OA
ATOM     19  C   UNL d   1      33.072  16.135 -22.440  0.00  0.00     0.182 C 
ENDBRANCH  17  18
ENDBRANCH  16  17
ENDBRANCH  15  16
ENDBRANCH  13  15
ENDBRANCH   3  13
BRANCH   5  20
ATOM     20  C   UNL d   1      29.056  16.432 -23.517  0.00  0.00     0.046 A 
ATOM     21  S   UNL d   1      28.478  15.864 -23.670  0.00  0.00    -0.085 SA
ATOM     22  C   UNL d   1      28.339  15.453 -22.968  0.00  0.00     0.035 A 
ATOM     23  C   UNL d   1      28.831  15.767 -22.387  0.00  0.00     0.007 A 
ATOM     24  C   UNL d   1      29.273  16.370 -22.724  0.00  0.00     0.009 A 
ENDBRANCH   5  20
TORSDOF 6
ENDMDL
