MODEL 1
REMARK VINA RESULT:      10.3      0.000      0.000
REMARK  1 active torsions:
REMARK  status: ('A' for Active; 'I' for Inactive)
REMARK    1  A    between atoms: N_11  and  C_7 
ROOT
ATOM      1  C   UNL d   1      44.102 -15.980  36.465  0.00  0.00     0.201 A 
ATOM      2  C   UNL d   1      44.183 -15.204  36.740  0.00  0.00     0.141 A 
ATOM      3  N   UNL d   1      43.352 -16.292  36.330  0.00  0.00    -0.036 NA
ATOM      4  C   UNL d   1      44.987 -15.040  36.825  0.00  0.00     0.040 A 
ATOM      5  N   UNL d   1      44.858 -16.298  36.379  0.00  0.00    -0.225 NA
ATOM      6  N   UNL d   1      43.511 -14.736  36.882  0.00  0.00    -0.129 NA
ATOM      7  C   UNL d   1      42.677 -15.831  36.470  0.00  0.00     0.788 A 
ATOM      8  C   UNL d   1      45.404 -15.715  36.602  0.00  0.00     0.085 A 
ATOM      9  N   UNL d   1      42.761 -15.057  36.745  0.00  0.00     0.048 NA
ATOM     10  C   UNL d   1      45.392 -14.369  37.074  0.00  0.00     0.003 A 
ATOM     11  C   UNL d   1      46.230 -15.725  36.626  0.00  0.00     0.019 A 
ATOM     12  C   UNL d   1      46.214 -14.373  37.100  0.00  0.00     0.000 A 
ATOM     13  C   UNL d   1      46.634 -15.055  36.875  0.00  0.00     0.002 A 
ATOM     14  C   UNL d   1      46.630 -13.697  37.351  0.00  0.00     0.000 C 
ENDROOT
BRANCH   7  15
ATOM     15  N   UNL d   1      41.928 -16.151  36.332  0.00  0.00     0.069 NA
ATOM     16  N   UNL d   1      41.214 -15.739  36.330  0.00  0.00    -0.006 N 
ENDBRANCH   7  15
TORSDOF 1
ENDMDL
