MODEL 1
REMARK VINA RESULT:      37.7      0.000      0.000
REMARK  4 active torsions:
REMARK  status: ('A' for Active; 'I' for Inactive)
REMARK    1  A    between atoms: C_9  and  C_1 
REMARK    2  A    between atoms: C_8  and  C_6 
REMARK    3  A    between atoms: C_14  and  C_9 
REMARK    4  A    between atoms: C_15  and  C_10 
ROOT
ATOM      1  C   UNL d   1      46.085 -17.176  44.070  0.00  0.00     0.089 A 
ATOM      2  C   UNL d   1      45.336 -16.114  44.370  0.00  0.00     0.048 A 
ATOM      3  C   UNL d   1      45.340 -16.937  44.298  0.00  0.00     0.114 A 
ATOM      4  C   UNL d   1      46.095 -15.849  44.181  0.00  0.00     0.112 A 
ATOM      5  S   UNL d   1      46.558 -16.511  43.995  0.00  0.00    -0.063 SA
ATOM      6  C   UNL d   1      44.747 -15.572  44.580  0.00  0.00     0.076 A 
ATOM      7  N   UNL d   1      46.256 -15.044  44.206  0.00  0.00    -0.239 NA
ATOM      8  C   UNL d   1      45.682 -14.504  44.412  0.00  0.00     0.082 A 
ATOM      9  C   UNL d   1      44.923 -14.770  44.600  0.00  0.00     0.023 A 
ATOM     10  N   UNL d   1      44.681 -17.433  44.439  0.00  0.00    -0.147 N 
ENDROOT
BRANCH   1  11
ATOM     11  C   UNL d   1      46.323 -17.951  43.937  0.00  0.00     0.203 C 
ATOM     12  O   UNL d   1      46.514 -18.428  44.555  0.00  0.00    -0.286 OA
BRANCH  11  13
ATOM     13  C   UNL d   1      46.363 -18.235  43.159  0.00  0.00     0.040 A 
ATOM     14  C   UNL d   1      46.294 -17.727  42.516  0.00  0.00     0.003 A 
ATOM     15  C   UNL d   1      46.335 -18.014  41.756  0.00  0.00     0.000 A 
ATOM     16  C   UNL d   1      46.448 -18.834  41.624  0.00  0.00     0.000 A 
ATOM     17  C   UNL d   1      46.517 -19.340  42.257  0.00  0.00     0.000 A 
ATOM     18  C   UNL d   1      46.477 -19.056  43.028  0.00  0.00     0.003 A 
ENDBRANCH  11  13
ENDBRANCH   1  11
BRANCH   6  19
ATOM     19  C   UNL d   1      43.990 -15.837  44.768  0.00  0.00     0.419 C 
ATOM     20  F   UNL d   1      43.243 -16.098  44.954  0.00  0.00    -0.166 F 
ATOM     21  F   UNL d   1      44.289 -16.600  44.897  0.00  0.00    -0.166 F 
ATOM     22  F   UNL d   1      43.694 -15.080  44.642  0.00  0.00    -0.166 F 
ENDBRANCH   6  19
BRANCH   8  23
ATOM     23  C   UNL d   1      45.843 -13.699  44.436  0.00  0.00     0.018 A 
ATOM     24  C   UNL d   1      46.463 -13.425  44.913  0.00  0.00     0.002 A 
ATOM     25  C   UNL d   1      46.644 -12.618  44.954  0.00  0.00     0.000 A 
ATOM     26  C   UNL d   1      46.185 -12.081  44.501  0.00  0.00     0.000 A 
ATOM     27  C   UNL d   1      45.565 -12.355  44.024  0.00  0.00     0.000 A 
ATOM     28  C   UNL d   1      45.406 -13.166  44.001  0.00  0.00     0.002 A 
ENDBRANCH   8  23
TORSDOF 4
ENDMDL
