MODEL 1
REMARK VINA RESULT:     108.5      0.000      0.000
REMARK  2 active torsions:
REMARK  status: ('A' for Active; 'I' for Inactive)
REMARK    1  A    between atoms: N_7  and  C_3 
REMARK    2  A    between atoms: C_11  and  N_8 
ROOT
ATOM      1  N   UNL d   1      61.261  47.148  50.244  0.00  0.00    -0.286 N 
ATOM      2  N   UNL d   1      61.583  45.572  49.897  0.00  0.00    -0.301 N 
ATOM      3  C   UNL d   1      61.844  46.961  49.691  0.00  0.00     0.101 A 
ATOM      4  C   UNL d   1      60.843  46.555  50.620  0.00  0.00     0.101 A 
ATOM      5  C   UNL d   1      62.002  46.170  49.519  0.00  0.00     0.100 A 
ATOM      6  C   UNL d   1      61.001  45.764  50.449  0.00  0.00     0.100 A 
ENDROOT
BRANCH   1   7
ATOM      7  C   UNL d   1      61.102  47.936  50.416  0.00  0.00     0.154 A 
ATOM      8  C   UNL d   1      60.964  48.163  51.185  0.00  0.00     0.091 A 
ATOM      9  C   UNL d   1      60.805  48.950  51.356  0.00  0.00     0.170 A 
ATOM     10  C   UNL d   1      60.947  47.732  51.891  0.00  0.00     0.127 A 
ATOM     11  N   UNL d   1      60.689  49.010  52.173  0.00  0.00    -0.209 N 
ATOM     12  N   UNL d   1      60.787  49.505  50.758  0.00  0.00    -0.205 NA
ATOM     13  C   UNL d   1      60.516  49.707  52.583  0.00  0.00     0.123 C 
ATOM     14  N   UNL d   1      60.776  48.262  52.500  0.00  0.00    -0.162 NA
ATOM     15  C   UNL d   1      60.927  49.274  49.987  0.00  0.00     0.202 A 
ATOM     16  N   UNL d   1      61.085  48.483  49.815  0.00  0.00    -0.206 NA
ENDBRANCH   1   7
BRANCH   2  17
ATOM     17  C   UNL d   1      61.744  44.782  49.722  0.00  0.00     0.065 A 
ATOM     18  C   UNL d   1      62.144  44.319  50.269  0.00  0.00     0.030 A 
ATOM     19  C   UNL d   1      62.311  43.528  50.105  0.00  0.00     0.070 A 
ATOM     20 CL   UNL d   1      62.714  43.068  50.660  0.00  0.00    -0.081 Cl
ATOM     21  C   UNL d   1      62.072  43.202  49.381  0.00  0.00     0.068 A 
ATOM     22  C   UNL d   1      61.667  43.670  48.828  0.00  0.00     0.014 A 
ATOM     23 CL   UNL d   1      62.236  42.411  49.211  0.00  0.00    -0.082 Cl
ATOM     24  C   UNL d   1      61.504  44.460  48.999  0.00  0.00     0.018 A 
ENDBRANCH   2  17
TORSDOF 2
ENDMDL
