MODEL 1
REMARK VINA RESULT:      87.1      0.000      0.000
REMARK  6 active torsions:
REMARK  status: ('A' for Active; 'I' for Inactive)
REMARK    1  A    between atoms: C_13  and  N_1 
REMARK    2  A    between atoms: S_9  and  C_2 
REMARK    3  A    between atoms: C_10  and  C_7 
REMARK    4  A    between atoms: C_19  and  S_9 
REMARK    5  A    between atoms: O_23  and  C_10 
REMARK    6  A    between atoms: C_14  and  C_19 
ROOT
ATOM      1  N   UNL d   1     -47.880  31.162  34.676  0.00  0.00    -0.254 N 
ATOM      2  C   UNL d   1     -48.436  31.042  34.079  0.00  0.00     0.182 A 
ATOM      3  C   UNL d   1     -47.546  31.909  34.784  0.00  0.00     0.274 A 
ATOM      4  C   UNL d   1     -47.767  32.531  34.297  0.00  0.00     0.104 A 
ATOM      5  N   UNL d   1     -48.658  31.669  33.590  0.00  0.00    -0.222 NA
ATOM      6  C   UNL d   1     -48.324  32.411  33.700  0.00  0.00     0.095 A 
ATOM      7  S   UNL d   1     -47.536  33.320  34.271  0.00  0.00    -0.080 SA
ATOM      8  O   UNL d   1     -46.989  32.029  35.382  0.00  0.00    -0.266 OA
ATOM      9  C   UNL d   1     -48.435  33.126  33.306  0.00  0.00     0.027 A 
ATOM     10  C   UNL d   1     -47.952  33.684  33.655  0.00  0.00     0.037 A 
ENDROOT
BRANCH   2  11
ATOM     11  S   UNL d   1     -48.777  30.290  33.965  0.00  0.00    -0.047 SA
BRANCH  11  12
ATOM     12  C   UNL d   1     -49.521  30.228  33.616  0.00  0.00     0.063 C 
BRANCH  12  13
ATOM     13  C   UNL d   1     -49.869  29.487  33.515  0.00  0.00     0.107 A 
ATOM     14  O   UNL d   1     -49.554  28.720  33.516  0.00  0.00    -0.301 OA
ATOM     15  C   UNL d   1     -50.170  28.195  33.387  0.00  0.00     0.163 A 
ATOM     16  C   UNL d   1     -50.870  28.628  33.306  0.00  0.00     0.032 A 
ATOM     17  C   UNL d   1     -50.681  29.427  33.386  0.00  0.00     0.027 A 
BRANCH  15  18
ATOM     18  C   UNL d   1     -50.112  27.371  33.344  0.00  0.00     0.319 C 
ATOM     19  O   UNL d   1     -50.790  26.904  33.306  0.00  0.00    -0.257 OA
BRANCH  18  20
ATOM     20  O   UNL d   1     -49.366  27.019  33.339  0.00  0.00    -0.294 OA
ATOM     21  C   UNL d   1     -49.281  26.231  33.571  0.00  0.00     0.185 C 
ENDBRANCH  18  20
ENDBRANCH  15  18
ENDBRANCH  12  13
ENDBRANCH  11  12
ENDBRANCH   2  11
BRANCH   1  22
ATOM     22  C   UNL d   1     -47.658  30.545  35.162  0.00  0.00     0.069 A 
ATOM     23  C   UNL d   1     -47.131  29.971  34.891  0.00  0.00     0.018 A 
ATOM     24  C   UNL d   1     -46.909  29.348  35.386  0.00  0.00     0.002 A 
ATOM     25  C   UNL d   1     -47.214  29.300  36.151  0.00  0.00     0.000 A 
ATOM     26  C   UNL d   1     -47.741  29.874  36.421  0.00  0.00     0.002 A 
ATOM     27  C   UNL d   1     -46.993  28.672  36.657  0.00  0.00     0.000 C 
ATOM     28  C   UNL d   1     -47.963  30.496  35.927  0.00  0.00     0.018 A 
ENDBRANCH   1  22
TORSDOF 6
ENDMDL
