MODEL 1
REMARK VINA RESULT:      47.7      0.000      0.000
REMARK  4 active torsions:
REMARK  status: ('A' for Active; 'I' for Inactive)
REMARK    1  A    between atoms: C_3  and  C_1 
REMARK    2  A    between atoms: C_4  and  C_3 
REMARK    3  A    between atoms: C_7  and  C_4 
REMARK    4  A    between atoms: C_14  and  C_7 
ROOT
ATOM      1  C   UNL d   1      14.839  15.664  -1.973  0.00  0.00     0.042 C 
ENDROOT
BRANCH   1   2
ATOM      2  C   UNL d   1      14.887  16.437  -2.278  0.00  0.00     0.199 C 
ATOM      3  O   UNL d   1      14.865  17.108  -1.743  0.00  0.00    -0.286 OA
BRANCH   2   4
ATOM      4  C   UNL d   1      14.954  16.542  -3.070  0.00  0.00     0.078 A 
ATOM      5  C   UNL d   1      14.438  16.167  -3.593  0.00  0.00     0.199 A 
ATOM      6  C   UNL d   1      14.516  16.282  -4.402  0.00  0.00     0.042 A 
ATOM      7  O   UNL d   1      13.825  15.662  -3.312  0.00  0.00    -0.286 OA
ATOM      8  C   UNL d   1      15.112  16.775  -4.693  0.00  0.00     0.003 A 
ATOM      9  C   UNL d   1      15.628  17.150  -4.170  0.00  0.00     0.000 A 
ATOM     10  C   UNL d   1      15.191  16.890  -5.503  0.00  0.00     0.000 C 
ATOM     11  C   UNL d   1      15.548  17.032  -3.355  0.00  0.00     0.006 A 
ENDBRANCH   2   4
ENDBRANCH   1   2
BRANCH   1  12
ATOM     12  C   UNL d   1      15.138  15.492  -1.222  0.00  0.00     0.003 C 
BRANCH  12  13
ATOM     13  C   UNL d   1      15.147  14.717  -0.952  0.00  0.00     0.002 A 
ATOM     14  C   UNL d   1      14.711  14.138  -1.350  0.00  0.00     0.027 A 
ATOM     15  C   UNL d   1      14.719  13.362  -1.081  0.00  0.00     0.123 A 
ATOM     16  O   UNL d   1      14.281  12.778  -1.480  0.00  0.00    -0.301 OA
ATOM     17  C   UNL d   1      15.161  13.159  -0.414  0.00  0.00     0.123 A 
ATOM     18  C   UNL d   1      14.288  11.997  -1.211  0.00  0.00     0.149 A 
ATOM     19  C   UNL d   1      14.730  11.794  -0.544  0.00  0.00     0.149 A 
ATOM     20  O   UNL d   1      15.166  12.372  -0.147  0.00  0.00    -0.301 OA
ATOM     21  C   UNL d   1      15.595  13.732  -0.018  0.00  0.00     0.027 A 
ATOM     22  C   UNL d   1      15.589  14.514  -0.286  0.00  0.00     0.002 A 
ENDBRANCH  12  13
ENDBRANCH   1  12
TORSDOF 4
ENDMDL
MODEL 2
REMARK VINA RESULT:      49.6      1.357      4.434
REMARK  4 active torsions:
REMARK  status: ('A' for Active; 'I' for Inactive)
REMARK    1  A    between atoms: C_3  and  C_1 
REMARK    2  A    between atoms: C_4  and  C_3 
REMARK    3  A    between atoms: C_7  and  C_4 
REMARK    4  A    between atoms: C_14  and  C_7 
ROOT
ATOM      1  C   UNL d   1      13.930  14.279  -2.675  0.00  0.00     0.042 C 
ENDROOT
BRANCH   1   2
ATOM      2  C   UNL d   1      13.998  13.452  -2.725  0.00  0.00     0.199 C 
ATOM      3  O   UNL d   1      13.873  13.058  -3.479  0.00  0.00    -0.286 OA
BRANCH   2   4
ATOM      4  C   UNL d   1      14.179  13.033  -2.066  0.00  0.00     0.078 A 
ATOM      5  C   UNL d   1      14.107  12.212  -2.051  0.00  0.00     0.199 A 
ATOM      6  C   UNL d   1      14.296  11.794  -1.370  0.00  0.00     0.042 A 
ATOM      7  O   UNL d   1      13.840  11.786  -2.727  0.00  0.00    -0.286 OA
ATOM      8  C   UNL d   1      14.559  12.197  -0.698  0.00  0.00     0.003 A 
ATOM      9  C   UNL d   1      14.631  13.019  -0.714  0.00  0.00     0.000 A 
ATOM     10  C   UNL d   1      14.748  11.780  -0.016  0.00  0.00     0.000 C 
ATOM     11  C   UNL d   1      14.440  13.437  -1.400  0.00  0.00     0.006 A 
ENDBRANCH   2   4
ENDBRANCH   1   2
BRANCH   1  12
ATOM     12  C   UNL d   1      14.433  14.766  -3.116  0.00  0.00     0.003 C 
BRANCH  12  13
ATOM     13  C   UNL d   1      14.662  15.496  -2.817  0.00  0.00     0.002 A 
ATOM     14  C   UNL d   1      14.838  15.574  -2.013  0.00  0.00     0.027 A 
ATOM     15  C   UNL d   1      15.067  16.304  -1.714  0.00  0.00     0.123 A 
ATOM     16  O   UNL d   1      15.244  16.386  -0.905  0.00  0.00    -0.301 OA
ATOM     17  C   UNL d   1      15.122  16.958  -2.213  0.00  0.00     0.123 A 
ATOM     18  C   UNL d   1      15.475  17.119  -0.602  0.00  0.00     0.149 A 
ATOM     19  C   UNL d   1      15.530  17.773  -1.101  0.00  0.00     0.149 A 
ATOM     20  O   UNL d   1      15.354  17.694  -1.904  0.00  0.00    -0.301 OA
ATOM     21  C   UNL d   1      14.947  16.883  -3.012  0.00  0.00     0.027 A 
ATOM     22  C   UNL d   1      14.717  16.151  -3.317  0.00  0.00     0.002 A 
ENDBRANCH  12  13
ENDBRANCH   1  12
TORSDOF 4
ENDMDL
