MODEL 1
REMARK VINA RESULT:      38.1      0.000      0.000
REMARK  3 active torsions:
REMARK  status: ('A' for Active; 'I' for Inactive)
REMARK    1  A    between atoms: N_7  and  C_1 
REMARK    2  A    between atoms: N_10  and  N_7 
REMARK    3  A    between atoms: C_17  and  N_10 
ROOT
ATOM      1  N   UNL d   1      59.667  49.693  50.648  0.00  0.00    -0.148 NA
ENDROOT
BRANCH   1   2
ATOM      2  N   UNL d   1      60.059  49.172  51.172  0.00  0.00    -0.138 NA
BRANCH   2   3
ATOM      3  C   UNL d   1      60.622  48.678  50.881  0.00  0.00     0.218 A 
ATOM      4  C   UNL d   1      61.147  48.918  50.339  0.00  0.00     0.307 A 
ATOM      5  N   UNL d   1      61.710  48.402  50.057  0.00  0.00    -0.150 NA
ATOM      6  O   UNL d   1      61.116  49.708  50.061  0.00  0.00    -0.263 OA
ATOM      7  C   UNL d   1      61.764  47.668  50.294  0.00  0.00     0.374 A 
ATOM      8  N   UNL d   1      61.223  47.397  50.862  0.00  0.00    -0.150 NA
ATOM      9  O   UNL d   1      62.364  47.167  49.974  0.00  0.00    -0.242 OA
ATOM     10  C   UNL d   1      60.653  47.888  51.160  0.00  0.00     0.307 A 
ATOM     11  O   UNL d   1      60.115  47.607  51.729  0.00  0.00    -0.263 OA
ENDBRANCH   2   3
ENDBRANCH   1   2
BRANCH   1  12
ATOM     12  C   UNL d   1      58.834  49.697  50.637  0.00  0.00     0.105 A 
ATOM     13  C   UNL d   1      58.496  49.698  49.896  0.00  0.00     0.048 A 
ATOM     14  C   UNL d   1      57.673  49.701  49.833  0.00  0.00     0.124 A 
ATOM     15  O   UNL d   1      57.334  49.703  49.091  0.00  0.00    -0.301 OA
ATOM     16  C   UNL d   1      57.195  49.703  50.524  0.00  0.00     0.123 A 
ATOM     17  C   UNL d   1      56.511  49.706  49.029  0.00  0.00     0.149 A 
ATOM     18  C   UNL d   1      56.033  49.708  49.719  0.00  0.00     0.149 A 
ATOM     19  O   UNL d   1      56.384  49.706  50.463  0.00  0.00    -0.301 OA
ATOM     20  C   UNL d   1      57.546  49.702  51.268  0.00  0.00     0.028 A 
ATOM     21  C   UNL d   1      58.356  49.698  51.327  0.00  0.00     0.023 A 
ENDBRANCH   1  12
TORSDOF 3
ENDMDL
