MODEL 1
REMARK VINA RESULT:      -9.1      0.000      0.000
REMARK  2 active torsions:
REMARK  status: ('A' for Active; 'I' for Inactive)
REMARK    1  A    between atoms: S_5  and  C_3 
REMARK    2  A    between atoms: C_12  and  S_5 
ROOT
ATOM      1  C   UNL d   1     -48.835  13.302  23.333  0.00  0.00     0.155 A 
ATOM      2  C   UNL d   1     -48.379  13.919  23.054  0.00  0.00     0.092 A 
ATOM      3  C   UNL d   1     -47.272  13.049  22.927  0.00  0.00     0.124 A 
ATOM      4  N   UNL d   1     -49.622  13.431  23.538  0.00  0.00    -0.210 NA
ATOM      5  N   UNL d   1     -48.514  12.561  23.411  0.00  0.00    -0.272 N 
ATOM      6  C   UNL d   1     -47.732  12.425  23.210  0.00  0.00     0.181 A 
ATOM      7  C   UNL d   1     -48.704  14.669  22.976  0.00  0.00     0.269 A 
ATOM      8  N   UNL d   1     -49.488  14.795  23.180  0.00  0.00    -0.258 N 
ATOM      9  C   UNL d   1     -47.598  13.796  22.850  0.00  0.00     0.022 A 
ATOM     10  C   UNL d   1     -49.945  14.168  23.462  0.00  0.00     0.152 A 
ATOM     11  N   UNL d   1     -47.409  11.665  23.290  0.00  0.00    -0.128 N 
ATOM     12  C   UNL d   1     -49.825  15.544  23.106  0.00  0.00     0.084 A 
ATOM     13  O   UNL d   1     -48.243  15.303  22.691  0.00  0.00    -0.266 OA
ATOM     14  C   UNL d   1     -50.733  14.297  23.666  0.00  0.00     0.038 A 
ATOM     15  C   UNL d   1     -50.599  15.662  23.309  0.00  0.00     0.019 A 
ATOM     16  C   UNL d   1     -51.056  15.035  23.591  0.00  0.00     0.005 A 
ATOM     17  C   UNL d   1     -48.982  11.926  23.698  0.00  0.00     0.102 C 
ENDROOT
BRANCH   3  18
ATOM     18  S   UNL d   1     -46.480  12.917  22.722  0.00  0.00     0.213 S 
ATOM     19  O   UNL d   1     -46.245  13.017  23.516  0.00  0.00    -0.217 OA
ATOM     20  O   UNL d   1     -46.702  12.816  21.930  0.00  0.00    -0.217 OA
BRANCH  18  21
ATOM     21  C   UNL d   1     -45.685  12.783  22.504  0.00  0.00     0.088 A 
ATOM     22  C   UNL d   1     -45.258  12.163  22.849  0.00  0.00     0.014 A 
ATOM     23  C   UNL d   1     -44.463  12.029  22.631  0.00  0.00     0.030 A 
ATOM     24  C   UNL d   1     -44.099  12.516  22.067  0.00  0.00     0.140 A 
ATOM     25  C   UNL d   1     -44.538  13.144  21.721  0.00  0.00     0.030 A 
ATOM     26  F   UNL d   1     -43.311  12.390  21.845  0.00  0.00    -0.204 F 
ATOM     27  C   UNL d   1     -45.329  13.276  21.939  0.00  0.00     0.014 A 
ENDBRANCH  18  21
ENDBRANCH   3  18
TORSDOF 2
ENDMDL
MODEL 2
REMARK VINA RESULT:      -9.0      1.146      1.956
REMARK  2 active torsions:
REMARK  status: ('A' for Active; 'I' for Inactive)
REMARK    1  A    between atoms: S_5  and  C_3 
REMARK    2  A    between atoms: C_12  and  S_5 
ROOT
ATOM      1  C   UNL d   1     -48.420  13.545  23.059  0.00  0.00     0.155 A 
ATOM      2  C   UNL d   1     -48.190  12.762  23.040  0.00  0.00     0.092 A 
ATOM      3  C   UNL d   1     -46.869  13.155  22.721  0.00  0.00     0.124 A 
ATOM      4  N   UNL d   1     -49.203  13.740  23.229  0.00  0.00    -0.210 NA
ATOM      5  N   UNL d   1     -47.882  14.132  22.910  0.00  0.00    -0.272 N 
ATOM      6  C   UNL d   1     -47.103  13.947  22.740  0.00  0.00     0.181 A 
ATOM      7  C   UNL d   1     -48.736  12.167  23.191  0.00  0.00     0.269 A 
ATOM      8  N   UNL d   1     -49.513  12.364  23.361  0.00  0.00    -0.258 N 
ATOM      9  C   UNL d   1     -47.416  12.565  22.872  0.00  0.00     0.022 A 
ATOM     10  C   UNL d   1     -49.742  13.157  23.378  0.00  0.00     0.152 A 
ATOM     11  N   UNL d   1     -46.555  14.551  22.588  0.00  0.00    -0.128 N 
ATOM     12  C   UNL d   1     -50.070  11.776  23.514  0.00  0.00     0.084 A 
ATOM     13  O   UNL d   1     -48.505  11.366  23.174  0.00  0.00    -0.266 OA
ATOM     14  C   UNL d   1     -50.524  13.352  23.549  0.00  0.00     0.038 A 
ATOM     15  C   UNL d   1     -50.836  11.976  23.680  0.00  0.00     0.019 A 
ATOM     16  C   UNL d   1     -51.064  12.768  23.698  0.00  0.00     0.005 A 
ATOM     17  C   UNL d   1     -48.118  14.937  22.929  0.00  0.00     0.102 C 
ENDROOT
BRANCH   3  18
ATOM     18  S   UNL d   1     -46.082  12.962  22.550  0.00  0.00     0.213 S 
ATOM     19  O   UNL d   1     -45.885  12.996  23.359  0.00  0.00    -0.217 OA
ATOM     20  O   UNL d   1     -46.267  12.925  21.743  0.00  0.00    -0.217 OA
BRANCH  18  21
ATOM     21  C   UNL d   1     -45.292  12.765  22.365  0.00  0.00     0.088 A 
ATOM     22  C   UNL d   1     -44.873  13.211  21.807  0.00  0.00     0.014 A 
ATOM     23  C   UNL d   1     -44.082  13.015  21.622  0.00  0.00     0.030 A 
ATOM     24  C   UNL d   1     -43.715  12.373  21.997  0.00  0.00     0.140 A 
ATOM     25  C   UNL d   1     -44.146  11.925  22.563  0.00  0.00     0.030 A 
ATOM     26  F   UNL d   1     -42.931  12.172  21.819  0.00  0.00    -0.204 F 
ATOM     27  C   UNL d   1     -44.932  12.121  22.745  0.00  0.00     0.014 A 
ENDBRANCH  18  21
ENDBRANCH   3  18
TORSDOF 2
ENDMDL
MODEL 3
REMARK VINA RESULT:      -8.6      2.197      4.894
REMARK  2 active torsions:
REMARK  status: ('A' for Active; 'I' for Inactive)
REMARK    1  A    between atoms: S_5  and  C_3 
REMARK    2  A    between atoms: C_12  and  S_5 
ROOT
ATOM      1  C   UNL d   1     -45.867  12.596  22.819  0.00  0.00     0.155 A 
ATOM      2  C   UNL d   1     -46.524  12.202  23.099  0.00  0.00     0.092 A 
ATOM      3  C   UNL d   1     -47.329  13.325  22.800  0.00  0.00     0.124 A 
ATOM      4  N   UNL d   1     -45.130  12.227  22.829  0.00  0.00    -0.210 NA
ATOM      5  N   UNL d   1     -45.936  13.350  22.530  0.00  0.00    -0.272 N 
ATOM      6  C   UNL d   1     -46.665  13.723  22.517  0.00  0.00     0.181 A 
ATOM      7  C   UNL d   1     -46.453  11.437  23.392  0.00  0.00     0.269 A 
ATOM      8  N   UNL d   1     -45.719  11.072  23.401  0.00  0.00    -0.258 N 
ATOM      9  C   UNL d   1     -47.256  12.563  23.091  0.00  0.00     0.022 A 
ATOM     10  C   UNL d   1     -45.057  11.475  23.116  0.00  0.00     0.152 A 
ATOM     11  N   UNL d   1     -46.730  14.495  22.220  0.00  0.00    -0.128 N 
ATOM     12  C   UNL d   1     -45.636  10.306  23.692  0.00  0.00     0.084 A 
ATOM     13  O   UNL d   1     -47.122  11.030  23.679  0.00  0.00    -0.266 OA
ATOM     14  C   UNL d   1     -44.320  11.106  23.126  0.00  0.00     0.038 A 
ATOM     15  C   UNL d   1     -44.909   9.951  23.698  0.00  0.00     0.019 A 
ATOM     16  C   UNL d   1     -44.247  10.353  23.413  0.00  0.00     0.005 A 
ATOM     17  C   UNL d   1     -45.260  13.756  22.241  0.00  0.00     0.102 C 
ENDROOT
BRANCH   3  18
ATOM     18  S   UNL d   1     -48.069  13.697  22.789  0.00  0.00     0.213 S 
ATOM     19  O   UNL d   1     -48.009  13.867  23.604  0.00  0.00    -0.217 OA
ATOM     20  O   UNL d   1     -48.139  13.534  21.980  0.00  0.00    -0.217 OA
BRANCH  18  21
ATOM     21  C   UNL d   1     -48.816  14.071  22.767  0.00  0.00     0.088 A 
ATOM     22  C   UNL d   1     -49.002  14.661  23.316  0.00  0.00     0.014 A 
ATOM     23  C   UNL d   1     -49.749  15.034  23.293  0.00  0.00     0.030 A 
ATOM     24  C   UNL d   1     -50.306  14.814  22.720  0.00  0.00     0.140 A 
ATOM     25  C   UNL d   1     -50.110  14.214  22.165  0.00  0.00     0.030 A 
ATOM     26  F   UNL d   1     -51.050  15.179  22.690  0.00  0.00    -0.204 F 
ATOM     27  C   UNL d   1     -49.367  13.843  22.189  0.00  0.00     0.014 A 
ENDBRANCH  18  21
ENDBRANCH   3  18
TORSDOF 2
ENDMDL
MODEL 4
REMARK VINA RESULT:      -8.4      1.559      2.100
REMARK  2 active torsions:
REMARK  status: ('A' for Active; 'I' for Inactive)
REMARK    1  A    between atoms: S_5  and  C_3 
REMARK    2  A    between atoms: C_12  and  S_5 
ROOT
ATOM      1  C   UNL d   1     -48.166  13.822  22.538  0.00  0.00     0.155 A 
ATOM      2  C   UNL d   1     -48.268  13.019  22.433  0.00  0.00     0.092 A 
ATOM      3  C   UNL d   1     -46.924  12.795  22.808  0.00  0.00     0.124 A 
ATOM      4  N   UNL d   1     -48.794  14.338  22.401  0.00  0.00    -0.210 NA
ATOM      5  N   UNL d   1     -47.449  14.114  22.776  0.00  0.00    -0.272 N 
ATOM      6  C   UNL d   1     -46.820  13.607  22.914  0.00  0.00     0.181 A 
ATOM      7  C   UNL d   1     -48.996  12.723  22.191  0.00  0.00     0.269 A 
ATOM      8  N   UNL d   1     -49.619  13.239  22.056  0.00  0.00    -0.258 N 
ATOM      9  C   UNL d   1     -47.650  12.503  22.567  0.00  0.00     0.022 A 
ATOM     10  C   UNL d   1     -49.511  14.050  22.163  0.00  0.00     0.152 A 
ATOM     11  N   UNL d   1     -46.088  13.910  23.159  0.00  0.00    -0.128 N 
ATOM     12  C   UNL d   1     -50.353  12.954  21.813  0.00  0.00     0.084 A 
ATOM     13  O   UNL d   1     -49.105  11.904  22.083  0.00  0.00    -0.266 OA
ATOM     14  C   UNL d   1     -50.138  14.567  22.026  0.00  0.00     0.038 A 
ATOM     15  C   UNL d   1     -50.964  13.468  21.681  0.00  0.00     0.019 A 
ATOM     16  C   UNL d   1     -50.856  14.279  21.788  0.00  0.00     0.005 A 
ATOM     17  C   UNL d   1     -47.343  14.939  22.885  0.00  0.00     0.102 C 
ENDROOT
BRANCH   3  18
ATOM     18  S   UNL d   1     -46.292  12.277  22.946  0.00  0.00     0.213 S 
ATOM     19  O   UNL d   1     -45.976  12.443  22.193  0.00  0.00    -0.217 OA
ATOM     20  O   UNL d   1     -46.597  12.105  23.697  0.00  0.00    -0.217 OA
BRANCH  18  21
ATOM     21  C   UNL d   1     -45.659  11.753  23.097  0.00  0.00     0.088 A 
ATOM     22  C   UNL d   1     -44.905  11.916  22.797  0.00  0.00     0.014 A 
ATOM     23  C   UNL d   1     -44.272  11.391  22.948  0.00  0.00     0.030 A 
ATOM     24  C   UNL d   1     -44.398  10.706  23.397  0.00  0.00     0.140 A 
ATOM     25  C   UNL d   1     -45.167  10.547  23.698  0.00  0.00     0.030 A 
ATOM     26  F   UNL d   1     -43.776  10.181  23.551  0.00  0.00    -0.204 F 
ATOM     27  C   UNL d   1     -45.795  11.069  23.548  0.00  0.00     0.014 A 
ENDBRANCH  18  21
ENDBRANCH   3  18
TORSDOF 2
ENDMDL
MODEL 5
REMARK VINA RESULT:      -6.3      8.814      9.445
REMARK  2 active torsions:
REMARK  status: ('A' for Active; 'I' for Inactive)
REMARK    1  A    between atoms: S_5  and  C_3 
REMARK    2  A    between atoms: C_12  and  S_5 
ROOT
ATOM      1  C   UNL d   1     -39.550  14.483  18.119  0.00  0.00     0.155 A 
ATOM      2  C   UNL d   1     -39.964  14.916  18.674  0.00  0.00     0.092 A 
ATOM      3  C   UNL d   1     -39.125  14.415  19.696  0.00  0.00     0.124 A 
ATOM      4  N   UNL d   1     -39.764  14.519  17.324  0.00  0.00    -0.210 NA
ATOM      5  N   UNL d   1     -38.926  14.018  18.347  0.00  0.00    -0.272 N 
ATOM      6  C   UNL d   1     -38.706  13.978  19.135  0.00  0.00     0.181 A 
ATOM      7  C   UNL d   1     -40.596  15.387  18.442  0.00  0.00     0.269 A 
ATOM      8  N   UNL d   1     -40.808  15.420  17.651  0.00  0.00    -0.258 N 
ATOM      9  C   UNL d   1     -39.754  14.884  19.462  0.00  0.00     0.022 A 
ATOM     10  C   UNL d   1     -40.386  14.982  17.094  0.00  0.00     0.152 A 
ATOM     11  N   UNL d   1     -38.067  13.501  19.364  0.00  0.00    -0.128 N 
ATOM     12  C   UNL d   1     -41.440  15.890  17.407  0.00  0.00     0.084 A 
ATOM     13  O   UNL d   1     -41.022  15.831  19.005  0.00  0.00    -0.266 OA
ATOM     14  C   UNL d   1     -40.601  15.017  16.299  0.00  0.00     0.038 A 
ATOM     15  C   UNL d   1     -41.644  15.919  16.624  0.00  0.00     0.019 A 
ATOM     16  C   UNL d   1     -41.223  15.480  16.067  0.00  0.00     0.005 A 
ATOM     17  C   UNL d   1     -38.500  13.574  17.778  0.00  0.00     0.102 C 
ENDROOT
BRANCH   3  18
ATOM     18  S   UNL d   1     -38.907  14.378  20.494  0.00  0.00     0.213 S 
ATOM     19  O   UNL d   1     -39.501  13.812  20.643  0.00  0.00    -0.217 OA
ATOM     20  O   UNL d   1     -38.314  14.940  20.359  0.00  0.00    -0.217 OA
BRANCH  18  21
ATOM     21  C   UNL d   1     -38.679  14.349  21.298  0.00  0.00     0.088 A 
ATOM     22  C   UNL d   1     -38.240  14.968  21.627  0.00  0.00     0.014 A 
ATOM     23  C   UNL d   1     -38.011  14.939  22.430  0.00  0.00     0.030 A 
ATOM     24  C   UNL d   1     -38.224  14.290  22.899  0.00  0.00     0.140 A 
ATOM     25  C   UNL d   1     -38.670  13.664  22.558  0.00  0.00     0.030 A 
ATOM     26  F   UNL d   1     -38.001  14.254  23.697  0.00  0.00    -0.204 F 
ATOM     27  C   UNL d   1     -38.896  13.695  21.759  0.00  0.00     0.014 A 
ENDBRANCH  18  21
ENDBRANCH   3  18
TORSDOF 2
ENDMDL
