MODEL 1
REMARK VINA RESULT:      -4.9      0.000      0.000
REMARK  3 active torsions:
REMARK  status: ('A' for Active; 'I' for Inactive)
REMARK    1  A    between atoms: C_13  and  C_2 
REMARK    2  A    between atoms: C_10  and  C_4 
REMARK    3  A    between atoms: N_7  and  C_10 
ROOT
ATOM      1  N   UNL d   1      56.820  -0.766  31.816  0.00  0.00    -0.121 NA
ATOM      2  C   UNL d   1      56.633  -0.037  32.146  0.00  0.00     0.204 A 
ATOM      3  O   UNL d   1      56.903   0.550  31.636  0.00  0.00    -0.267 OA
ATOM      4  C   UNL d   1      57.260   0.184  30.985  0.00  0.00     0.222 A 
ATOM      5  N   UNL d   1      57.207  -0.635  31.098  0.00  0.00    -0.119 NA
ENDROOT
BRANCH   4   6
ATOM      6  C   UNL d   1      57.606   0.561  30.338  0.00  0.00     0.127 C 
BRANCH   6   7
ATOM      7  N   UNL d   1      58.350   0.326  30.074  0.00  0.00    -0.300 N 
ATOM      8  C   UNL d   1      59.022   0.674  30.397  0.00  0.00     0.081 A 
ATOM      9  C   UNL d   1      59.764   0.445  30.139  0.00  0.00     0.053 A 
ATOM     10  C   UNL d   1      59.839  -0.133  29.555  0.00  0.00     0.239 A 
ATOM     11  C   UNL d   1      59.159  -0.483  29.230  0.00  0.00     0.053 A 
ATOM     12  O   UNL d   1      59.860  -0.718  28.967  0.00  0.00    -0.298 OA
ATOM     13  O   UNL d   1      60.541   0.184  29.847  0.00  0.00    -0.298 OA
ATOM     14  C   UNL d   1      58.415  -0.248  29.494  0.00  0.00     0.081 A 
ATOM     15  C   UNL d   1      60.662  -0.841  28.813  0.00  0.00     0.146 A 
ATOM     16  C   UNL d   1      61.133  -0.207  29.431  0.00  0.00     0.146 A 
ENDBRANCH   6   7
ENDBRANCH   4   6
BRANCH   2  17
ATOM     17  C   UNL d   1      56.243   0.084  32.865  0.00  0.00     0.043 A 
ATOM     18  C   UNL d   1      55.511  -0.278  33.002  0.00  0.00     0.004 A 
ATOM     19  C   UNL d   1      55.120  -0.162  33.709  0.00  0.00     0.000 A 
ATOM     20  C   UNL d   1      55.457   0.319  34.295  0.00  0.00     0.000 A 
ATOM     21  C   UNL d   1      56.189   0.680  34.158  0.00  0.00     0.000 A 
ATOM     22  C   UNL d   1      56.577   0.562  33.446  0.00  0.00     0.004 A 
ENDBRANCH   2  17
TORSDOF 3
ENDMDL
MODEL 2
REMARK VINA RESULT:      -4.1      1.316      4.821
REMARK  3 active torsions:
REMARK  status: ('A' for Active; 'I' for Inactive)
REMARK    1  A    between atoms: C_13  and  C_2 
REMARK    2  A    between atoms: C_10  and  C_4 
REMARK    3  A    between atoms: N_7  and  C_10 
ROOT
ATOM      1  N   UNL d   1      58.130  -0.485  29.011  0.00  0.00    -0.121 NA
ATOM      2  C   UNL d   1      58.715  -0.907  29.405  0.00  0.00     0.204 A 
ATOM      3  O   UNL d   1      58.866  -0.527  30.120  0.00  0.00    -0.267 OA
ATOM      4  C   UNL d   1      58.371   0.136  30.171  0.00  0.00     0.222 A 
ATOM      5  N   UNL d   1      57.915   0.160  29.480  0.00  0.00    -0.119 NA
ENDROOT
BRANCH   4   6
ATOM      6  C   UNL d   1      58.336   0.676  30.793  0.00  0.00     0.127 C 
BRANCH   6   7
ATOM      7  N   UNL d   1      57.787   0.572  31.398  0.00  0.00    -0.300 N 
ATOM      8  C   UNL d   1      56.983   0.589  31.222  0.00  0.00     0.081 A 
ATOM      9  C   UNL d   1      56.433   0.487  31.819  0.00  0.00     0.053 A 
ATOM     10  C   UNL d   1      56.683   0.367  32.596  0.00  0.00     0.239 A 
ATOM     11  C   UNL d   1      57.495   0.350  32.772  0.00  0.00     0.053 A 
ATOM     12  O   UNL d   1      56.986   0.250  33.360  0.00  0.00    -0.298 OA
ATOM     13  O   UNL d   1      55.868   0.376  32.471  0.00  0.00    -0.298 OA
ATOM     14  C   UNL d   1      58.044   0.453  32.166  0.00  0.00     0.081 A 
ATOM     15  C   UNL d   1      56.322   0.164  33.844  0.00  0.00     0.146 A 
ATOM     16  C   UNL d   1      55.544   0.253  33.218  0.00  0.00     0.146 A 
ENDBRANCH   6   7
ENDBRANCH   4   6
BRANCH   2  17
ATOM     17  C   UNL d   1      59.086  -1.593  29.131  0.00  0.00     0.043 A 
ATOM     18  C   UNL d   1      59.858  -1.552  28.835  0.00  0.00     0.004 A 
ATOM     19  C   UNL d   1      60.231  -2.226  28.563  0.00  0.00     0.000 A 
ATOM     20  C   UNL d   1      59.835  -2.954  28.581  0.00  0.00     0.000 A 
ATOM     21  C   UNL d   1      59.063  -2.994  28.877  0.00  0.00     0.000 A 
ATOM     22  C   UNL d   1      58.693  -2.316  29.149  0.00  0.00     0.004 A 
ENDBRANCH   2  17
TORSDOF 3
ENDMDL
MODEL 3
REMARK VINA RESULT:      -3.3      1.240      4.847
REMARK  3 active torsions:
REMARK  status: ('A' for Active; 'I' for Inactive)
REMARK    1  A    between atoms: C_13  and  C_2 
REMARK    2  A    between atoms: C_10  and  C_4 
REMARK    3  A    between atoms: N_7  and  C_10 
ROOT
ATOM      1  N   UNL d   1      57.773  -1.359  30.271  0.00  0.00    -0.121 NA
ATOM      2  C   UNL d   1      58.432  -0.997  29.940  0.00  0.00     0.204 A 
ATOM      3  O   UNL d   1      58.430  -0.206  30.168  0.00  0.00    -0.267 OA
ATOM      4  C   UNL d   1      57.765  -0.076  30.645  0.00  0.00     0.222 A 
ATOM      5  N   UNL d   1      57.358  -0.794  30.707  0.00  0.00    -0.119 NA
ENDROOT
BRANCH   4   6
ATOM      6  C   UNL d   1      57.544   0.637  30.995  0.00  0.00     0.127 C 
BRANCH   6   7
ATOM      7  N   UNL d   1      57.252   0.645  31.766  0.00  0.00    -0.300 N 
ATOM      8  C   UNL d   1      57.779   0.666  32.398  0.00  0.00     0.081 A 
ATOM      9  C   UNL d   1      57.495   0.674  33.165  0.00  0.00     0.053 A 
ATOM     10  C   UNL d   1      56.681   0.660  33.306  0.00  0.00     0.239 A 
ATOM     11  C   UNL d   1      56.152   0.639  32.666  0.00  0.00     0.053 A 
ATOM     12  O   UNL d   1      55.856   0.645  33.393  0.00  0.00    -0.298 OA
ATOM     13  O   UNL d   1      57.167   0.681  33.971  0.00  0.00    -0.298 OA
ATOM     14  C   UNL d   1      56.444   0.631  31.895  0.00  0.00     0.081 A 
ATOM     15  C   UNL d   1      55.726   0.657  34.208  0.00  0.00     0.146 A 
ATOM     16  C   UNL d   1      56.645   0.682  34.607  0.00  0.00     0.146 A 
ENDBRANCH   6   7
ENDBRANCH   4   6
BRANCH   2  17
ATOM     17  C   UNL d   1      58.998  -1.363  29.461  0.00  0.00     0.043 A 
ATOM     18  C   UNL d   1      59.685  -0.954  29.248  0.00  0.00     0.004 A 
ATOM     19  C   UNL d   1      60.247  -1.310  28.776  0.00  0.00     0.000 A 
ATOM     20  C   UNL d   1      60.131  -2.085  28.507  0.00  0.00     0.000 A 
ATOM     21  C   UNL d   1      59.444  -2.495  28.719  0.00  0.00     0.000 A 
ATOM     22  C   UNL d   1      58.883  -2.134  29.193  0.00  0.00     0.004 A 
ENDBRANCH   2  17
TORSDOF 3
ENDMDL
MODEL 4
REMARK VINA RESULT:      -1.9      9.511      9.956
REMARK  3 active torsions:
REMARK  status: ('A' for Active; 'I' for Inactive)
REMARK    1  A    between atoms: C_13  and  C_2 
REMARK    2  A    between atoms: C_10  and  C_4 
REMARK    3  A    between atoms: N_7  and  C_10 
ROOT
ATOM      1  N   UNL d   1      60.814  -8.323  33.705  0.00  0.00    -0.121 NA
ATOM      2  C   UNL d   1      60.395  -8.951  34.028  0.00  0.00     0.204 A 
ATOM      3  O   UNL d   1      60.450  -9.588  33.509  0.00  0.00    -0.267 OA
ATOM      4  C   UNL d   1      60.907  -9.354  32.859  0.00  0.00     0.222 A 
ATOM      5  N   UNL d   1      61.132  -8.567  32.983  0.00  0.00    -0.119 NA
ENDROOT
BRANCH   4   6
ATOM      6  C   UNL d   1      61.104  -9.816  32.205  0.00  0.00     0.127 C 
BRANCH   6   7
ATOM      7  N   UNL d   1      60.636  -9.792  31.527  0.00  0.00    -0.300 N 
ATOM      8  C   UNL d   1      59.817  -9.816  31.599  0.00  0.00     0.081 A 
ATOM      9  C   UNL d   1      59.347  -9.792  30.930  0.00  0.00     0.053 A 
ATOM     10  C   UNL d   1      59.694  -9.744  30.183  0.00  0.00     0.239 A 
ATOM     11  C   UNL d   1      60.521  -9.720  30.112  0.00  0.00     0.053 A 
ATOM     12  O   UNL d   1      60.092  -9.696  29.456  0.00  0.00    -0.298 OA
ATOM     13  O   UNL d   1      58.871  -9.765  30.203  0.00  0.00    -0.298 OA
ATOM     14  C   UNL d   1      60.989  -9.744  30.790  0.00  0.00     0.081 A 
ATOM     15  C   UNL d   1      59.496  -9.681  28.885  0.00  0.00     0.146 A 
ATOM     16  C   UNL d   1      58.644  -9.729  29.412  0.00  0.00     0.146 A 
ENDBRANCH   6   7
ENDBRANCH   4   6
BRANCH   2  17
ATOM     17  C   UNL d   1      59.989  -8.945  34.748  0.00  0.00     0.043 A 
ATOM     18  C   UNL d   1      59.898  -9.647  35.176  0.00  0.00     0.004 A 
ATOM     19  C   UNL d   1      59.498  -9.648  35.888  0.00  0.00     0.000 A 
ATOM     20  C   UNL d   1      59.181  -8.942  36.185  0.00  0.00     0.000 A 
ATOM     21  C   UNL d   1      59.271  -8.239  35.757  0.00  0.00     0.000 A 
ATOM     22  C   UNL d   1      59.673  -8.243  35.043  0.00  0.00     0.004 A 
ENDBRANCH   2  17
TORSDOF 3
ENDMDL
