MODEL 1
REMARK VINA RESULT:      61.4      0.000      0.000
REMARK  4 active torsions:
REMARK  status: ('A' for Active; 'I' for Inactive)
REMARK    1  A    between atoms: N_2  and  C_1 
REMARK       I    between atoms: C_5  and  N_2 
REMARK    2  A    between atoms: C_8  and  C_5 
REMARK    3  A    between atoms: O_16  and  C_10 
REMARK    4  A    between atoms: O_17  and  C_12 
ROOT
ATOM      1  N   UNL d   1     -50.299  26.075  33.414  0.00  0.00    -0.184 NA
ATOM      2  C   UNL d   1     -50.527  26.763  33.810  0.00  0.00     0.281 C 
ATOM      3  O   UNL d   1     -51.270  26.783  34.166  0.00  0.00    -0.265 OA
ENDROOT
BRANCH   2   4
ATOM      4  C   UNL d   1     -50.054  27.416  33.862  0.00  0.00     0.060 A 
ATOM      5  C   UNL d   1     -50.338  28.137  33.619  0.00  0.00     0.031 A 
ATOM      6  C   UNL d   1     -49.852  28.800  33.674  0.00  0.00     0.116 A 
ATOM      7  C   UNL d   1     -49.097  28.733  33.969  0.00  0.00     0.116 A 
ATOM      8  C   UNL d   1     -48.813  28.012  34.213  0.00  0.00     0.026 A 
ATOM      9  C   UNL d   1     -49.289  27.319  34.167  0.00  0.00     0.007 A 
BRANCH   6  10
ATOM     10  O   UNL d   1     -50.145  29.550  33.421  0.00  0.00    -0.326 OA
ATOM     11  C   UNL d   1     -50.954  29.746  33.867  0.00  0.00     0.181 C 
ENDBRANCH   6  10
BRANCH   7  12
ATOM     12  O   UNL d   1     -48.614  29.406  34.021  0.00  0.00    -0.326 OA
ATOM     13  C   UNL d   1     -47.969  29.544  34.601  0.00  0.00     0.181 C 
ENDBRANCH   7  12
ENDBRANCH   2   4
BRANCH   1  14
ATOM     14  C   UNL d   1     -50.822  25.434  33.390  0.00  0.00     0.182 A 
ATOM     15  N   UNL d   1     -50.644  24.613  33.379  0.00  0.00    -0.283 N 
ATOM     16  C   UNL d   1     -51.401  24.221  33.354  0.00  0.00     0.072 A 
ATOM     17  C   UNL d   1     -49.921  24.286  33.391  0.00  0.00     0.101 C 
ATOM     18  C   UNL d   1     -51.615  23.408  33.334  0.00  0.00     0.018 A 
ATOM     19  C   UNL d   1     -51.959  24.788  33.351  0.00  0.00     0.048 A 
ATOM     20  C   UNL d   1     -52.434  23.198  33.311  0.00  0.00     0.002 A 
ATOM     21  C   UNL d   1     -52.993  23.781  33.308  0.00  0.00     0.001 A 
ATOM     22  C   UNL d   1     -52.782  24.588  33.327  0.00  0.00     0.008 A 
ATOM     23  S   UNL d   1     -51.630  25.517  33.372  0.00  0.00    -0.048 SA
ENDBRANCH   1  14
TORSDOF 4
ENDMDL
