MODEL 1
REMARK VINA RESULT:     -10.0      0.000      0.000
REMARK  1 active torsions:
REMARK  status: ('A' for Active; 'I' for Inactive)
REMARK    1  A    between atoms: N_9  and  C_4 
ROOT
ATOM      1  N   UNL d   1      52.632  32.037  53.391  0.00  0.00    -0.195 N 
ATOM      2  C   UNL d   1      52.712  32.861  53.343  0.00  0.00     0.168 A 
ATOM      3  C   UNL d   1      52.058  33.337  53.222  0.00  0.00     0.073 A 
ATOM      4  C   UNL d   1      53.298  31.578  53.513  0.00  0.00     0.154 A 
ATOM      5  N   UNL d   1      51.244  32.159  53.198  0.00  0.00    -0.143 NA
ATOM      6  C   UNL d   1      51.324  32.984  53.149  0.00  0.00     0.185 A 
ATOM      7  N   UNL d   1      53.455  33.205  53.417  0.00  0.00    -0.227 NA
ATOM      8  C   UNL d   1      52.136  34.153  53.174  0.00  0.00     0.007 A 
ATOM      9  N   UNL d   1      50.652  33.452  53.027  0.00  0.00    -0.225 NA
ATOM     10  C   UNL d   1      54.034  31.913  53.587  0.00  0.00     0.057 A 
ATOM     11  C   UNL d   1      51.483  34.629  53.053  0.00  0.00     0.019 A 
ATOM     12  C   UNL d   1      54.114  32.737  53.538  0.00  0.00     0.086 A 
ATOM     13  C   UNL d   1      50.731  34.277  52.978  0.00  0.00     0.083 A 
ATOM     14  C   UNL d   1      52.883  34.497  53.249  0.00  0.00     0.000 C 
ATOM     15  C   UNL d   1      54.888  33.091  53.616  0.00  0.00     0.021 C 
ATOM     16  C   UNL d   1      50.076  34.745  52.857  0.00  0.00     0.021 C 
ENDROOT
BRANCH   4  17
ATOM     17  N   UNL d   1      53.207  30.728  53.562  0.00  0.00    -0.271 N 
ATOM     18  C   UNL d   1      52.990  30.204  52.925  0.00  0.00     0.184 A 
ATOM     19  N   UNL d   1      52.969  29.418  53.232  0.00  0.00    -0.222 NA
ATOM     20  C   UNL d   1      53.173  29.448  54.067  0.00  0.00     0.120 A 
ATOM     21  C   UNL d   1      53.319  30.260  54.266  0.00  0.00     0.104 A 
ENDBRANCH   4  17
TORSDOF 1
ENDMDL
MODEL 2
REMARK VINA RESULT:     -10.0      0.865      3.668
REMARK  1 active torsions:
REMARK  status: ('A' for Active; 'I' for Inactive)
REMARK    1  A    between atoms: N_9  and  C_4 
ROOT
ATOM      1  N   UNL d   1      52.012  33.269  52.997  0.00  0.00    -0.195 N 
ATOM      2  C   UNL d   1      52.722  33.096  53.389  0.00  0.00     0.168 A 
ATOM      3  C   UNL d   1      53.003  32.328  53.426  0.00  0.00     0.073 A 
ATOM      4  C   UNL d   1      51.748  34.041  52.971  0.00  0.00     0.154 A 
ATOM      5  N   UNL d   1      51.859  31.907  52.675  0.00  0.00    -0.143 NA
ATOM      6  C   UNL d   1      52.570  31.735  53.068  0.00  0.00     0.185 A 
ATOM      7  N   UNL d   1      53.149  33.701  53.745  0.00  0.00    -0.227 NA
ATOM      8  C   UNL d   1      53.706  32.158  53.814  0.00  0.00     0.007 A 
ATOM      9  N   UNL d   1      52.841  30.953  53.096  0.00  0.00    -0.225 NA
ATOM     10  C   UNL d   1      52.166  34.643  53.322  0.00  0.00     0.057 A 
ATOM     11  C   UNL d   1      53.987  31.391  53.851  0.00  0.00     0.019 A 
ATOM     12  C   UNL d   1      52.876  34.471  53.714  0.00  0.00     0.086 A 
ATOM     13  C   UNL d   1      53.551  30.780  53.489  0.00  0.00     0.083 A 
ATOM     14  C   UNL d   1      54.134  32.766  54.172  0.00  0.00     0.000 C 
ATOM     15  C   UNL d   1      53.317  35.102  54.083  0.00  0.00     0.021 C 
ATOM     16  C   UNL d   1      53.825  30.014  53.521  0.00  0.00     0.021 C 
ENDROOT
BRANCH   4  17
ATOM     17  N   UNL d   1      51.014  34.210  52.564  0.00  0.00    -0.271 N 
ATOM     18  C   UNL d   1      50.906  34.279  51.720  0.00  0.00     0.184 A 
ATOM     19  N   UNL d   1      50.091  34.450  51.576  0.00  0.00    -0.222 NA
ATOM     20  C   UNL d   1      49.685  34.488  52.333  0.00  0.00     0.120 A 
ATOM     21  C   UNL d   1      50.260  34.340  52.941  0.00  0.00     0.104 A 
ENDBRANCH   4  17
TORSDOF 1
ENDMDL
MODEL 3
REMARK VINA RESULT:      -9.5      1.269      3.698
REMARK  1 active torsions:
REMARK  status: ('A' for Active; 'I' for Inactive)
REMARK    1  A    between atoms: N_9  and  C_4 
ROOT
ATOM      1  N   UNL d   1      52.395  33.480  53.513  0.00  0.00    -0.195 N 
ATOM      2  C   UNL d   1      53.033  33.000  53.741  0.00  0.00     0.168 A 
ATOM      3  C   UNL d   1      53.630  33.297  54.215  0.00  0.00     0.073 A 
ATOM      4  C   UNL d   1      51.808  33.166  53.040  0.00  0.00     0.154 A 
ATOM      5  N   UNL d   1      52.948  34.556  54.231  0.00  0.00    -0.143 NA
ATOM      6  C   UNL d   1      53.586  34.076  54.459  0.00  0.00     0.185 A 
ATOM      7  N   UNL d   1      53.065  32.219  53.490  0.00  0.00    -0.227 NA
ATOM      8  C   UNL d   1      54.260  32.822  54.441  0.00  0.00     0.007 A 
ATOM      9  N   UNL d   1      54.183  34.391  54.939  0.00  0.00    -0.225 NA
ATOM     10  C   UNL d   1      51.836  32.393  52.788  0.00  0.00     0.057 A 
ATOM     11  C   UNL d   1      54.857  33.119  54.914  0.00  0.00     0.019 A 
ATOM     12  C   UNL d   1      52.474  31.913  53.016  0.00  0.00     0.086 A 
ATOM     13  C   UNL d   1      54.820  33.911  55.167  0.00  0.00     0.083 A 
ATOM     14  C   UNL d   1      54.292  32.037  54.187  0.00  0.00     0.000 C 
ATOM     15  C   UNL d   1      52.505  31.102  52.753  0.00  0.00     0.021 C 
ATOM     16  C   UNL d   1      55.411  34.213  55.639  0.00  0.00     0.021 C 
ENDROOT
BRANCH   4  17
ATOM     17  N   UNL d   1      51.154  33.668  52.809  0.00  0.00    -0.271 N 
ATOM     18  C   UNL d   1      50.448  33.821  53.262  0.00  0.00     0.184 A 
ATOM     19  N   UNL d   1      49.962  34.347  52.815  0.00  0.00    -0.222 NA
ATOM     20  C   UNL d   1      50.365  34.525  52.076  0.00  0.00     0.120 A 
ATOM     21  C   UNL d   1      51.101  34.102  52.077  0.00  0.00     0.104 A 
ENDBRANCH   4  17
TORSDOF 1
ENDMDL
MODEL 4
REMARK VINA RESULT:      -9.2      1.130      2.608
REMARK  1 active torsions:
REMARK  status: ('A' for Active; 'I' for Inactive)
REMARK    1  A    between atoms: N_9  and  C_4 
ROOT
ATOM      1  N   UNL d   1      53.302  33.356  53.950  0.00  0.00    -0.195 N 
ATOM      2  C   UNL d   1      52.680  32.975  53.554  0.00  0.00     0.168 A 
ATOM      3  C   UNL d   1      52.015  33.392  53.323  0.00  0.00     0.073 A 
ATOM      4  C   UNL d   1      53.957  32.923  54.173  0.00  0.00     0.154 A 
ATOM      5  N   UNL d   1      52.597  34.573  53.885  0.00  0.00    -0.143 NA
ATOM      6  C   UNL d   1      51.975  34.191  53.489  0.00  0.00     0.185 A 
ATOM      7  N   UNL d   1      52.731  32.171  53.392  0.00  0.00    -0.227 NA
ATOM      8  C   UNL d   1      51.399  33.015  52.931  0.00  0.00     0.007 A 
ATOM      9  N   UNL d   1      51.309  34.627  53.262  0.00  0.00    -0.225 NA
ATOM     10  C   UNL d   1      54.013  32.128  54.015  0.00  0.00     0.057 A 
ATOM     11  C   UNL d   1      50.735  33.431  52.700  0.00  0.00     0.019 A 
ATOM     12  C   UNL d   1      53.391  31.747  53.619  0.00  0.00     0.086 A 
ATOM     13  C   UNL d   1      50.687  34.246  52.866  0.00  0.00     0.083 A 
ATOM     14  C   UNL d   1      51.452  32.207  52.769  0.00  0.00     0.000 C 
ATOM     15  C   UNL d   1      53.447  30.911  53.452  0.00  0.00     0.021 C 
ATOM     16  C   UNL d   1      50.028  34.667  52.638  0.00  0.00     0.021 C 
ENDROOT
BRANCH   4  17
ATOM     17  N   UNL d   1      54.594  33.324  54.581  0.00  0.00    -0.271 N 
ATOM     18  C   UNL d   1      54.649  33.466  55.420  0.00  0.00     0.184 A 
ATOM     19  N   UNL d   1      55.371  33.878  55.567  0.00  0.00    -0.222 NA
ATOM     20  C   UNL d   1      55.773  33.997  54.815  0.00  0.00     0.120 A 
ATOM     21  C   UNL d   1      55.288  33.652  54.209  0.00  0.00     0.104 A 
ENDBRANCH   4  17
TORSDOF 1
ENDMDL
MODEL 5
REMARK VINA RESULT:      -8.5      1.295      4.021
REMARK  1 active torsions:
REMARK  status: ('A' for Active; 'I' for Inactive)
REMARK    1  A    between atoms: N_9  and  C_4 
ROOT
ATOM      1  N   UNL d   1      52.870  33.615  53.717  0.00  0.00    -0.195 N 
ATOM      2  C   UNL d   1      52.548  32.961  53.320  0.00  0.00     0.168 A 
ATOM      3  C   UNL d   1      52.875  32.216  53.409  0.00  0.00     0.073 A 
ATOM      4  C   UNL d   1      52.530  34.350  53.615  0.00  0.00     0.154 A 
ATOM      5  N   UNL d   1      53.847  32.783  54.294  0.00  0.00    -0.143 NA
ATOM      6  C   UNL d   1      53.525  32.129  53.897  0.00  0.00     0.185 A 
ATOM      7  N   UNL d   1      51.894  33.061  52.832  0.00  0.00    -0.227 NA
ATOM      8  C   UNL d   1      52.557  31.569  53.016  0.00  0.00     0.007 A 
ATOM      9  N   UNL d   1      53.868  31.382  53.997  0.00  0.00    -0.225 NA
ATOM     10  C   UNL d   1      51.883  34.455  53.134  0.00  0.00     0.057 A 
ATOM     11  C   UNL d   1      52.883  30.825  53.105  0.00  0.00     0.019 A 
ATOM     12  C   UNL d   1      51.561  33.801  52.737  0.00  0.00     0.086 A 
ATOM     13  C   UNL d   1      53.546  30.728  53.600  0.00  0.00     0.083 A 
ATOM     14  C   UNL d   1      51.900  31.671  52.527  0.00  0.00     0.000 C 
ATOM     15  C   UNL d   1      50.882  33.908  52.231  0.00  0.00     0.021 C 
ATOM     16  C   UNL d   1      53.876  29.989  53.694  0.00  0.00     0.021 C 
ENDROOT
BRANCH   4  17
ATOM     17  N   UNL d   1      52.868  35.020  54.028  0.00  0.00    -0.271 N 
ATOM     18  C   UNL d   1      53.522  35.500  53.766  0.00  0.00     0.184 A 
ATOM     19  N   UNL d   1      53.660  36.092  54.351  0.00  0.00    -0.222 NA
ATOM     20  C   UNL d   1      53.090  35.984  54.985  0.00  0.00     0.120 A 
ATOM     21  C   UNL d   1      52.602  35.320  54.781  0.00  0.00     0.104 A 
ENDBRANCH   4  17
TORSDOF 1
ENDMDL
MODEL 6
REMARK VINA RESULT:      -8.3      1.258      2.701
REMARK  1 active torsions:
REMARK  status: ('A' for Active; 'I' for Inactive)
REMARK    1  A    between atoms: N_9  and  C_4 
ROOT
ATOM      1  N   UNL d   1      53.072  32.075  53.685  0.00  0.00    -0.195 N 
ATOM      2  C   UNL d   1      53.075  32.898  53.795  0.00  0.00     0.168 A 
ATOM      3  C   UNL d   1      53.642  33.253  54.266  0.00  0.00     0.073 A 
ATOM      4  C   UNL d   1      52.498  31.738  53.211  0.00  0.00     0.154 A 
ATOM      5  N   UNL d   1      54.203  31.960  54.515  0.00  0.00    -0.143 NA
ATOM      6  C   UNL d   1      54.205  32.782  54.625  0.00  0.00     0.185 A 
ATOM      7  N   UNL d   1      52.504  33.361  53.429  0.00  0.00    -0.227 NA
ATOM      8  C   UNL d   1      53.645  34.067  54.375  0.00  0.00     0.007 A 
ATOM      9  N   UNL d   1      54.786  33.128  55.105  0.00  0.00    -0.225 NA
ATOM     10  C   UNL d   1      51.931  32.192  52.846  0.00  0.00     0.057 A 
ATOM     11  C   UNL d   1      54.211  34.423  54.845  0.00  0.00     0.019 A 
ATOM     12  C   UNL d   1      51.934  33.014  52.957  0.00  0.00     0.086 A 
ATOM     13  C   UNL d   1      54.789  33.950  55.215  0.00  0.00     0.083 A 
ATOM     14  C   UNL d   1      53.071  34.531  54.006  0.00  0.00     0.000 C 
ATOM     15  C   UNL d   1      51.339  33.492  52.574  0.00  0.00     0.021 C 
ATOM     16  C   UNL d   1      55.356  34.298  55.685  0.00  0.00     0.021 C 
ENDROOT
BRANCH   4  17
ATOM     17  N   UNL d   1      52.503  30.889  53.103  0.00  0.00    -0.271 N 
ATOM     18  C   UNL d   1      52.035  30.320  53.533  0.00  0.00     0.184 A 
ATOM     19  N   UNL d   1      52.224  29.552  53.237  0.00  0.00    -0.222 NA
ATOM     20  C   UNL d   1      52.813  29.638  52.617  0.00  0.00     0.120 A 
ATOM     21  C   UNL d   1      52.982  30.467  52.538  0.00  0.00     0.104 A 
ENDBRANCH   4  17
TORSDOF 1
ENDMDL
