MODEL 1
REMARK VINA RESULT:      35.5      0.000      0.000
REMARK  6 active torsions:
REMARK  status: ('A' for Active; 'I' for Inactive)
REMARK    1  A    between atoms: C_2  and  C_4 
REMARK    2  A    between atoms: C_5  and  C_3 
REMARK    3  A    between atoms: C_16  and  C_15 
REMARK    4  A    between atoms: C_17  and  C_16 
REMARK    5  A    between atoms: C_19  and  C_17 
REMARK    6  A    between atoms: C_18  and  C_19 
ROOT
ATOM      1  N   UNL d   1      58.330  49.708  50.938  0.00  0.00    -0.244 NA
ATOM      2  C   UNL d   1      59.053  49.663  50.511  0.00  0.00     0.081 A 
ATOM      3  C   UNL d   1      59.033  49.613  49.668  0.00  0.00     0.019 A 
ATOM      4  C   UNL d   1      57.571  49.702  50.531  0.00  0.00     0.099 A 
ATOM      5  C   UNL d   1      58.319  49.607  49.275  0.00  0.00     0.003 A 
ATOM      6  C   UNL d   1      57.596  49.651  49.702  0.00  0.00     0.019 A 
ENDROOT
BRANCH   2   7
ATOM      7  C   UNL d   1      59.734  49.671  50.910  0.00  0.00     0.018 A 
ATOM      8  C   UNL d   1      59.723  49.690  51.724  0.00  0.00     0.002 A 
ATOM      9  C   UNL d   1      60.462  49.697  52.138  0.00  0.00     0.006 A 
ATOM     10  C   UNL d   1      61.168  49.685  51.725  0.00  0.00     0.064 A 
ATOM     11  C   UNL d   1      61.159  49.665  50.874  0.00  0.00     0.006 A 
ATOM     12  C   UNL d   1      60.438  49.658  50.493  0.00  0.00     0.002 A 
BRANCH  10  13
ATOM     13  C   UNL d   1      61.907  49.692  52.138  0.00  0.00     0.211 C 
ATOM     14  O   UNL d   1      61.970  49.686  52.973  0.00  0.00    -0.644 OA
ATOM     15  O   UNL d   1      62.636  49.707  51.698  0.00  0.00    -0.644 OA
ENDBRANCH  10  13
ENDBRANCH   2   7
BRANCH   6  16
ATOM     16  C   UNL d   1      56.834  49.645  49.296  0.00  0.00     0.002 C 
BRANCH  16  17
ATOM     17  C   UNL d   1      56.306  49.058  49.493  0.00  0.00     0.000 C 
BRANCH  17  18
ATOM     18  C   UNL d   1      56.407  48.281  49.169  0.00  0.00     0.000 C 
BRANCH  18  19
ATOM     19  C   UNL d   1      56.342  47.624  49.611  0.00  0.00     0.000 C 
ATOM     20  C   UNL d   1      56.675  46.914  49.376  0.00  0.00     0.000 C 
ENDBRANCH  18  19
ENDBRANCH  17  18
ENDBRANCH  16  17
ENDBRANCH   6  16
TORSDOF 6
ENDMDL
