MODEL 1
REMARK VINA RESULT:      29.1      0.000      0.000
REMARK  3 active torsions:
REMARK  status: ('A' for Active; 'I' for Inactive)
REMARK    1  A    between atoms: S_3  and  N_1 
REMARK    2  A    between atoms: C_7  and  C_4 
REMARK    3  A    between atoms: C_16  and  C_5 
ROOT
ATOM      1  N   UNL d   1      44.879 -15.876  44.334  0.00  0.00    -0.155 N 
ATOM      2  N   UNL d   1      44.940 -16.698  44.183  0.00  0.00    -0.156 NA
ATOM      3  C   UNL d   1      45.575 -15.526  44.128  0.00  0.00     0.096 A 
ATOM      4  C   UNL d   1      45.694 -16.831  43.880  0.00  0.00     0.103 A 
ATOM      5  C   UNL d   1      46.083 -16.089  43.850  0.00  0.00     0.041 A 
ENDROOT
BRANCH   3   6
ATOM      6  C   UNL d   1      45.742 -14.720  44.191  0.00  0.00     0.021 A 
ATOM      7  C   UNL d   1      45.589 -14.189  43.559  0.00  0.00     0.028 A 
ATOM      8  C   UNL d   1      45.756 -13.382  43.622  0.00  0.00     0.119 A 
ATOM      9  O   UNL d   1      45.658 -12.787  43.102  0.00  0.00    -0.300 OA
ATOM     10  C   UNL d   1      46.077 -13.109  44.316  0.00  0.00     0.119 A 
ATOM     11  C   UNL d   1      45.927 -12.081  43.469  0.00  0.00     0.304 A 
ATOM     12  O   UNL d   1      46.186 -12.307  44.230  0.00  0.00    -0.300 OA
ATOM     13  C   UNL d   1      46.240 -13.586  44.946  0.00  0.00     0.026 A 
ATOM     14  C   UNL d   1      46.072 -14.393  44.883  0.00  0.00     0.004 A 
ENDBRANCH   3   6
BRANCH   1  15
ATOM     15  S   UNL d   1      44.196 -15.506  44.648  0.00  0.00     0.266 S 
ATOM     16  O   UNL d   1      43.983 -16.236  44.947  0.00  0.00    -0.203 OA
ATOM     17  O   UNL d   1      44.443 -14.776  44.328  0.00  0.00    -0.203 OA
ATOM     18  C   UNL d   1      43.532 -15.156  44.955  0.00  0.00     0.165 C 
ENDBRANCH   1  15
BRANCH   4  19
ATOM     19  C   UNL d   1      46.013 -17.553  43.648  0.00  0.00     0.019 A 
ATOM     20  C   UNL d   1      46.119 -18.116  44.257  0.00  0.00     0.002 A 
ATOM     21  C   UNL d   1      46.446 -18.864  44.034  0.00  0.00     0.000 A 
ATOM     22  C   UNL d   1      46.647 -19.012  43.244  0.00  0.00     0.000 A 
ATOM     23  C   UNL d   1      46.526 -18.435  42.687  0.00  0.00     0.000 A 
ATOM     24  C   UNL d   1      46.213 -17.719  42.894  0.00  0.00     0.002 A 
ENDBRANCH   4  19
TORSDOF 3
ENDMDL
