MODEL 1
REMARK VINA RESULT:      -4.6      0.000      0.000
REMARK  6 active torsions:
REMARK  status: ('A' for Active; 'I' for Inactive)
REMARK    1  A    between atoms: C_11  and  C_2 
REMARK    2  A    between atoms: S_9  and  C_7 
REMARK    3  A    between atoms: C_13  and  S_9 
REMARK    4  A    between atoms: C_10  and  C_13 
REMARK    5  A    between atoms: O_18  and  C_10 
REMARK    6  A    between atoms: C_23  and  O_18 
ROOT
ATOM      1  N   UNL d   1      58.463  -0.615  29.625  0.00  0.00    -0.191 N 
ATOM      2  C   UNL d   1      58.967  -0.960  29.080  0.00  0.00     0.187 A 
ATOM      3  N   UNL d   1      59.269  -0.363  28.605  0.00  0.00    -0.127 NA
ATOM      4  C   UNL d   1      58.442   0.194  29.499  0.00  0.00     0.187 A 
ATOM      5  N   UNL d   1      58.002  -0.946  30.243  0.00  0.00    -0.156 NA
ATOM      6  N   UNL d   1      58.949   0.355  28.858  0.00  0.00    -0.127 NA
ATOM      7  C   UNL d   1      57.534  -0.458  30.718  0.00  0.00     0.131 A 
ATOM      8  C   UNL d   1      57.975   0.682  29.974  0.00  0.00     0.043 A 
ATOM      9  C   UNL d   1      57.521   0.356  30.582  0.00  0.00     0.031 A 
ENDROOT
BRANCH   7  10
ATOM     10  S   UNL d   1      57.080  -0.784  31.326  0.00  0.00    -0.061 SA
BRANCH  10  11
ATOM     11  C   UNL d   1      56.970  -0.364  32.026  0.00  0.00     0.094 C 
ATOM     12  C   UNL d   1      57.482   0.243  32.221  0.00  0.00     0.013 C 
BRANCH  11  13
ATOM     13  C   UNL d   1      56.351  -0.554  32.521  0.00  0.00     0.306 C 
ATOM     14  O   UNL d   1      56.139  -1.344  32.638  0.00  0.00    -0.258 OA
BRANCH  13  15
ATOM     15  O   UNL d   1      55.926   0.037  32.914  0.00  0.00    -0.271 OA
BRANCH  15  16
ATOM     16  C   UNL d   1      55.329  -0.159  33.425  0.00  0.00     0.126 C 
ATOM     17  C   UNL d   1      54.931   0.437  33.811  0.00  0.00     0.029 C 
ENDBRANCH  15  16
ENDBRANCH  13  15
ENDBRANCH  11  13
ENDBRANCH  10  11
ENDBRANCH   7  10
BRANCH   2  18
ATOM     18  C   UNL d   1      59.145  -1.757  29.013  0.00  0.00     0.038 A 
ATOM     19  C   UNL d   1      59.834  -2.051  29.366  0.00  0.00     0.005 A 
ATOM     20  C   UNL d   1      60.018  -2.856  29.302  0.00  0.00     0.030 A 
ATOM     21  C   UNL d   1      59.513  -3.359  28.886  0.00  0.00     0.140 A 
ATOM     22  C   UNL d   1      58.824  -3.065  28.533  0.00  0.00     0.030 A 
ATOM     23  F   UNL d   1      59.693  -4.160  28.820  0.00  0.00    -0.204 F 
ATOM     24  C   UNL d   1      58.647  -2.260  28.602  0.00  0.00     0.005 A 
ENDBRANCH   2  18
TORSDOF 6
ENDMDL
MODEL 2
REMARK VINA RESULT:      -3.2      2.561      4.667
REMARK  6 active torsions:
REMARK  status: ('A' for Active; 'I' for Inactive)
REMARK    1  A    between atoms: C_11  and  C_2 
REMARK    2  A    between atoms: S_9  and  C_7 
REMARK    3  A    between atoms: C_13  and  S_9 
REMARK    4  A    between atoms: C_10  and  C_13 
REMARK    5  A    between atoms: O_18  and  C_10 
REMARK    6  A    between atoms: C_23  and  O_18 
ROOT
ATOM      1  N   UNL d   1      58.068  -0.270  30.003  0.00  0.00    -0.191 N 
ATOM      2  C   UNL d   1      57.483   0.072  30.464  0.00  0.00     0.187 A 
ATOM      3  N   UNL d   1      57.114   0.649  30.013  0.00  0.00    -0.127 NA
ATOM      4  C   UNL d   1      58.071   0.085  29.265  0.00  0.00     0.187 A 
ATOM      5  N   UNL d   1      58.618  -0.882  30.167  0.00  0.00    -0.156 NA
ATOM      6  N   UNL d   1      57.472   0.663  29.269  0.00  0.00    -0.127 NA
ATOM      7  C   UNL d   1      59.155  -1.122  29.588  0.00  0.00     0.131 A 
ATOM      8  C   UNL d   1      58.608  -0.155  28.686  0.00  0.00     0.043 A 
ATOM      9  C   UNL d   1      59.150  -0.757  28.847  0.00  0.00     0.031 A 
ENDROOT
BRANCH   7  10
ATOM     10  S   UNL d   1      59.697  -1.724  29.749  0.00  0.00    -0.061 SA
BRANCH  10  11
ATOM     11  C   UNL d   1      59.676  -2.422  29.312  0.00  0.00     0.094 C 
ATOM     12  C   UNL d   1      58.962  -2.705  29.031  0.00  0.00     0.013 C 
BRANCH  11  13
ATOM     13  C   UNL d   1      60.366  -2.829  29.160  0.00  0.00     0.306 C 
ATOM     14  O   UNL d   1      61.069  -2.417  29.022  0.00  0.00    -0.258 OA
BRANCH  13  15
ATOM     15  O   UNL d   1      60.376  -3.655  29.143  0.00  0.00    -0.271 OA
BRANCH  15  16
ATOM     16  C   UNL d   1      61.054  -4.052  28.947  0.00  0.00     0.126 C 
ATOM     17  C   UNL d   1      61.000  -4.827  28.705  0.00  0.00     0.029 C 
ENDBRANCH  15  16
ENDBRANCH  13  15
ENDBRANCH  11  13
ENDBRANCH  10  11
ENDBRANCH   7  10
BRANCH   2  18
ATOM     18  C   UNL d   1      57.295  -0.121  31.238  0.00  0.00     0.038 A 
ATOM     19  C   UNL d   1      57.532   0.381  31.852  0.00  0.00     0.005 A 
ATOM     20  C   UNL d   1      57.344   0.191  32.636  0.00  0.00     0.030 A 
ATOM     21  C   UNL d   1      56.921  -0.499  32.799  0.00  0.00     0.140 A 
ATOM     22  C   UNL d   1      56.684  -1.001  32.185  0.00  0.00     0.030 A 
ATOM     23  F   UNL d   1      56.733  -0.691  33.577  0.00  0.00    -0.204 F 
ATOM     24  C   UNL d   1      56.875  -0.804  31.405  0.00  0.00     0.005 A 
ENDBRANCH   2  18
TORSDOF 6
ENDMDL
MODEL 3
REMARK VINA RESULT:      -2.0      2.452      4.724
REMARK  6 active torsions:
REMARK  status: ('A' for Active; 'I' for Inactive)
REMARK    1  A    between atoms: C_11  and  C_2 
REMARK    2  A    between atoms: S_9  and  C_7 
REMARK    3  A    between atoms: C_13  and  S_9 
REMARK    4  A    between atoms: C_10  and  C_13 
REMARK    5  A    between atoms: O_18  and  C_10 
REMARK    6  A    between atoms: C_23  and  O_18 
ROOT
ATOM      1  N   UNL d   1      57.913   0.162  32.012  0.00  0.00    -0.191 N 
ATOM      2  C   UNL d   1      57.489   0.193  32.712  0.00  0.00     0.187 A 
ATOM      3  N   UNL d   1      57.978   0.514  33.287  0.00  0.00    -0.127 NA
ATOM      4  C   UNL d   1      58.665   0.459  32.139  0.00  0.00     0.187 A 
ATOM      5  N   UNL d   1      57.703  -0.110  31.246  0.00  0.00    -0.156 NA
ATOM      6  N   UNL d   1      58.709   0.681  32.940  0.00  0.00    -0.127 NA
ATOM      7  C   UNL d   1      58.251  -0.076  30.630  0.00  0.00     0.131 A 
ATOM      8  C   UNL d   1      59.213   0.492  31.523  0.00  0.00     0.043 A 
ATOM      9  C   UNL d   1      59.006   0.225  30.769  0.00  0.00     0.031 A 
ENDROOT
BRANCH   7  10
ATOM     10  S   UNL d   1      58.043  -0.343  29.876  0.00  0.00    -0.061 SA
BRANCH  10  11
ATOM     11  C   UNL d   1      58.626  -0.623  29.366  0.00  0.00     0.094 C 
ATOM     12  C   UNL d   1      59.295  -0.174  29.226  0.00  0.00     0.013 C 
BRANCH  11  13
ATOM     13  C   UNL d   1      58.534  -1.347  29.002  0.00  0.00     0.306 C 
ATOM     14  O   UNL d   1      57.926  -1.463  28.455  0.00  0.00    -0.258 OA
BRANCH  13  15
ATOM     15  O   UNL d   1      59.045  -1.975  29.172  0.00  0.00    -0.271 OA
BRANCH  15  16
ATOM     16  C   UNL d   1      59.126  -2.590  28.652  0.00  0.00     0.126 C 
ATOM     17  C   UNL d   1      59.545  -3.248  28.883  0.00  0.00     0.029 C 
ENDBRANCH  15  16
ENDBRANCH  13  15
ENDBRANCH  11  13
ENDBRANCH  10  11
ENDBRANCH   7  10
BRANCH   2  18
ATOM     18  C   UNL d   1      56.714  -0.049  32.827  0.00  0.00     0.038 A 
ATOM     19  C   UNL d   1      56.541  -0.858  32.853  0.00  0.00     0.005 A 
ATOM     20  C   UNL d   1      55.760  -1.108  32.969  0.00  0.00     0.030 A 
ATOM     21  C   UNL d   1      55.160  -0.548  33.057  0.00  0.00     0.140 A 
ATOM     22  C   UNL d   1      55.333   0.261  33.030  0.00  0.00     0.030 A 
ATOM     23  F   UNL d   1      54.382  -0.794  33.172  0.00  0.00    -0.204 F 
ATOM     24  C   UNL d   1      56.115   0.503  32.915  0.00  0.00     0.005 A 
ENDBRANCH   2  18
TORSDOF 6
ENDMDL
