MODEL 1
REMARK VINA RESULT:      37.0      0.000      0.000
REMARK  2 active torsions:
REMARK  status: ('A' for Active; 'I' for Inactive)
REMARK    1  A    between atoms: C_10  and  N_1 
REMARK    2  A    between atoms: C_11  and  C_10 
ROOT
ATOM      1  N   UNL d   1      58.207  49.703  50.722  0.00  0.00    -0.187 N 
ATOM      2  N   UNL d   1      58.621  49.704  51.564  0.00  0.00    -0.162 NA
ATOM      3  C   UNL d   1      59.496  49.705  51.674  0.00  0.00     0.102 A 
ATOM      4  C   UNL d   1      59.845  49.706  50.929  0.00  0.00     0.024 A 
ATOM      5  C   UNL d   1      58.708  49.704  50.065  0.00  0.00     0.281 A 
ATOM      6  C   UNL d   1      59.526  49.705  50.168  0.00  0.00     0.059 A 
ATOM      7  C   UNL d   1      60.671  49.707  51.033  0.00  0.00     0.002 A 
ATOM      8  C   UNL d   1      60.101  49.705  52.233  0.00  0.00     0.019 A 
ATOM      9  C   UNL d   1      60.824  49.706  51.842  0.00  0.00     0.002 A 
ATOM     10  O   UNL d   1      58.377  49.704  49.293  0.00  0.00    -0.265 OA
ATOM     11  C   UNL d   1      60.025  49.707  49.505  0.00  0.00     0.005 A 
ATOM     12  C   UNL d   1      61.166  49.708  50.375  0.00  0.00     0.000 A 
ATOM     13  C   UNL d   1      60.086  49.705  53.058  0.00  0.00     0.002 A 
ATOM     14  C   UNL d   1      61.533  49.707  52.266  0.00  0.00     0.000 A 
ATOM     15  C   UNL d   1      60.851  49.708  49.610  0.00  0.00     0.000 A 
ATOM     16  C   UNL d   1      61.511  49.707  53.090  0.00  0.00     0.000 A 
ATOM     17  C   UNL d   1      60.793  49.705  53.490  0.00  0.00     0.000 A 
ENDROOT
BRANCH   1  18
ATOM     18  C   UNL d   1      57.430  49.702  50.425  0.00  0.00     0.174 C 
BRANCH  18  19
ATOM     19  C   UNL d   1      56.793  49.477  50.910  0.00  0.00     0.231 C 
ATOM     20  O   UNL d   1      56.368  48.805  50.731  0.00  0.00    -0.643 OA
ATOM     21  O   UNL d   1      56.359  49.660  51.565  0.00  0.00    -0.643 OA
ENDBRANCH  18  19
ENDBRANCH   1  18
TORSDOF 2
ENDMDL
MODEL 2
REMARK VINA RESULT:      37.7      1.772      3.370
REMARK  2 active torsions:
REMARK  status: ('A' for Active; 'I' for Inactive)
REMARK    1  A    between atoms: C_10  and  N_1 
REMARK    2  A    between atoms: C_11  and  C_10 
ROOT
ATOM      1  N   UNL d   1      60.235  49.708  51.015  0.00  0.00    -0.187 N 
ATOM      2  N   UNL d   1      59.486  49.707  51.579  0.00  0.00    -0.162 NA
ATOM      3  C   UNL d   1      58.655  49.707  51.282  0.00  0.00     0.102 A 
ATOM      4  C   UNL d   1      58.680  49.707  50.460  0.00  0.00     0.024 A 
ATOM      5  C   UNL d   1      60.086  49.707  50.203  0.00  0.00     0.281 A 
ATOM      6  C   UNL d   1      59.309  49.707  49.925  0.00  0.00     0.059 A 
ATOM      7  C   UNL d   1      57.897  49.706  50.180  0.00  0.00     0.002 A 
ATOM      8  C   UNL d   1      57.863  49.707  51.508  0.00  0.00     0.019 A 
ATOM      9  C   UNL d   1      57.395  49.706  50.832  0.00  0.00     0.002 A 
ATOM     10  O   UNL d   1      60.730  49.708  49.664  0.00  0.00    -0.265 OA
ATOM     11  C   UNL d   1      59.163  49.707  49.108  0.00  0.00     0.005 A 
ATOM     12  C   UNL d   1      57.752  49.706  49.369  0.00  0.00     0.000 A 
ATOM     13  C   UNL d   1      57.504  49.707  52.250  0.00  0.00     0.002 A 
ATOM     14  C   UNL d   1      56.570  49.706  50.890  0.00  0.00     0.000 A 
ATOM     15  C   UNL d   1      58.380  49.706  48.829  0.00  0.00     0.000 A 
ATOM     16  C   UNL d   1      56.218  49.706  51.635  0.00  0.00     0.000 A 
ATOM     17  C   UNL d   1      56.678  49.706  52.316  0.00  0.00     0.000 A 
ENDROOT
BRANCH   1  18
ATOM     18  C   UNL d   1      61.063  49.708  51.102  0.00  0.00     0.174 C 
BRANCH  18  19
ATOM     19  C   UNL d   1      61.409  49.637  51.854  0.00  0.00     0.231 C 
ATOM     20  O   UNL d   1      60.940  49.674  52.520  0.00  0.00    -0.643 OA
ATOM     21  O   UNL d   1      62.098  49.533  52.262  0.00  0.00    -0.643 OA
ENDBRANCH  18  19
ENDBRANCH   1  18
TORSDOF 2
ENDMDL
