MODEL 1
REMARK VINA RESULT:      12.8      0.000      0.000
REMARK  6 active torsions:
REMARK  status: ('A' for Active; 'I' for Inactive)
REMARK    1  A    between atoms: C_11  and  N_2 
REMARK    2  A    between atoms: O_15  and  C_9 
REMARK    3  A    between atoms: C_10  and  O_14 
REMARK    4  A    between atoms: C_16  and  C_11 
REMARK    5  A    between atoms: O_14  and  C_17 
REMARK    6  A    between atoms: C_17  and  C_16 
ROOT
ATOM      1  C   UNL d   1      45.439 -15.387  43.489  0.00  0.00     0.087 C 
ENDROOT
BRANCH   1   2
ATOM      2  N   UNL d   1      45.711 -14.771  43.971  0.00  0.00    -0.251 N 
ATOM      3  C   UNL d   1      46.205 -14.812  44.634  0.00  0.00     0.378 A 
ATOM      4  O   UNL d   1      46.311 -14.038  44.920  0.00  0.00    -0.258 OA
ATOM      5  O   UNL d   1      46.533 -15.498  44.955  0.00  0.00    -0.237 OA
ATOM      6  C   UNL d   1      45.885 -13.523  44.434  0.00  0.00     0.121 A 
ATOM      7  C   UNL d   1      45.779 -12.696  44.441  0.00  0.00     0.026 A 
ATOM      8  C   UNL d   1      45.513 -13.975  43.847  0.00  0.00     0.092 A 
ATOM      9  C   UNL d   1      45.310 -12.332  43.870  0.00  0.00     0.002 A 
ATOM     10  C   UNL d   1      44.940 -12.788  43.285  0.00  0.00     0.002 A 
ATOM     11  C   UNL d   1      45.041 -13.605  43.274  0.00  0.00     0.020 A 
ATOM     12  C   UNL d   1      44.472 -12.424  42.715  0.00  0.00     0.000 C 
ENDBRANCH   1   2
BRANCH   1  13
ATOM     13  C   UNL d   1      45.438 -16.161  43.763  0.00  0.00     0.046 C 
BRANCH  13  14
ATOM     14  C   UNL d   1      45.795 -16.763  43.322  0.00  0.00     0.124 C 
BRANCH  14  15
ATOM     15  O   UNL d   1      45.916 -17.500  43.653  0.00  0.00    -0.303 OA
BRANCH  15  16
ATOM     16  C   UNL d   1      46.158 -18.091  43.135  0.00  0.00     0.122 A 
ATOM     17  C   UNL d   1      46.379 -18.834  43.431  0.00  0.00     0.117 A 
ATOM     18  C   UNL d   1      46.621 -19.427  42.910  0.00  0.00     0.026 A 
ATOM     19  C   UNL d   1      46.641 -19.272  42.100  0.00  0.00     0.002 A 
ATOM     20  C   UNL d   1      46.420 -18.533  41.813  0.00  0.00     0.002 A 
ATOM     21  C   UNL d   1      46.178 -17.942  42.330  0.00  0.00     0.027 A 
BRANCH  17  22
ATOM     22  O   UNL d   1      46.356 -18.978  44.242  0.00  0.00    -0.326 OA
ATOM     23  C   UNL d   1      46.363 -19.727  44.575  0.00  0.00     0.181 C 
ENDBRANCH  17  22
ENDBRANCH  15  16
ENDBRANCH  14  15
ENDBRANCH  13  14
ENDBRANCH   1  13
TORSDOF 6
ENDMDL
MODEL 2
REMARK VINA RESULT:      14.3      1.359      5.263
REMARK  6 active torsions:
REMARK  status: ('A' for Active; 'I' for Inactive)
REMARK    1  A    between atoms: C_11  and  N_2 
REMARK    2  A    between atoms: O_15  and  C_9 
REMARK    3  A    between atoms: C_10  and  O_14 
REMARK    4  A    between atoms: C_16  and  C_11 
REMARK    5  A    between atoms: O_14  and  C_17 
REMARK    6  A    between atoms: C_17  and  C_16 
ROOT
ATOM      1  C   UNL d   1      46.577 -17.300  43.080  0.00  0.00     0.087 C 
ENDROOT
BRANCH   1   2
ATOM      2  N   UNL d   1      46.501 -18.030  42.696  0.00  0.00    -0.251 N 
ATOM      3  C   UNL d   1      46.454 -18.184  41.884  0.00  0.00     0.378 A 
ATOM      4  O   UNL d   1      46.382 -19.007  41.786  0.00  0.00    -0.258 OA
ATOM      5  O   UNL d   1      46.476 -17.623  41.279  0.00  0.00    -0.237 OA
ATOM      6  C   UNL d   1      46.383 -19.358  42.535  0.00  0.00     0.121 A 
ATOM      7  C   UNL d   1      46.328 -20.149  42.789  0.00  0.00     0.026 A 
ATOM      8  C   UNL d   1      46.457 -18.754  43.098  0.00  0.00     0.092 A 
ATOM      9  C   UNL d   1      46.346 -20.330  43.592  0.00  0.00     0.002 A 
ATOM     10  C   UNL d   1      46.420 -19.723  44.152  0.00  0.00     0.002 A 
ATOM     11  C   UNL d   1      46.475 -18.940  43.906  0.00  0.00     0.020 A 
ATOM     12  C   UNL d   1      46.438 -19.904  44.955  0.00  0.00     0.000 C 
ENDBRANCH   1   2
BRANCH   1  13
ATOM     13  C   UNL d   1      46.015 -17.055  43.626  0.00  0.00     0.046 C 
BRANCH  13  14
ATOM     14  C   UNL d   1      46.197 -16.474  44.185  0.00  0.00     0.124 C 
BRANCH  14  15
ATOM     15  O   UNL d   1      46.224 -15.687  43.968  0.00  0.00    -0.303 OA
BRANCH  15  16
ATOM     16  C   UNL d   1      45.620 -15.213  44.261  0.00  0.00     0.122 A 
ATOM     17  C   UNL d   1      45.649 -14.391  44.149  0.00  0.00     0.117 A 
ATOM     18  C   UNL d   1      45.042 -13.915  44.444  0.00  0.00     0.026 A 
ATOM     19  C   UNL d   1      44.413 -14.264  44.847  0.00  0.00     0.002 A 
ATOM     20  C   UNL d   1      44.389 -15.081  44.954  0.00  0.00     0.002 A 
ATOM     21  C   UNL d   1      44.993 -15.555  44.661  0.00  0.00     0.027 A 
BRANCH  17  22
ATOM     22  O   UNL d   1      46.283 -14.052  43.746  0.00  0.00    -0.326 OA
ATOM     23  C   UNL d   1      46.376 -13.246  43.632  0.00  0.00     0.181 C 
ENDBRANCH  17  22
ENDBRANCH  15  16
ENDBRANCH  14  15
ENDBRANCH  13  14
ENDBRANCH   1  13
TORSDOF 6
ENDMDL
