MODEL 1
REMARK VINA RESULT:      37.4      0.000      0.000
REMARK  5 active torsions:
REMARK  status: ('A' for Active; 'I' for Inactive)
REMARK       I    between atoms: N_3  and  C_1 
REMARK    1  A    between atoms: C_4  and  C_1 
REMARK    2  A    between atoms: C_2  and  C_6 
REMARK    3  A    between atoms: O_5  and  C_2 
REMARK    4  A    between atoms: C_11  and  N_3 
REMARK    5  A    between atoms: C_14  and  O_5 
ROOT
ATOM      1  C   UNL d   1     -54.814-101.813 -40.044  0.00  0.00     0.064 A 
ATOM      2  C   UNL d   1     -54.728-101.006 -40.201  0.00  0.00     0.008 A 
ATOM      3  C   UNL d   1     -54.886-102.351 -40.672  0.00  0.00     0.008 A 
ATOM      4  C   UNL d   1     -54.786-101.273 -41.606  0.00  0.00     0.135 A 
ATOM      5  C   UNL d   1     -54.715-100.736 -40.977  0.00  0.00     0.032 A 
ATOM      6  C   UNL d   1     -54.871-102.077 -41.453  0.00  0.00     0.032 A 
ENDROOT
BRANCH   1   7
ATOM      7  C   UNL d   1     -54.827-102.079 -39.261  0.00  0.00     0.300 C 
ATOM      8  O   UNL d   1     -54.719-102.879 -39.103  0.00  0.00    -0.259 OA
BRANCH   7   9
ATOM      9  O   UNL d   1     -54.948-101.544 -38.644  0.00  0.00    -0.273 OA
BRANCH   9  10
ATOM     10  C   UNL d   1     -55.050-101.824 -37.875  0.00  0.00     0.103 A 
ATOM     11  C   UNL d   1     -55.482-102.513 -37.743  0.00  0.00     0.025 A 
ATOM     12  C   UNL d   1     -55.581-102.786 -36.981  0.00  0.00     0.002 A 
ATOM     13  C   UNL d   1     -55.255-102.382 -36.340  0.00  0.00     0.000 A 
ATOM     14  C   UNL d   1     -54.820-101.687 -36.477  0.00  0.00     0.002 A 
ATOM     15  C   UNL d   1     -54.718-101.409 -37.244  0.00  0.00     0.025 A 
ENDBRANCH   9  10
ENDBRANCH   7   9
ENDBRANCH   1   7
BRANCH   4  16
ATOM     16  N   UNL d   1     -54.772-100.996 -42.389  0.00  0.00    -0.368 NA
ATOM     17  C   UNL d   1     -54.757-100.721 -43.162  0.00  0.00     0.303 C 
ATOM     18  O   UNL d   1     -54.719-101.254 -43.789  0.00  0.00    -0.256 OA
BRANCH  17  19
ATOM     19  C   UNL d   1     -54.782 -99.911 -43.309  0.00  0.00     0.085 C 
ATOM     20  C   UNL d   1     -54.830 -99.374 -42.684  0.00  0.00     0.011 C 
ATOM     21  C   UNL d   1     -54.735-100.261 -44.058  0.00  0.00     0.011 C 
ATOM     22  C   UNL d   1     -54.758 -99.631 -44.084  0.00  0.00     0.011 C 
ENDBRANCH  17  19
ENDBRANCH   4  16
TORSDOF 5
ENDMDL
MODEL 2
REMARK VINA RESULT:      38.9      1.038      1.520
REMARK  5 active torsions:
REMARK  status: ('A' for Active; 'I' for Inactive)
REMARK       I    between atoms: N_3  and  C_1 
REMARK    1  A    between atoms: C_4  and  C_1 
REMARK    2  A    between atoms: C_2  and  C_6 
REMARK    3  A    between atoms: O_5  and  C_2 
REMARK    4  A    between atoms: C_11  and  N_3 
REMARK    5  A    between atoms: C_14  and  O_5 
ROOT
ATOM      1  C   UNL d   1     -54.733-101.567 -41.230  0.00  0.00     0.064 A 
ATOM      2  C   UNL d   1     -54.711-100.746 -41.131  0.00  0.00     0.008 A 
ATOM      3  C   UNL d   1     -54.758-101.891 -41.994  0.00  0.00     0.008 A 
ATOM      4  C   UNL d   1     -54.739-100.576 -42.553  0.00  0.00     0.135 A 
ATOM      5  C   UNL d   1     -54.714-100.252 -41.789  0.00  0.00     0.032 A 
ATOM      6  C   UNL d   1     -54.761-101.393 -42.653  0.00  0.00     0.032 A 
ENDROOT
BRANCH   1   7
ATOM      7  C   UNL d   1     -54.731-102.059 -40.565  0.00  0.00     0.300 C 
ATOM      8  O   UNL d   1     -54.734-102.876 -40.665  0.00  0.00    -0.259 OA
BRANCH   7   9
ATOM      9  O   UNL d   1     -54.724-101.732 -39.807  0.00  0.00    -0.273 OA
BRANCH   9  10
ATOM     10  C   UNL d   1     -55.136-102.104 -39.198  0.00  0.00     0.103 A 
ATOM     11  C   UNL d   1     -55.839-102.502 -39.361  0.00  0.00     0.025 A 
ATOM     12  C   UNL d   1     -56.243-102.869 -38.755  0.00  0.00     0.002 A 
ATOM     13  C   UNL d   1     -55.958-102.847 -37.981  0.00  0.00     0.000 A 
ATOM     14  C   UNL d   1     -55.249-102.445 -37.821  0.00  0.00     0.002 A 
ATOM     15  C   UNL d   1     -54.838-102.074 -38.429  0.00  0.00     0.025 A 
ENDBRANCH   9  10
ENDBRANCH   7   9
ENDBRANCH   1   7
BRANCH   4  16
ATOM     16  N   UNL d   1     -54.741-100.074 -43.214  0.00  0.00    -0.368 NA
ATOM     17  C   UNL d   1     -54.744 -99.578 -43.868  0.00  0.00     0.303 C 
ATOM     18  O   UNL d   1     -54.729 -98.761 -43.767  0.00  0.00    -0.256 OA
BRANCH  17  19
ATOM     19  C   UNL d   1     -54.760 -99.901 -44.627  0.00  0.00     0.085 C 
ATOM     20  C   UNL d   1     -54.734-100.718 -44.733  0.00  0.00     0.011 C 
ATOM     21  C   UNL d   1     -54.794 -99.082 -44.743  0.00  0.00     0.011 C 
ATOM     22  C   UNL d   1     -54.803 -99.406 -45.285  0.00  0.00     0.011 C 
ENDBRANCH  17  19
ENDBRANCH   4  16
TORSDOF 5
ENDMDL
