MODEL 1
REMARK VINA RESULT:      38.9      0.000      0.000
REMARK  8 active torsions:
REMARK  status: ('A' for Active; 'I' for Inactive)
REMARK    1  A    between atoms: S_10  and  C_2 
REMARK    2  A    between atoms: C_7  and  C_4 
REMARK    3  A    between atoms: C_17  and  S_10 
REMARK    4  A    between atoms: C_14  and  C_17 
REMARK    5  A    between atoms: O_18  and  C_14 
REMARK    6  A    between atoms: O_19  and  C_15 
REMARK    7  A    between atoms: C_22  and  O_18 
REMARK    8  A    between atoms: C_24  and  C_22 
ROOT
ATOM      1  C   UNL d   1      46.396 -18.759  42.239  0.00  0.00     0.093 A 
ATOM      2  C   UNL d   1      46.493 -18.161  41.667  0.00  0.00     0.124 A 
ATOM      3  N   UNL d   1      46.453 -17.369  41.891  0.00  0.00    -0.200 NA
ATOM      4  C   UNL d   1      46.261 -18.556  43.027  0.00  0.00     0.028 A 
ATOM      5  C   UNL d   1      46.222 -17.765  43.248  0.00  0.00     0.127 A 
ATOM      6  C   UNL d   1      46.318 -17.167  42.676  0.00  0.00     0.289 A 
ATOM      7  C   UNL d   1      46.435 -19.547  42.020  0.00  0.00     0.103 C 
ATOM      8  C   UNL d   1      46.086 -17.562  44.036  0.00  0.00     0.106 C 
ATOM      9  N   UNL d   1      46.475 -20.326  41.799  0.00  0.00    -0.191 NA
ATOM     10  N   UNL d   1      45.953 -17.361  44.810  0.00  0.00    -0.191 NA
ATOM     11  O   UNL d   1      46.267 -16.322  42.970  0.00  0.00    -0.264 OA
ENDROOT
BRANCH   2  12
ATOM     12  S   UNL d   1      46.633 -18.434  40.856  0.00  0.00    -0.061 SA
BRANCH  12  13
ATOM     13  C   UNL d   1      46.189 -18.238  40.133  0.00  0.00     0.105 C 
BRANCH  13  14
ATOM     14  C   UNL d   1      45.321 -18.253  40.149  0.00  0.00     0.307 C 
ATOM     15  O   UNL d   1      45.045 -18.527  40.506  0.00  0.00    -0.258 OA
BRANCH  14  16
ATOM     16  O   UNL d   1      44.934 -17.771  39.514  0.00  0.00    -0.271 OA
BRANCH  16  17
ATOM     17  C   UNL d   1      45.497 -17.284  39.001  0.00  0.00     0.126 C 
BRANCH  17  18
ATOM     18  C   UNL d   1      44.977 -16.679  38.510  0.00  0.00     0.027 C 
ATOM     19  C   UNL d   1      45.539 -16.171  38.021  0.00  0.00     0.002 C 
ENDBRANCH  17  18
ENDBRANCH  16  17
ENDBRANCH  14  16
ENDBRANCH  13  14
ENDBRANCH  12  13
ENDBRANCH   2  12
BRANCH   4  20
ATOM     20  C   UNL d   1      46.166 -19.145  43.590  0.00  0.00     0.024 A 
ATOM     21  C   UNL d   1      45.596 -19.728  43.483  0.00  0.00     0.094 A 
ATOM     22  C   UNL d   1      45.500 -20.320  44.049  0.00  0.00     0.024 A 
ATOM     23  C   UNL d   1      45.973 -20.330  44.724  0.00  0.00     0.002 A 
ATOM     24  C   UNL d   1      46.546 -19.743  44.830  0.00  0.00     0.000 A 
ATOM     25  C   UNL d   1      46.642 -19.151  44.264  0.00  0.00     0.002 A 
BRANCH  21  26
ATOM     26  O   UNL d   1      45.158 -19.791  42.943  0.00  0.00    -0.328 OA
ATOM     27  C   UNL d   1      44.496 -20.328  42.978  0.00  0.00     0.181 C 
ENDBRANCH  21  26
ENDBRANCH   4  20
TORSDOF 8
ENDMDL
MODEL 2
REMARK VINA RESULT:      40.0      2.490      6.400
REMARK  8 active torsions:
REMARK  status: ('A' for Active; 'I' for Inactive)
REMARK    1  A    between atoms: S_10  and  C_2 
REMARK    2  A    between atoms: C_7  and  C_4 
REMARK    3  A    between atoms: C_17  and  S_10 
REMARK    4  A    between atoms: C_14  and  C_17 
REMARK    5  A    between atoms: O_18  and  C_14 
REMARK    6  A    between atoms: O_19  and  C_15 
REMARK    7  A    between atoms: C_22  and  O_18 
REMARK    8  A    between atoms: C_24  and  C_22 
ROOT
ATOM      1  C   UNL d   1      45.058 -16.271  38.115  0.00  0.00     0.093 A 
ATOM      2  C   UNL d   1      44.609 -16.895  38.436  0.00  0.00     0.124 A 
ATOM      3  N   UNL d   1      43.816 -16.980  38.227  0.00  0.00    -0.200 NA
ATOM      4  C   UNL d   1      44.707 -15.740  37.590  0.00  0.00     0.028 A 
ATOM      5  C   UNL d   1      43.915 -15.826  37.384  0.00  0.00     0.127 A 
ATOM      6  C   UNL d   1      43.467 -16.451  37.705  0.00  0.00     0.289 A 
ATOM      7  C   UNL d   1      45.846 -16.183  38.319  0.00  0.00     0.103 C 
ATOM      8  C   UNL d   1      43.564 -15.295  36.859  0.00  0.00     0.106 C 
ATOM      9  N   UNL d   1      46.626 -16.100  38.524  0.00  0.00    -0.191 NA
ATOM     10  N   UNL d   1      43.218 -14.774  36.344  0.00  0.00    -0.191 NA
ATOM     11  O   UNL d   1      42.610 -16.500  37.447  0.00  0.00    -0.264 OA
ENDROOT
BRANCH   2  12
ATOM     12  S   UNL d   1      45.032 -17.421  38.981  0.00  0.00    -0.061 SA
BRANCH  12  13
ATOM     13  C   UNL d   1      45.066 -17.388  39.850  0.00  0.00     0.105 C 
BRANCH  13  14
ATOM     14  C   UNL d   1      45.344 -18.081  40.292  0.00  0.00     0.307 C 
ATOM     15  O   UNL d   1      45.182 -18.573  40.188  0.00  0.00    -0.258 OA
BRANCH  14  16
ATOM     16  O   UNL d   1      45.927 -17.897  40.934  0.00  0.00    -0.271 OA
BRANCH  16  17
ATOM     17  C   UNL d   1      46.236 -18.611  41.393  0.00  0.00     0.126 C 
BRANCH  17  18
ATOM     18  C   UNL d   1      46.171 -18.409  42.305  0.00  0.00     0.027 C 
ATOM     19  C   UNL d   1      46.606 -19.055  42.759  0.00  0.00     0.002 C 
ENDBRANCH  17  18
ENDBRANCH  16  17
ENDBRANCH  14  16
ENDBRANCH  13  14
ENDBRANCH  12  13
ENDBRANCH   2  12
BRANCH   4  20
ATOM     20  C   UNL d   1      45.148 -15.124  37.274  0.00  0.00     0.024 A 
ATOM     21  C   UNL d   1      45.074 -14.365  37.580  0.00  0.00     0.094 A 
ATOM     22  C   UNL d   1      45.518 -13.747  37.263  0.00  0.00     0.024 A 
ATOM     23  C   UNL d   1      46.037 -13.887  36.638  0.00  0.00     0.002 A 
ATOM     24  C   UNL d   1      46.111 -14.651  36.331  0.00  0.00     0.000 A 
ATOM     25  C   UNL d   1      45.667 -15.269  36.649  0.00  0.00     0.002 A 
BRANCH  21  26
ATOM     26  O   UNL d   1      44.659 -14.164  38.105  0.00  0.00    -0.328 OA
ATOM     27  C   UNL d   1      44.888 -13.526  38.622  0.00  0.00     0.181 C 
ENDBRANCH  21  26
ENDBRANCH   4  20
TORSDOF 8
ENDMDL
