MODEL 1
REMARK VINA RESULT:      -6.1      0.000      0.000
REMARK  8 active torsions:
REMARK  status: ('A' for Active; 'I' for Inactive)
REMARK    1  A    between atoms: C_6  and  C_1 
REMARK    2  A    between atoms: S_11  and  C_3 
REMARK    3  A    between atoms: C_8  and  C_4 
REMARK       I    between atoms: N_10  and  C_6 
REMARK    4  A    between atoms: C_22  and  N_10 
REMARK    5  A    between atoms: C_21  and  S_11 
REMARK    6  A    between atoms: C_13  and  C_21 
REMARK    7  A    between atoms: O_20  and  C_13 
REMARK    8  A    between atoms: C_24  and  O_20 
ROOT
ATOM      1  C   UNL d   1     -47.985  13.575  22.940  0.00  0.00     0.078 A 
ATOM      2  C   UNL d   1     -47.277  12.366  22.811  0.00  0.00     0.094 A 
ATOM      3  C   UNL d   1     -46.571  12.787  22.745  0.00  0.00     0.120 A 
ATOM      4  C   UNL d   1     -47.990  12.756  22.909  0.00  0.00     0.041 A 
ATOM      5  C   UNL d   1     -47.279  13.996  22.874  0.00  0.00     0.087 A 
ATOM      6  N   UNL d   1     -46.566  13.605  22.776  0.00  0.00    -0.238 NA
ATOM      7  C   UNL d   1     -47.260  11.511  22.776  0.00  0.00     0.103 C 
ATOM      8  N   UNL d   1     -47.257  10.672  22.743  0.00  0.00    -0.191 NA
ATOM      9  C   UNL d   1     -47.263  14.844  22.905  0.00  0.00     0.021 C 
ENDROOT
BRANCH   4  10
ATOM     10  C   UNL d   1     -48.678  12.346  22.974  0.00  0.00     0.101 A 
ATOM     11  O   UNL d   1     -49.159  12.142  22.335  0.00  0.00    -0.305 OA
ATOM     12  C   UNL d   1     -49.807  11.729  22.613  0.00  0.00     0.123 A 
ATOM     13  C   UNL d   1     -49.723  11.682  23.411  0.00  0.00     0.029 A 
ATOM     14  C   UNL d   1     -49.049  12.047  23.651  0.00  0.00     0.027 A 
ENDBRANCH   4  10
BRANCH   3  15
ATOM     15  S   UNL d   1     -45.827  12.394  22.643  0.00  0.00    -0.061 SA
BRANCH  15  16
ATOM     16  C   UNL d   1     -45.168  12.826  22.375  0.00  0.00     0.105 C 
BRANCH  16  17
ATOM     17  C   UNL d   1     -44.497  12.433  22.116  0.00  0.00     0.307 C 
ATOM     18  O   UNL d   1     -44.233  11.773  22.527  0.00  0.00    -0.258 OA
BRANCH  17  19
ATOM     19  O   UNL d   1     -44.092  12.704  21.445  0.00  0.00    -0.273 OA
BRANCH  19  20
ATOM     20  C   UNL d   1     -43.275  12.738  21.442  0.00  0.00     0.103 C 
ATOM     21  C   UNL d   1     -42.835  12.184  21.868  0.00  0.00     0.027 C 
ATOM     22  C   UNL d   1     -42.897  13.331  21.010  0.00  0.00     0.027 C 
ENDBRANCH  19  20
ENDBRANCH  17  19
ENDBRANCH  16  17
ENDBRANCH  15  16
ENDBRANCH   3  15
BRANCH   1  23
ATOM     23  C   UNL d   1     -48.717  13.997  23.042  0.00  0.00     0.281 C 
ATOM     24  N   UNL d   1     -48.920  14.592  22.516  0.00  0.00    -0.208 NA
ATOM     25  O   UNL d   1     -49.215  13.803  23.671  0.00  0.00    -0.265 OA
BRANCH  24  26
ATOM     26  C   UNL d   1     -49.640  15.003  22.622  0.00  0.00     0.085 A 
ATOM     27  C   UNL d   1     -49.731  15.520  23.259  0.00  0.00     0.019 A 
ATOM     28  C   UNL d   1     -50.455  15.921  23.351  0.00  0.00     0.002 A 
ATOM     29  C   UNL d   1     -51.064  15.800  22.814  0.00  0.00     0.000 A 
ATOM     30  C   UNL d   1     -50.950  15.280  22.188  0.00  0.00     0.002 A 
ATOM     31  C   UNL d   1     -50.250  14.884  22.089  0.00  0.00     0.019 A 
ENDBRANCH  24  26
ENDBRANCH   1  23
TORSDOF 8
ENDMDL
MODEL 2
REMARK VINA RESULT:      -4.1      1.257      2.539
REMARK  8 active torsions:
REMARK  status: ('A' for Active; 'I' for Inactive)
REMARK    1  A    between atoms: C_6  and  C_1 
REMARK    2  A    between atoms: S_11  and  C_3 
REMARK    3  A    between atoms: C_8  and  C_4 
REMARK       I    between atoms: N_10  and  C_6 
REMARK    4  A    between atoms: C_22  and  N_10 
REMARK    5  A    between atoms: C_21  and  S_11 
REMARK    6  A    between atoms: C_13  and  C_21 
REMARK    7  A    between atoms: O_20  and  C_13 
REMARK    8  A    between atoms: C_24  and  O_20 
ROOT
ATOM      1  C   UNL d   1     -47.425  12.940  22.892  0.00  0.00     0.078 A 
ATOM      2  C   UNL d   1     -46.389  13.830  22.553  0.00  0.00     0.094 A 
ATOM      3  C   UNL d   1     -45.846  13.209  22.583  0.00  0.00     0.120 A 
ATOM      4  C   UNL d   1     -47.182  13.700  22.707  0.00  0.00     0.041 A 
ATOM      5  C   UNL d   1     -46.882  12.320  22.922  0.00  0.00     0.087 A 
ATOM      6  N   UNL d   1     -46.088  12.449  22.768  0.00  0.00    -0.238 NA
ATOM      7  C   UNL d   1     -46.115  14.616  22.358  0.00  0.00     0.103 C 
ATOM      8  N   UNL d   1     -45.860  15.393  22.167  0.00  0.00    -0.191 NA
ATOM      9  C   UNL d   1     -47.124  11.528  23.113  0.00  0.00     0.021 C 
ENDROOT
BRANCH   4  10
ATOM     10  C   UNL d   1     -47.711  14.305  22.678  0.00  0.00     0.101 A 
ATOM     11  O   UNL d   1     -47.962  14.736  23.336  0.00  0.00    -0.305 OA
ATOM     12  C   UNL d   1     -48.497  15.302  23.092  0.00  0.00     0.123 A 
ATOM     13  C   UNL d   1     -48.573  15.220  22.296  0.00  0.00     0.029 A 
ATOM     14  C   UNL d   1     -48.107  14.624  22.024  0.00  0.00     0.027 A 
ENDBRANCH   4  10
BRANCH   3  15
ATOM     15  S   UNL d   1     -45.023  13.331  22.425  0.00  0.00    -0.061 SA
BRANCH  15  16
ATOM     16  C   UNL d   1     -44.636  12.845  21.871  0.00  0.00     0.105 C 
BRANCH  16  17
ATOM     17  C   UNL d   1     -43.816  12.831  21.839  0.00  0.00     0.307 C 
ATOM     18  O   UNL d   1     -43.412  12.187  22.150  0.00  0.00    -0.258 OA
BRANCH  17  19
ATOM     19  O   UNL d   1     -43.405  13.463  21.494  0.00  0.00    -0.273 OA
BRANCH  19  20
ATOM     20  C   UNL d   1     -42.662  13.345  21.173  0.00  0.00     0.103 C 
ATOM     21  C   UNL d   1     -42.511  12.675  20.715  0.00  0.00     0.027 C 
ATOM     22  C   UNL d   1     -42.069  13.902  21.311  0.00  0.00     0.027 C 
ENDBRANCH  19  20
ENDBRANCH  17  19
ENDBRANCH  16  17
ENDBRANCH  15  16
ENDBRANCH   3  15
BRANCH   1  23
ATOM     23  C   UNL d   1     -48.246  12.787  23.056  0.00  0.00     0.281 C 
ATOM     24  N   UNL d   1     -48.668  12.275  22.575  0.00  0.00    -0.208 NA
ATOM     25  O   UNL d   1     -48.608  13.157  23.698  0.00  0.00    -0.265 OA
BRANCH  24  26
ATOM     26  C   UNL d   1     -49.475  12.130  22.742  0.00  0.00     0.085 A 
ATOM     27  C   UNL d   1     -49.698  11.841  23.482  0.00  0.00     0.019 A 
ATOM     28  C   UNL d   1     -50.505  11.701  23.632  0.00  0.00     0.002 A 
ATOM     29  C   UNL d   1     -51.064  11.851  23.050  0.00  0.00     0.000 A 
ATOM     30  C   UNL d   1     -50.817  12.139  22.322  0.00  0.00     0.002 A 
ATOM     31  C   UNL d   1     -50.035  12.278  22.164  0.00  0.00     0.019 A 
ENDBRANCH  24  26
ENDBRANCH   1  23
TORSDOF 8
ENDMDL
MODEL 3
REMARK VINA RESULT:      -3.6      7.239      9.428
REMARK  8 active torsions:
REMARK  status: ('A' for Active; 'I' for Inactive)
REMARK    1  A    between atoms: C_6  and  C_1 
REMARK    2  A    between atoms: S_11  and  C_3 
REMARK    3  A    between atoms: C_8  and  C_4 
REMARK       I    between atoms: N_10  and  C_6 
REMARK    4  A    between atoms: C_22  and  N_10 
REMARK    5  A    between atoms: C_21  and  S_11 
REMARK    6  A    between atoms: C_13  and  C_21 
REMARK    7  A    between atoms: O_20  and  C_13 
REMARK    8  A    between atoms: C_24  and  O_20 
ROOT
ATOM      1  C   UNL d   1     -39.286  14.669  20.175  0.00  0.00     0.078 A 
ATOM      2  C   UNL d   1     -39.867  15.181  19.001  0.00  0.00     0.094 A 
ATOM      3  C   UNL d   1     -39.188  14.981  18.578  0.00  0.00     0.120 A 
ATOM      4  C   UNL d   1     -39.921  15.027  19.803  0.00  0.00     0.041 A 
ATOM      5  C   UNL d   1     -38.607  14.468  19.752  0.00  0.00     0.087 A 
ATOM      6  N   UNL d   1     -38.553  14.623  18.949  0.00  0.00    -0.238 NA
ATOM      7  C   UNL d   1     -40.520  15.555  18.593  0.00  0.00     0.103 C 
ATOM      8  N   UNL d   1     -41.167  15.922  18.205  0.00  0.00    -0.191 NA
ATOM      9  C   UNL d   1     -37.942  14.097  20.129  0.00  0.00     0.021 C 
ENDROOT
BRANCH   4  10
ATOM     10  C   UNL d   1     -40.583  15.223  20.216  0.00  0.00     0.101 A 
ATOM     11  O   UNL d   1     -41.265  14.758  20.249  0.00  0.00    -0.305 OA
ATOM     12  C   UNL d   1     -41.817  15.133  20.718  0.00  0.00     0.123 A 
ATOM     13  C   UNL d   1     -41.479  15.818  20.969  0.00  0.00     0.029 A 
ATOM     14  C   UNL d   1     -40.733  15.893  20.678  0.00  0.00     0.027 A 
ENDBRANCH   4  10
BRANCH   3  15
ATOM     15  S   UNL d   1     -39.120  15.135  17.748  0.00  0.00    -0.061 SA
BRANCH  15  16
ATOM     16  C   UNL d   1     -38.784  14.559  17.250  0.00  0.00     0.105 C 
BRANCH  16  17
ATOM     17  C   UNL d   1     -38.688  14.713  16.449  0.00  0.00     0.307 C 
ATOM     18  O   UNL d   1     -38.457  15.464  16.209  0.00  0.00    -0.258 OA
BRANCH  17  19
ATOM     19  O   UNL d   1     -38.823  14.113  15.894  0.00  0.00    -0.273 OA
BRANCH  19  20
ATOM     20  C   UNL d   1     -38.263  13.949  15.320  0.00  0.00     0.103 C 
ATOM     21  C   UNL d   1     -37.942  13.191  15.260  0.00  0.00     0.027 C 
ATOM     22  C   UNL d   1     -38.025  14.548  14.805  0.00  0.00     0.027 C 
ENDBRANCH  19  20
ENDBRANCH  17  19
ENDBRANCH  16  17
ENDBRANCH  15  16
ENDBRANCH   3  15
BRANCH   1  23
ATOM     23  C   UNL d   1     -39.325  14.501  21.009  0.00  0.00     0.281 C 
ATOM     24  N   UNL d   1     -39.362  13.724  21.266  0.00  0.00    -0.208 NA
ATOM     25  O   UNL d   1     -39.324  15.124  21.549  0.00  0.00    -0.265 OA
BRANCH  24  26
ATOM     26  C   UNL d   1     -39.400  13.567  22.087  0.00  0.00     0.085 A 
ATOM     27  C   UNL d   1     -38.892  13.958  22.606  0.00  0.00     0.019 A 
ATOM     28  C   UNL d   1     -38.943  13.791  23.420  0.00  0.00     0.002 A 
ATOM     29  C   UNL d   1     -39.491  13.245  23.695  0.00  0.00     0.000 A 
ATOM     30  C   UNL d   1     -39.986  12.869  23.159  0.00  0.00     0.002 A 
ATOM     31  C   UNL d   1     -39.946  13.023  22.365  0.00  0.00     0.019 A 
ENDBRANCH  24  26
ENDBRANCH   1  23
TORSDOF 8
ENDMDL
MODEL 4
REMARK VINA RESULT:      -3.5      4.637      9.173
REMARK  8 active torsions:
REMARK  status: ('A' for Active; 'I' for Inactive)
REMARK    1  A    between atoms: C_6  and  C_1 
REMARK    2  A    between atoms: S_11  and  C_3 
REMARK    3  A    between atoms: C_8  and  C_4 
REMARK       I    between atoms: N_10  and  C_6 
REMARK    4  A    between atoms: C_22  and  N_10 
REMARK    5  A    between atoms: C_21  and  S_11 
REMARK    6  A    between atoms: C_13  and  C_21 
REMARK    7  A    between atoms: O_20  and  C_13 
REMARK    8  A    between atoms: C_24  and  O_20 
ROOT
ATOM      1  C   UNL d   1     -40.233  14.639  19.285  0.00  0.00     0.078 A 
ATOM      2  C   UNL d   1     -40.428  14.355  20.649  0.00  0.00     0.094 A 
ATOM      3  C   UNL d   1     -41.177  14.053  20.479  0.00  0.00     0.120 A 
ATOM      4  C   UNL d   1     -39.950  14.650  20.054  0.00  0.00     0.041 A 
ATOM      5  C   UNL d   1     -40.981  14.338  19.115  0.00  0.00     0.087 A 
ATOM      6  N   UNL d   1     -41.460  14.042  19.710  0.00  0.00    -0.238 NA
ATOM      7  C   UNL d   1     -40.152  14.357  21.459  0.00  0.00     0.103 C 
ATOM      8  N   UNL d   1     -39.869  14.366  22.249  0.00  0.00    -0.191 NA
ATOM      9  C   UNL d   1     -41.283  14.322  18.321  0.00  0.00     0.021 C 
ENDROOT
BRANCH   4  10
ATOM     10  C   UNL d   1     -39.221  14.944  20.220  0.00  0.00     0.101 A 
ATOM     11  O   UNL d   1     -39.059  15.744  20.345  0.00  0.00    -0.305 OA
ATOM     12  C   UNL d   1     -38.262  15.831  20.498  0.00  0.00     0.123 A 
ATOM     13  C   UNL d   1     -37.940  15.095  20.468  0.00  0.00     0.029 A 
ATOM     14  C   UNL d   1     -38.500  14.544  20.301  0.00  0.00     0.027 A 
ENDBRANCH   4  10
BRANCH   3  15
ATOM     15  S   UNL d   1     -41.681  13.745  21.086  0.00  0.00    -0.061 SA
BRANCH  15  16
ATOM     16  C   UNL d   1     -42.342  13.285  20.876  0.00  0.00     0.105 C 
BRANCH  16  17
ATOM     17  C   UNL d   1     -42.816  12.956  21.459  0.00  0.00     0.307 C 
ATOM     18  O   UNL d   1     -42.567  12.274  21.842  0.00  0.00    -0.258 OA
BRANCH  17  19
ATOM     19  O   UNL d   1     -43.538  13.314  21.656  0.00  0.00    -0.273 OA
BRANCH  19  20
ATOM     20  C   UNL d   1     -44.172  12.857  21.895  0.00  0.00     0.103 C 
ATOM     21  C   UNL d   1     -44.045  12.107  22.216  0.00  0.00     0.027 C 
ATOM     22  C   UNL d   1     -44.938  13.154  21.812  0.00  0.00     0.027 C 
ENDBRANCH  19  20
ENDBRANCH  17  19
ENDBRANCH  16  17
ENDBRANCH  15  16
ENDBRANCH   3  15
BRANCH   1  23
ATOM     23  C   UNL d   1     -39.749  14.942  18.653  0.00  0.00     0.281 C 
ATOM     24  N   UNL d   1     -39.562  14.460  18.018  0.00  0.00    -0.208 NA
ATOM     25  O   UNL d   1     -39.474  15.719  18.689  0.00  0.00    -0.265 OA
BRANCH  24  26
ATOM     26  C   UNL d   1     -39.086  14.765  17.401  0.00  0.00     0.085 A 
ATOM     27  C   UNL d   1     -39.306  15.461  17.015  0.00  0.00     0.019 A 
ATOM     28  C   UNL d   1     -38.821  15.751  16.403  0.00  0.00     0.002 A 
ATOM     29  C   UNL d   1     -38.138  15.348  16.191  0.00  0.00     0.000 A 
ATOM     30  C   UNL d   1     -37.941  14.657  16.590  0.00  0.00     0.002 A 
ATOM     31  C   UNL d   1     -38.404  14.365  17.187  0.00  0.00     0.019 A 
ENDBRANCH  24  26
ENDBRANCH   1  23
TORSDOF 8
ENDMDL
