MODEL 1
REMARK VINA RESULT:      46.4      0.000      0.000
REMARK  3 active torsions:
REMARK  status: ('A' for Active; 'I' for Inactive)
REMARK    1  A    between atoms: N_5  and  C_2 
REMARK    2  A    between atoms: C_14  and  C_4 
REMARK       I    between atoms: C_7  and  N_5 
REMARK    3  A    between atoms: C_8  and  C_7 
ROOT
ATOM      1  S   UNL d   1      60.968  48.517  51.276  0.00  0.00    -0.026 SA
ATOM      2  C   UNL d   1      61.170  48.439  50.478  0.00  0.00     0.219 A 
ATOM      3  N   UNL d   1      60.721  49.681  50.727  0.00  0.00    -0.139 NA
ATOM      4  C   UNL d   1      60.696  49.275  51.419  0.00  0.00     0.135 A 
ATOM      5  N   UNL d   1      61.015  49.170  50.134  0.00  0.00    -0.121 NA
ENDROOT
BRANCH   2   6
ATOM      6  N   UNL d   1      61.470  47.810  50.027  0.00  0.00    -0.181 NA
ATOM      7  C   UNL d   1      61.357  47.050  50.289  0.00  0.00     0.287 C 
ATOM      8  O   UNL d   1      60.954  46.876  50.992  0.00  0.00    -0.265 OA
BRANCH   7   9
ATOM      9  C   UNL d   1      61.649  46.443  49.849  0.00  0.00     0.087 A 
ATOM     10  S   UNL d   1      61.337  45.694  49.834  0.00  0.00    -0.082 SA
ATOM     11  C   UNL d   1      61.804  45.236  49.309  0.00  0.00     0.036 A 
ATOM     12  C   UNL d   1      62.379  45.709  49.022  0.00  0.00     0.008 A 
ATOM     13  C   UNL d   1      62.310  46.450  49.333  0.00  0.00     0.012 A 
ENDBRANCH   7   9
ENDBRANCH   2   6
BRANCH   4  14
ATOM     14  C   UNL d   1      60.436  49.563  52.172  0.00  0.00     0.026 C 
ATOM     15  C   UNL d   1      60.958  49.707  52.795  0.00  0.00     0.002 C 
ATOM     16  C   UNL d   1      59.621  49.707  52.288  0.00  0.00     0.002 C 
ENDBRANCH   4  14
TORSDOF 3
ENDMDL
MODEL 2
REMARK VINA RESULT:      48.5      1.015      4.020
REMARK  3 active torsions:
REMARK  status: ('A' for Active; 'I' for Inactive)
REMARK    1  A    between atoms: N_5  and  C_2 
REMARK    2  A    between atoms: C_14  and  C_4 
REMARK       I    between atoms: C_7  and  N_5 
REMARK    3  A    between atoms: C_8  and  C_7 
ROOT
ATOM      1  S   UNL d   1      61.386  46.311  50.079  0.00  0.00    -0.026 SA
ATOM      2  C   UNL d   1      61.499  47.108  50.270  0.00  0.00     0.219 A 
ATOM      3  N   UNL d   1      62.319  46.747  49.269  0.00  0.00    -0.139 NA
ATOM      4  C   UNL d   1      61.889  46.100  49.470  0.00  0.00     0.135 A 
ATOM      5  N   UNL d   1      62.084  47.381  49.761  0.00  0.00    -0.121 NA
ENDROOT
BRANCH   2   6
ATOM      6  N   UNL d   1      61.151  47.613  50.830  0.00  0.00    -0.181 NA
ATOM      7  C   UNL d   1      61.170  48.415  50.701  0.00  0.00     0.287 C 
ATOM      8  O   UNL d   1      61.523  48.751  50.030  0.00  0.00    -0.265 OA
BRANCH   7   9
ATOM      9  C   UNL d   1      60.832  48.900  51.246  0.00  0.00     0.087 A 
ATOM     10  S   UNL d   1      60.070  49.175  51.207  0.00  0.00    -0.082 SA
ATOM     11  C   UNL d   1      59.942  49.661  51.879  0.00  0.00     0.036 A 
ATOM     12  C   UNL d   1      60.617  49.670  52.303  0.00  0.00     0.008 A 
ATOM     13  C   UNL d   1      61.177  49.216  51.942  0.00  0.00     0.012 A 
ENDBRANCH   7   9
ENDBRANCH   2   6
BRANCH   4  14
ATOM     14  C   UNL d   1      61.933  45.328  49.123  0.00  0.00     0.026 C 
ATOM     15  C   UNL d   1      61.263  44.910  48.884  0.00  0.00     0.002 C 
ATOM     16  C   UNL d   1      62.685  44.977  49.020  0.00  0.00     0.002 C 
ENDBRANCH   4  14
TORSDOF 3
ENDMDL
