MODEL 1
REMARK VINA RESULT:      61.7      0.000      0.000
REMARK  4 active torsions:
REMARK  status: ('A' for Active; 'I' for Inactive)
REMARK    1  A    between atoms: C_8  and  C_1 
REMARK    2  A    between atoms: C_4  and  C_2 
REMARK    3  A    between atoms: O_16  and  C_8 
REMARK    4  A    between atoms: C_21  and  O_16 
ROOT
ATOM      1  C   UNL d   1     -50.421  25.782  33.709  0.00  0.00     0.099 A 
ATOM      2  C   UNL d   1     -50.808  25.103  33.973  0.00  0.00     0.096 A 
ATOM      3  C   UNL d   1     -49.595  25.760  33.569  0.00  0.00     0.093 A 
ATOM      4  C   UNL d   1     -49.565  24.388  33.958  0.00  0.00     0.369 A 
ATOM      5  N   UNL d   1     -49.171  25.060  33.695  0.00  0.00    -0.191 NA
ATOM      6  N   UNL d   1     -50.380  24.409  34.097  0.00  0.00    -0.191 NA
ATOM      7  O   UNL d   1     -49.141  23.687  34.084  0.00  0.00    -0.242 OA
ATOM      8  C   UNL d   1     -49.201  26.428  33.306  0.00  0.00     0.021 C 
ENDROOT
BRANCH   2   9
ATOM      9  C   UNL d   1     -51.613  25.124  34.111  0.00  0.00     0.057 A 
ATOM     10  C   UNL d   1     -52.092  24.490  33.892  0.00  0.00     0.005 A 
ATOM     11  C   UNL d   1     -52.907  24.512  34.031  0.00  0.00     0.000 A 
ATOM     12  C   UNL d   1     -51.746  23.828  33.530  0.00  0.00     0.000 A 
ATOM     13  C   UNL d   1     -53.380  23.871  33.808  0.00  0.00     0.000 A 
ATOM     14  C   UNL d   1     -53.247  25.167  34.389  0.00  0.00     0.003 A 
ATOM     15  C   UNL d   1     -53.041  23.212  33.449  0.00  0.00     0.000 A 
ATOM     16  C   UNL d   1     -52.226  23.191  33.310  0.00  0.00     0.000 A 
ATOM     17  C   UNL d   1     -52.774  25.808  34.612  0.00  0.00     0.042 A 
ATOM     18  C   UNL d   1     -51.926  25.786  34.467  0.00  0.00     0.197 A 
ATOM     19  O   UNL d   1     -52.372  26.427  34.835  0.00  0.00    -0.286 OA
ENDBRANCH   2   9
BRANCH   1  20
ATOM     20  C   UNL d   1     -50.852  26.472  33.588  0.00  0.00     0.303 C 
ATOM     21  O   UNL d   1     -51.622  26.432  33.308  0.00  0.00    -0.259 OA
BRANCH  20  22
ATOM     22  O   UNL d   1     -50.500  27.199  33.750  0.00  0.00    -0.271 OA
BRANCH  22  23
ATOM     23  C   UNL d   1     -50.936  27.886  33.636  0.00  0.00     0.126 C 
ATOM     24  C   UNL d   1     -50.584  28.550  33.310  0.00  0.00     0.029 C 
ENDBRANCH  22  23
ENDBRANCH  20  22
ENDBRANCH   1  20
TORSDOF 4
ENDMDL
