MODEL 1
REMARK VINA RESULT:      50.4      0.000      0.000
REMARK  6 active torsions:
REMARK  status: ('A' for Active; 'I' for Inactive)
REMARK    1  A    between atoms: C_10  and  C_3 
REMARK    2  A    between atoms: N_12  and  C_4 
REMARK    3  A    between atoms: N_11  and  C_14 
REMARK    4  A    between atoms: C_19  and  N_12 
REMARK    5  A    between atoms: C_14  and  C_15 
REMARK    6  A    between atoms: C_15  and  C_19 
ROOT
ATOM      1  C   UNL d   1     -54.762-100.970 -42.514  0.00  0.00     0.167 A 
ATOM      2  N   UNL d   1     -54.772-100.995 -43.338  0.00  0.00    -0.195 N 
ATOM      3  C   UNL d   1     -54.764-101.743 -42.239  0.00  0.00     0.057 A 
ATOM      4  C   UNL d   1     -54.773-100.295 -43.772  0.00  0.00     0.167 A 
ATOM      5  N   UNL d   1     -54.781-101.783 -43.565  0.00  0.00    -0.161 NA
ATOM      6  N   UNL d   1     -54.752-100.245 -42.123  0.00  0.00    -0.227 NA
ATOM      7  C   UNL d   1     -54.763 -99.566 -43.377  0.00  0.00     0.058 A 
ATOM      8  C   UNL d   1     -54.775-102.242 -42.896  0.00  0.00     0.124 A 
ATOM      9  C   UNL d   1     -54.753 -99.541 -42.561  0.00  0.00     0.086 A 
ATOM     10  C   UNL d   1     -54.743 -98.803 -42.190  0.00  0.00     0.021 C 
ENDROOT
BRANCH   4  11
ATOM     11  N   UNL d   1     -54.784-100.320 -44.596  0.00  0.00    -0.225 NA
BRANCH  11  12
ATOM     12  C   UNL d   1     -54.873 -99.625 -45.030  0.00  0.00     0.102 C 
BRANCH  12  13
ATOM     13  C   UNL d   1     -55.634 -99.363 -45.248  0.00  0.00     0.040 C 
BRANCH  13  14
ATOM     14  C   UNL d   1     -56.012 -98.788 -44.800  0.00  0.00     0.082 C 
BRANCH  14  15
ATOM     15  N   UNL d   1     -56.820 -98.863 -44.629  0.00  0.00    -0.299 N 
ATOM     16  C   UNL d   1     -57.379 -98.852 -45.242  0.00  0.00     0.107 A 
ATOM     17  C   UNL d   1     -58.182 -98.928 -45.071  0.00  0.00     0.142 A 
ATOM     18  O   UNL d   1     -58.431 -99.014 -44.287  0.00  0.00    -0.300 OA
ATOM     19  C   UNL d   1     -57.877 -99.026 -43.678  0.00  0.00     0.142 A 
ATOM     20  C   UNL d   1     -57.074 -98.950 -43.848  0.00  0.00     0.107 A 
ENDBRANCH  14  15
ENDBRANCH  13  14
ENDBRANCH  12  13
ENDBRANCH  11  12
ENDBRANCH   4  11
BRANCH   3  21
ATOM     21  C   UNL d   1     -54.754-101.901 -41.427  0.00  0.00     0.004 A 
ATOM     22  C   UNL d   1     -54.723-102.673 -41.162  0.00  0.00     0.000 A 
ATOM     23  C   UNL d   1     -54.714-102.838 -40.357  0.00  0.00     0.000 A 
ATOM     24  C   UNL d   1     -54.736-102.207 -39.812  0.00  0.00     0.000 A 
ATOM     25  C   UNL d   1     -54.768-101.431 -40.090  0.00  0.00     0.000 A 
ATOM     26  C   UNL d   1     -54.776-101.280 -40.889  0.00  0.00     0.000 A 
ENDBRANCH   3  21
TORSDOF 6
ENDMDL
