MODEL 1
REMARK VINA RESULT:      -3.7      0.000      0.000
REMARK  2 active torsions:
REMARK  status: ('A' for Active; 'I' for Inactive)
REMARK    1  A    between atoms: N_2  and  S_1 
REMARK    2  A    between atoms: C_3  and  S_1 
ROOT
ATOM      1  S   UNL d   1      57.842  -0.503  30.672  0.00  0.00     0.273 S 
ATOM      2  O   UNL d   1      57.365  -0.149  30.079  0.00  0.00    -0.200 OA
ATOM      3  O   UNL d   1      58.308  -0.847  31.265  0.00  0.00    -0.200 OA
ENDROOT
BRANCH   1   4
ATOM      4  N   UNL d   1      57.391  -0.123  31.265  0.00  0.00    -0.231 N 
ATOM      5  C   UNL d   1      56.889  -0.574  31.748  0.00  0.00     0.075 A 
ATOM      6  C   UNL d   1      56.524  -0.055  32.270  0.00  0.00     0.018 A 
ATOM      7  C   UNL d   1      56.729  -1.365  31.772  0.00  0.00     0.018 A 
ATOM      8  C   UNL d   1      56.000  -0.336  32.814  0.00  0.00     0.002 A 
ATOM      9  C   UNL d   1      56.782   0.682  32.124  0.00  0.00     0.021 A 
ATOM     10  C   UNL d   1      55.826  -1.146  32.849  0.00  0.00     0.000 A 
ATOM     11  C   UNL d   1      56.204  -1.648  32.316  0.00  0.00     0.002 A 
ATOM     12  C   UNL d   1      57.324   0.647  31.497  0.00  0.00     0.092 A 
ENDBRANCH   1   4
BRANCH   1  13
ATOM     13  C   UNL d   1      58.282  -0.874  30.082  0.00  0.00     0.121 A 
ATOM     14  C   UNL d   1      58.904  -0.487  29.703  0.00  0.00     0.093 A 
ATOM     15  N   UNL d   1      59.095   0.290  29.914  0.00  0.00    -0.243 NA
ATOM     16  C   UNL d   1      59.334  -0.880  29.111  0.00  0.00     0.018 A 
ATOM     17  C   UNL d   1      59.713   0.675  29.536  0.00  0.00     0.099 A 
ATOM     18  C   UNL d   1      60.148   0.288  28.943  0.00  0.00     0.021 A 
ATOM     19  C   UNL d   1      59.952  -0.495  28.733  0.00  0.00     0.003 A 
ATOM     20  C   UNL d   1      59.143  -1.657  28.900  0.00  0.00     0.002 A 
ATOM     21  C   UNL d   1      58.521  -2.044  29.280  0.00  0.00     0.001 A 
ATOM     22  C   UNL d   1      58.095  -1.651  29.867  0.00  0.00     0.014 A 
ENDBRANCH   1  13
TORSDOF 2
ENDMDL
MODEL 2
REMARK VINA RESULT:      -3.5      0.898      1.830
REMARK  2 active torsions:
REMARK  status: ('A' for Active; 'I' for Inactive)
REMARK    1  A    between atoms: N_2  and  S_1 
REMARK    2  A    between atoms: C_3  and  S_1 
ROOT
ATOM      1  S   UNL d   1      57.479  -0.483  31.328  0.00  0.00     0.273 S 
ATOM      2  O   UNL d   1      56.905  -0.118  30.835  0.00  0.00    -0.200 OA
ATOM      3  O   UNL d   1      58.037  -0.846  31.821  0.00  0.00    -0.200 OA
ENDROOT
BRANCH   1   4
ATOM      4  N   UNL d   1      56.882  -0.681  31.879  0.00  0.00    -0.231 N 
ATOM      5  C   UNL d   1      56.819  -0.250  32.585  0.00  0.00     0.075 A 
ATOM      6  C   UNL d   1      56.191  -0.567  33.009  0.00  0.00     0.018 A 
ATOM      7  C   UNL d   1      57.245   0.370  32.880  0.00  0.00     0.018 A 
ATOM      8  C   UNL d   1      55.994  -0.258  33.727  0.00  0.00     0.002 A 
ATOM      9  C   UNL d   1      55.875  -1.165  32.592  0.00  0.00     0.021 A 
ATOM     10  C   UNL d   1      56.424   0.378  34.041  0.00  0.00     0.000 A 
ATOM     11  C   UNL d   1      57.051   0.681  33.599  0.00  0.00     0.002 A 
ATOM     12  C   UNL d   1      56.301  -1.242  31.885  0.00  0.00     0.092 A 
ENDBRANCH   1   4
BRANCH   1  13
ATOM     13  C   UNL d   1      58.062  -0.285  30.779  0.00  0.00     0.121 A 
ATOM     14  C   UNL d   1      58.295  -0.814  30.191  0.00  0.00     0.093 A 
ATOM     15  N   UNL d   1      57.940  -1.560  30.145  0.00  0.00    -0.243 NA
ATOM     16  C   UNL d   1      58.884  -0.593  29.650  0.00  0.00     0.018 A 
ATOM     17  C   UNL d   1      58.173  -2.087  29.559  0.00  0.00     0.099 A 
ATOM     18  C   UNL d   1      58.762  -1.872  29.014  0.00  0.00     0.021 A 
ATOM     19  C   UNL d   1      59.116  -1.120  29.064  0.00  0.00     0.003 A 
ATOM     20  C   UNL d   1      59.238   0.153  29.696  0.00  0.00     0.002 A 
ATOM     21  C   UNL d   1      59.005   0.682  30.284  0.00  0.00     0.001 A 
ATOM     22  C   UNL d   1      58.419   0.460  30.822  0.00  0.00     0.014 A 
ENDBRANCH   1  13
TORSDOF 2
ENDMDL
MODEL 3
REMARK VINA RESULT:      -3.4      0.875      3.690
REMARK  2 active torsions:
REMARK  status: ('A' for Active; 'I' for Inactive)
REMARK    1  A    between atoms: N_2  and  S_1 
REMARK    2  A    between atoms: C_3  and  S_1 
ROOT
ATOM      1  S   UNL d   1      57.419  -0.322  31.234  0.00  0.00     0.273 S 
ATOM      2  O   UNL d   1      56.763   0.054  30.870  0.00  0.00    -0.200 OA
ATOM      3  O   UNL d   1      58.072  -0.691  31.586  0.00  0.00    -0.200 OA
ENDROOT
BRANCH   1   4
ATOM      4  N   UNL d   1      57.918  -0.052  30.620  0.00  0.00    -0.231 N 
ATOM      5  C   UNL d   1      58.249  -0.600  30.091  0.00  0.00     0.075 A 
ATOM      6  C   UNL d   1      58.706  -0.176  29.557  0.00  0.00     0.018 A 
ATOM      7  C   UNL d   1      58.188  -1.403  30.037  0.00  0.00     0.018 A 
ATOM      8  C   UNL d   1      59.101  -0.563  28.970  0.00  0.00     0.002 A 
ATOM      9  C   UNL d   1      58.666   0.597  29.739  0.00  0.00     0.021 A 
ATOM     10  C   UNL d   1      59.047  -1.388  28.904  0.00  0.00     0.000 A 
ATOM     11  C   UNL d   1      58.582  -1.793  29.451  0.00  0.00     0.002 A 
ATOM     12  C   UNL d   1      58.175   0.681  30.402  0.00  0.00     0.092 A 
ENDBRANCH   1   4
BRANCH   1  13
ATOM     13  C   UNL d   1      56.921  -0.585  31.836  0.00  0.00     0.121 A 
ATOM     14  C   UNL d   1      56.949  -0.255  32.591  0.00  0.00     0.093 A 
ATOM     15  N   UNL d   1      57.486   0.353  32.754  0.00  0.00    -0.243 NA
ATOM     16  C   UNL d   1      56.438  -0.535  33.182  0.00  0.00     0.018 A 
ATOM     17  C   UNL d   1      57.514   0.682  33.506  0.00  0.00     0.099 A 
ATOM     18  C   UNL d   1      57.006   0.406  34.102  0.00  0.00     0.021 A 
ATOM     19  C   UNL d   1      56.466  -0.206  33.934  0.00  0.00     0.003 A 
ATOM     20  C   UNL d   1      55.901  -1.143  33.019  0.00  0.00     0.002 A 
ATOM     21  C   UNL d   1      55.873  -1.473  32.264  0.00  0.00     0.001 A 
ATOM     22  C   UNL d   1      56.382  -1.193  31.678  0.00  0.00     0.014 A 
ENDBRANCH   1  13
TORSDOF 2
ENDMDL
MODEL 4
REMARK VINA RESULT:      -3.1      1.507      4.042
REMARK  2 active torsions:
REMARK  status: ('A' for Active; 'I' for Inactive)
REMARK    1  A    between atoms: N_2  and  S_1 
REMARK    2  A    between atoms: C_3  and  S_1 
ROOT
ATOM      1  S   UNL d   1      58.618  -1.573  29.441  0.00  0.00     0.273 S 
ATOM      2  O   UNL d   1      58.325  -1.303  28.702  0.00  0.00    -0.200 OA
ATOM      3  O   UNL d   1      58.909  -1.848  30.167  0.00  0.00    -0.200 OA
ENDROOT
BRANCH   1   4
ATOM      4  N   UNL d   1      58.774  -2.323  29.108  0.00  0.00    -0.231 N 
ATOM      5  C   UNL d   1      59.560  -2.556  28.976  0.00  0.00     0.075 A 
ATOM      6  C   UNL d   1      59.539  -3.309  28.648  0.00  0.00     0.018 A 
ATOM      7  C   UNL d   1      60.263  -2.184  29.110  0.00  0.00     0.018 A 
ATOM      8  C   UNL d   1      60.226  -3.684  28.457  0.00  0.00     0.002 A 
ATOM      9  C   UNL d   1      58.781  -3.538  28.578  0.00  0.00     0.021 A 
ATOM     10  C   UNL d   1      60.956  -3.313  28.591  0.00  0.00     0.000 A 
ATOM     11  C   UNL d   1      60.954  -2.557  28.921  0.00  0.00     0.002 A 
ATOM     12  C   UNL d   1      58.298  -2.928  28.863  0.00  0.00     0.092 A 
ENDBRANCH   1   4
BRANCH   1  13
ATOM     13  C   UNL d   1      58.460  -0.830  29.763  0.00  0.00     0.121 A 
ATOM     14  C   UNL d   1      57.944  -0.739  30.400  0.00  0.00     0.093 A 
ATOM     15  N   UNL d   1      57.573  -1.402  30.727  0.00  0.00    -0.243 NA
ATOM     16  C   UNL d   1      57.801   0.018  30.707  0.00  0.00     0.018 A 
ATOM     17  C   UNL d   1      57.059  -1.312  31.360  0.00  0.00     0.099 A 
ATOM     18  C   UNL d   1      56.910  -0.556  31.673  0.00  0.00     0.021 A 
ATOM     19  C   UNL d   1      57.286   0.109  31.341  0.00  0.00     0.003 A 
ATOM     20  C   UNL d   1      58.172   0.682  30.381  0.00  0.00     0.002 A 
ATOM     21  C   UNL d   1      58.688   0.590  29.744  0.00  0.00     0.001 A 
ATOM     22  C   UNL d   1      58.829  -0.164  29.440  0.00  0.00     0.014 A 
ENDBRANCH   1  13
TORSDOF 2
ENDMDL
MODEL 5
REMARK VINA RESULT:      -2.5      1.053      3.993
REMARK  2 active torsions:
REMARK  status: ('A' for Active; 'I' for Inactive)
REMARK    1  A    between atoms: N_2  and  S_1 
REMARK    2  A    between atoms: C_3  and  S_1 
ROOT
ATOM      1  S   UNL d   1      57.793   0.123  31.086  0.00  0.00     0.273 S 
ATOM      2  O   UNL d   1      58.377  -0.443  31.291  0.00  0.00    -0.200 OA
ATOM      3  O   UNL d   1      57.218   0.682  30.874  0.00  0.00    -0.200 OA
ENDROOT
BRANCH   1   4
ATOM      4  N   UNL d   1      58.072   0.129  30.298  0.00  0.00    -0.231 N 
ATOM      5  C   UNL d   1      58.865   0.322  30.147  0.00  0.00     0.075 A 
ATOM      6  C   UNL d   1      58.975   0.282  29.334  0.00  0.00     0.018 A 
ATOM      7  C   UNL d   1      59.476   0.521  30.638  0.00  0.00     0.018 A 
ATOM      8  C   UNL d   1      59.699   0.443  29.018  0.00  0.00     0.002 A 
ATOM      9  C   UNL d   1      58.289   0.076  28.991  0.00  0.00     0.021 A 
ATOM     10  C   UNL d   1      60.334   0.648  29.511  0.00  0.00     0.000 A 
ATOM     11  C   UNL d   1      60.202   0.682  30.324  0.00  0.00     0.002 A 
ATOM     12  C   UNL d   1      57.720  -0.021  29.587  0.00  0.00     0.092 A 
ENDBRANCH   1   4
BRANCH   1  13
ATOM     13  C   UNL d   1      57.522   0.111  31.864  0.00  0.00     0.121 A 
ATOM     14  C   UNL d   1      56.972  -0.448  32.120  0.00  0.00     0.093 A 
ATOM     15  N   UNL d   1      56.682  -1.011  31.588  0.00  0.00    -0.243 NA
ATOM     16  C   UNL d   1      56.714  -0.441  32.908  0.00  0.00     0.018 A 
ATOM     17  C   UNL d   1      56.134  -1.568  31.842  0.00  0.00     0.099 A 
ATOM     18  C   UNL d   1      55.872  -1.566  32.630  0.00  0.00     0.021 A 
ATOM     19  C   UNL d   1      56.167  -0.997  33.162  0.00  0.00     0.003 A 
ATOM     20  C   UNL d   1      57.004   0.123  33.440  0.00  0.00     0.002 A 
ATOM     21  C   UNL d   1      57.555   0.682  33.185  0.00  0.00     0.001 A 
ATOM     22  C   UNL d   1      57.810   0.673  32.400  0.00  0.00     0.014 A 
ENDBRANCH   1  13
TORSDOF 2
ENDMDL
MODEL 6
REMARK VINA RESULT:      -2.3      8.881      9.831
REMARK  2 active torsions:
REMARK  status: ('A' for Active; 'I' for Inactive)
REMARK    1  A    between atoms: N_2  and  S_1 
REMARK    2  A    between atoms: C_3  and  S_1 
ROOT
ATOM      1  S   UNL d   1      59.773  -9.339  33.925  0.00  0.00     0.273 S 
ATOM      2  O   UNL d   1      59.006  -9.061  33.729  0.00  0.00    -0.200 OA
ATOM      3  O   UNL d   1      60.533  -9.615  34.108  0.00  0.00    -0.200 OA
ENDROOT
BRANCH   1   4
ATOM      4  N   UNL d   1      59.933  -9.475  33.116  0.00  0.00    -0.231 N 
ATOM      5  C   UNL d   1      59.302  -9.578  32.586  0.00  0.00     0.075 A 
ATOM      6  C   UNL d   1      59.626  -9.699  31.842  0.00  0.00     0.018 A 
ATOM      7  C   UNL d   1      58.501  -9.575  32.693  0.00  0.00     0.018 A 
ATOM      8  C   UNL d   1      59.142  -9.818  31.207  0.00  0.00     0.002 A 
ATOM      9  C   UNL d   1      60.418  -9.675  31.898  0.00  0.00     0.021 A 
ATOM     10  C   UNL d   1      58.319  -9.817  31.303  0.00  0.00     0.000 A 
ATOM     11  C   UNL d   1      58.015  -9.693  32.060  0.00  0.00     0.002 A 
ATOM     12  C   UNL d   1      60.617  -9.535  32.691  0.00  0.00     0.092 A 
ENDBRANCH   1   4
BRANCH   1  13
ATOM     13  C   UNL d   1      59.609  -9.202  34.721  0.00  0.00     0.121 A 
ATOM     14  C   UNL d   1      59.897  -8.534  35.110  0.00  0.00     0.093 A 
ATOM     15  N   UNL d   1      60.360  -7.986  34.698  0.00  0.00    -0.243 NA
ATOM     16  C   UNL d   1      59.719  -8.417  35.912  0.00  0.00     0.018 A 
ATOM     17  C   UNL d   1      60.647  -7.321  35.085  0.00  0.00     0.099 A 
ATOM     18  C   UNL d   1      60.472  -7.197  35.888  0.00  0.00     0.021 A 
ATOM     19  C   UNL d   1      60.005  -7.752  36.299  0.00  0.00     0.003 A 
ATOM     20  C   UNL d   1      59.255  -8.964  36.324  0.00  0.00     0.002 A 
ATOM     21  C   UNL d   1      58.968  -9.633  35.935  0.00  0.00     0.001 A 
ATOM     22  C   UNL d   1      59.146  -9.747  35.137  0.00  0.00     0.014 A 
ENDBRANCH   1  13
TORSDOF 2
ENDMDL
MODEL 7
REMARK VINA RESULT:      -1.7      1.962      4.845
REMARK  2 active torsions:
REMARK  status: ('A' for Active; 'I' for Inactive)
REMARK    1  A    between atoms: N_2  and  S_1 
REMARK    2  A    between atoms: C_3  and  S_1 
ROOT
ATOM      1  S   UNL d   1      56.445  -0.213  32.999  0.00  0.00     0.273 S 
ATOM      2  O   UNL d   1      56.753  -0.901  33.369  0.00  0.00    -0.200 OA
ATOM      3  O   UNL d   1      56.143   0.462  32.625  0.00  0.00    -0.200 OA
ENDROOT
BRANCH   1   4
ATOM      4  N   UNL d   1      56.651  -0.521  32.250  0.00  0.00    -0.231 N 
ATOM      5  C   UNL d   1      57.266  -0.168  31.818  0.00  0.00     0.075 A 
ATOM      6  C   UNL d   1      57.339  -0.585  31.114  0.00  0.00     0.018 A 
ATOM      7  C   UNL d   1      57.747   0.461  31.978  0.00  0.00     0.018 A 
ATOM      8  C   UNL d   1      57.898  -0.368  30.575  0.00  0.00     0.002 A 
ATOM      9  C   UNL d   1      56.801  -1.169  31.103  0.00  0.00     0.021 A 
ATOM     10  C   UNL d   1      58.398   0.275  30.727  0.00  0.00     0.000 A 
ATOM     11  C   UNL d   1      58.307   0.680  31.440  0.00  0.00     0.002 A 
ATOM     12  C   UNL d   1      56.367  -1.135  31.810  0.00  0.00     0.092 A 
ENDBRANCH   1   4
BRANCH   1  13
ATOM     13  C   UNL d   1      56.244   0.084  33.742  0.00  0.00     0.121 A 
ATOM     14  C   UNL d   1      55.459   0.233  33.947  0.00  0.00     0.093 A 
ATOM     15  N   UNL d   1      54.856   0.083  33.401  0.00  0.00    -0.243 NA
ATOM     16  C   UNL d   1      55.281   0.532  34.700  0.00  0.00     0.018 A 
ATOM     17  C   UNL d   1      54.075   0.231  33.605  0.00  0.00     0.099 A 
ATOM     18  C   UNL d   1      53.889   0.530  34.357  0.00  0.00     0.021 A 
ATOM     19  C   UNL d   1      54.500   0.680  34.904  0.00  0.00     0.003 A 
ATOM     20  C   UNL d   1      55.884   0.682  35.246  0.00  0.00     0.002 A 
ATOM     21  C   UNL d   1      56.669   0.533  35.041  0.00  0.00     0.001 A 
ATOM     22  C   UNL d   1      56.844   0.235  34.292  0.00  0.00     0.014 A 
ENDBRANCH   1  13
TORSDOF 2
ENDMDL
