MODEL 1
REMARK VINA RESULT:      15.5      0.000      0.000
REMARK  5 active torsions:
REMARK  status: ('A' for Active; 'I' for Inactive)
REMARK    1  A    between atoms: C_3  and  C_1 
REMARK       I    between atoms: N_4  and  C_1 
REMARK    2  A    between atoms: C_9  and  N_4 
REMARK    3  A    between atoms: C_5  and  O_6 
REMARK    4  A    between atoms: O_6  and  C_10 
REMARK    5  A    between atoms: C_10  and  C_9 
ROOT
ATOM      1  C   UNL d   1      13.342  12.236  -3.600  0.00  0.00     0.279 C 
ATOM      2  O   UNL d   1      12.797  12.713  -3.204  0.00  0.00    -0.265 OA
ATOM      3  N   UNL d   1      13.878  11.779  -3.171  0.00  0.00    -0.204 NA
ENDROOT
BRANCH   3   4
ATOM      4  C   UNL d   1      13.870  11.798  -2.346  0.00  0.00     0.129 C 
BRANCH   4   5
ATOM      5  C   UNL d   1      14.546  12.025  -1.931  0.00  0.00     0.143 C 
BRANCH   5   6
ATOM      6  O   UNL d   1      14.522  12.100  -1.109  0.00  0.00    -0.303 OA
BRANCH   6   7
ATOM      7  C   UNL d   1      14.743  12.818  -0.741  0.00  0.00     0.100 A 
ATOM      8  C   UNL d   1      14.166  13.284  -0.379  0.00  0.00     0.025 A 
ATOM      9  C   UNL d   1      14.371  13.988  -0.016  0.00  0.00     0.002 A 
ATOM     10  C   UNL d   1      15.158  14.229  -0.015  0.00  0.00     0.000 A 
ATOM     11  C   UNL d   1      15.734  13.763  -0.376  0.00  0.00     0.002 A 
ATOM     12  C   UNL d   1      15.525  13.056  -0.740  0.00  0.00     0.025 A 
ENDBRANCH   6   7
ENDBRANCH   5   6
ENDBRANCH   4   5
ENDBRANCH   3   4
BRANCH   1  13
ATOM     13  C   UNL d   1      13.351  12.216  -4.422  0.00  0.00     0.058 A 
ATOM     14  C   UNL d   1      12.772  11.801  -4.822  0.00  0.00     0.005 A 
ATOM     15  C   UNL d   1      12.779  11.780  -5.647  0.00  0.00     0.000 A 
ATOM     16  C   UNL d   1      13.371  12.176  -6.064  0.00  0.00     0.000 A 
ATOM     17  C   UNL d   1      13.955  12.594  -5.656  0.00  0.00     0.000 A 
ATOM     18  C   UNL d   1      13.943  12.612  -4.839  0.00  0.00     0.005 A 
ENDBRANCH   1  13
TORSDOF 5
ENDMDL
MODEL 2
REMARK VINA RESULT:      17.4      1.022      4.574
REMARK  5 active torsions:
REMARK  status: ('A' for Active; 'I' for Inactive)
REMARK    1  A    between atoms: C_3  and  C_1 
REMARK       I    between atoms: N_4  and  C_1 
REMARK    2  A    between atoms: C_9  and  N_4 
REMARK    3  A    between atoms: C_5  and  O_6 
REMARK    4  A    between atoms: O_6  and  C_10 
REMARK    5  A    between atoms: C_10  and  C_9 
ROOT
ATOM      1  C   UNL d   1      14.816  13.231  -0.631  0.00  0.00     0.279 C 
ATOM      2  O   UNL d   1      14.671  12.691  -0.025  0.00  0.00    -0.265 OA
ATOM      3  N   UNL d   1      14.683  13.014  -1.417  0.00  0.00    -0.204 NA
ENDROOT
BRANCH   3   4
ATOM      4  C   UNL d   1      14.406  12.258  -1.596  0.00  0.00     0.129 C 
BRANCH   4   5
ATOM      5  C   UNL d   1      13.911  12.142  -2.246  0.00  0.00     0.143 C 
BRANCH   5   6
ATOM      6  O   UNL d   1      14.220  12.165  -3.011  0.00  0.00    -0.303 OA
BRANCH   6   7
ATOM      7  C   UNL d   1      13.730  12.359  -3.661  0.00  0.00     0.100 A 
ATOM      8  C   UNL d   1      13.482  13.138  -3.765  0.00  0.00     0.025 A 
ATOM      9  C   UNL d   1      13.003  13.339  -4.397  0.00  0.00     0.002 A 
ATOM     10  C   UNL d   1      12.771  12.757  -4.929  0.00  0.00     0.000 A 
ATOM     11  C   UNL d   1      13.019  11.977  -4.825  0.00  0.00     0.002 A 
ATOM     12  C   UNL d   1      13.500  11.779  -4.189  0.00  0.00     0.025 A 
ENDBRANCH   6   7
ENDBRANCH   5   6
ENDBRANCH   4   5
ENDBRANCH   3   4
BRANCH   1  13
ATOM     13  C   UNL d   1      15.092  13.984  -0.455  0.00  0.00     0.058 A 
ATOM     14  C   UNL d   1      14.566  14.561  -0.213  0.00  0.00     0.005 A 
ATOM     15  C   UNL d   1      14.841  15.319  -0.035  0.00  0.00     0.000 A 
ATOM     16  C   UNL d   1      15.645  15.491  -0.102  0.00  0.00     0.000 A 
ATOM     17  C   UNL d   1      16.174  14.905  -0.346  0.00  0.00     0.000 A 
ATOM     18  C   UNL d   1      15.896  14.156  -0.521  0.00  0.00     0.005 A 
ENDBRANCH   1  13
TORSDOF 5
ENDMDL
