MODEL 1
REMARK VINA RESULT:      -0.6      0.000      0.000
REMARK  4 active torsions:
REMARK  status: ('A' for Active; 'I' for Inactive)
REMARK    1  A    between atoms: C_3  and  C_14 
REMARK    2  A    between atoms: C_21  and  C_4 
REMARK    3  A    between atoms: S_15  and  C_5 
REMARK    4  A    between atoms: C_14  and  S_15 
ROOT
ATOM      1  C   UNL d   1      58.430   0.607  31.993  0.00  0.00     0.092 A 
ATOM      2  C   UNL d   1      58.879   0.595  30.643  0.00  0.00     0.057 A 
ATOM      3  C   UNL d   1      59.046   0.628  31.447  0.00  0.00     0.016 A 
ATOM      4  C   UNL d   1      57.648   0.553  31.732  0.00  0.00     0.120 A 
ATOM      5  N   UNL d   1      57.478   0.520  30.935  0.00  0.00    -0.239 NA
ATOM      6  C   UNL d   1      58.097   0.541  30.382  0.00  0.00     0.081 A 
ATOM      7  C   UNL d   1      59.497   0.616  30.093  0.00  0.00     0.193 A 
ATOM      8  C   UNL d   1      58.595   0.640  32.800  0.00  0.00     0.103 C 
ATOM      9  N   UNL d   1      58.761   0.673  33.609  0.00  0.00    -0.191 NA
ATOM     10  C   UNL d   1      58.543   0.528  29.020  0.00  0.00     0.042 A 
ATOM     11  C   UNL d   1      59.337   0.583  29.278  0.00  0.00     0.019 A 
ATOM     12  C   UNL d   1      57.921   0.507  29.569  0.00  0.00    -0.003 A 
ATOM     13  O   UNL d   1      60.280   0.670  30.355  0.00  0.00    -0.287 OA
ATOM     14  C   UNL d   1      57.864   0.475  28.561  0.00  0.00     0.009 C 
ATOM     15  C   UNL d   1      59.167   0.550  28.477  0.00  0.00     0.009 C 
ENDROOT
BRANCH   3  16
ATOM     16  C   UNL d   1      59.828   0.682  31.708  0.00  0.00     0.001 C 
ATOM     17  C   UNL d   1      60.313   0.024  31.657  0.00  0.00     0.000 C 
ENDBRANCH   3  16
BRANCH   4  18
ATOM     18  S   UNL d   1      57.034   0.532  32.283  0.00  0.00    -0.067 SA
BRANCH  18  19
ATOM     19  C   UNL d   1      56.328   0.150  32.093  0.00  0.00     0.041 C 
BRANCH  19  20
ATOM     20  C   UNL d   1      55.880  -0.211  32.684  0.00  0.00     0.051 A 
ATOM     21  C   UNL d   1      55.438   0.097  33.199  0.00  0.00     0.127 A 
ATOM     22  O   UNL d   1      55.067  -0.403  33.709  0.00  0.00    -0.211 OA
ATOM     23  C   UNL d   1      55.114   0.682  33.539  0.00  0.00     0.029 C 
ATOM     24  N   UNL d   1      55.332  -1.131  33.456  0.00  0.00    -0.126 NA
ATOM     25  C   UNL d   1      55.834  -1.018  32.823  0.00  0.00     0.111 A 
ATOM     26  C   UNL d   1      56.224  -1.602  32.401  0.00  0.00     0.023 C 
ENDBRANCH  19  20
ENDBRANCH  18  19
ENDBRANCH   4  18
TORSDOF 4
ENDMDL
MODEL 2
REMARK VINA RESULT:       0.1      2.533      2.911
REMARK  4 active torsions:
REMARK  status: ('A' for Active; 'I' for Inactive)
REMARK    1  A    between atoms: C_3  and  C_14 
REMARK    2  A    between atoms: C_21  and  C_4 
REMARK    3  A    between atoms: S_15  and  C_5 
REMARK    4  A    between atoms: C_14  and  S_15 
ROOT
ATOM      1  C   UNL d   1      59.252  -0.808  30.128  0.00  0.00     0.092 A 
ATOM      2  C   UNL d   1      59.479  -2.034  29.440  0.00  0.00     0.057 A 
ATOM      3  C   UNL d   1      59.760  -1.315  29.723  0.00  0.00     0.016 A 
ATOM      4  C   UNL d   1      58.463  -1.023  30.247  0.00  0.00     0.120 A 
ATOM      5  N   UNL d   1      58.179  -1.734  29.968  0.00  0.00    -0.239 NA
ATOM      6  C   UNL d   1      58.690  -2.248  29.560  0.00  0.00     0.081 A 
ATOM      7  C   UNL d   1      59.988  -2.544  29.034  0.00  0.00     0.193 A 
ATOM      8  C   UNL d   1      59.532  -0.087  30.412  0.00  0.00     0.103 C 
ATOM      9  N   UNL d   1      59.813   0.636  30.697  0.00  0.00    -0.191 NA
ATOM     10  C   UNL d   1      58.911  -3.483  28.869  0.00  0.00     0.042 A 
ATOM     11  C   UNL d   1      59.711  -3.272  28.745  0.00  0.00     0.019 A 
ATOM     12  C   UNL d   1      58.398  -2.974  29.276  0.00  0.00    -0.003 A 
ATOM     13  O   UNL d   1      60.777  -2.329  28.914  0.00  0.00    -0.287 OA
ATOM     14  C   UNL d   1      58.192  -3.879  28.877  0.00  0.00     0.009 C 
ATOM     15  C   UNL d   1      59.427  -3.987  28.464  0.00  0.00     0.009 C 
ENDROOT
BRANCH   3  16
ATOM     16  C   UNL d   1      60.549  -1.101  29.603  0.00  0.00     0.001 C 
ATOM     17  C   UNL d   1      60.720  -0.446  29.142  0.00  0.00     0.000 C 
ENDBRANCH   3  16
BRANCH   4  18
ATOM     18  S   UNL d   1      57.958  -0.511  30.653  0.00  0.00    -0.067 SA
BRANCH  18  19
ATOM     19  C   UNL d   1      57.361  -0.822  31.131  0.00  0.00     0.041 C 
BRANCH  19  20
ATOM     20  C   UNL d   1      56.927  -0.326  31.627  0.00  0.00     0.051 A 
ATOM     21  C   UNL d   1      56.786  -0.389  32.356  0.00  0.00     0.127 A 
ATOM     22  O   UNL d   1      56.339   0.189  32.693  0.00  0.00    -0.211 OA
ATOM     23  C   UNL d   1      56.839  -0.734  33.020  0.00  0.00     0.029 C 
ATOM     24  N   UNL d   1      56.189   0.679  32.060  0.00  0.00    -0.126 NA
ATOM     25  C   UNL d   1      56.549   0.366  31.398  0.00  0.00     0.111 A 
ATOM     26  C   UNL d   1      56.539   0.681  30.643  0.00  0.00     0.023 C 
ENDBRANCH  19  20
ENDBRANCH  18  19
ENDBRANCH   4  18
TORSDOF 4
ENDMDL
MODEL 3
REMARK VINA RESULT:       0.8      1.806      2.562
REMARK  4 active torsions:
REMARK  status: ('A' for Active; 'I' for Inactive)
REMARK    1  A    between atoms: C_3  and  C_14 
REMARK    2  A    between atoms: C_21  and  C_4 
REMARK    3  A    between atoms: S_15  and  C_5 
REMARK    4  A    between atoms: C_14  and  S_15 
ROOT
ATOM      1  C   UNL d   1      58.075  -1.231  30.261  0.00  0.00     0.092 A 
ATOM      2  C   UNL d   1      59.250  -1.030  29.483  0.00  0.00     0.057 A 
ATOM      3  C   UNL d   1      58.618  -1.506  29.707  0.00  0.00     0.016 A 
ATOM      4  C   UNL d   1      58.167  -0.479  30.590  0.00  0.00     0.120 A 
ATOM      5  N   UNL d   1      58.791  -0.003  30.373  0.00  0.00    -0.239 NA
ATOM      6  C   UNL d   1      59.341  -0.278  29.813  0.00  0.00     0.081 A 
ATOM      7  C   UNL d   1      59.797  -1.305  28.926  0.00  0.00     0.193 A 
ATOM      8  C   UNL d   1      57.441  -1.707  30.486  0.00  0.00     0.103 C 
ATOM      9  N   UNL d   1      56.805  -2.183  30.712  0.00  0.00    -0.191 NA
ATOM     10  C   UNL d   1      60.525  -0.069  29.033  0.00  0.00     0.042 A 
ATOM     11  C   UNL d   1      60.438  -0.829  28.696  0.00  0.00     0.019 A 
ATOM     12  C   UNL d   1      59.979   0.210  29.592  0.00  0.00    -0.003 A 
ATOM     13  O   UNL d   1      59.705  -2.058  28.597  0.00  0.00    -0.287 OA
ATOM     14  C   UNL d   1      60.795   0.682  29.228  0.00  0.00     0.009 C 
ATOM     15  C   UNL d   1      61.066  -0.352  28.476  0.00  0.00     0.009 C 
ENDROOT
BRANCH   3  16
ATOM     16  C   UNL d   1      58.527  -2.258  29.377  0.00  0.00     0.001 C 
ATOM     17  C   UNL d   1      59.063  -2.847  29.569  0.00  0.00     0.000 C 
ENDBRANCH   3  16
BRANCH   4  18
ATOM     18  S   UNL d   1      57.619  -0.207  31.146  0.00  0.00    -0.067 SA
BRANCH  18  19
ATOM     19  C   UNL d   1      57.821   0.418  31.646  0.00  0.00     0.041 C 
BRANCH  19  20
ATOM     20  C   UNL d   1      57.441   0.508  32.372  0.00  0.00     0.051 A 
ATOM     21  C   UNL d   1      56.712   0.509  32.528  0.00  0.00     0.127 A 
ATOM     22  O   UNL d   1      56.504   0.610  33.299  0.00  0.00    -0.211 OA
ATOM     23  C   UNL d   1      55.987   0.461  32.340  0.00  0.00     0.029 C 
ATOM     24  N   UNL d   1      57.230   0.682  33.663  0.00  0.00    -0.126 NA
ATOM     25  C   UNL d   1      57.812   0.620  33.095  0.00  0.00     0.111 A 
ATOM     26  C   UNL d   1      58.620   0.661  33.219  0.00  0.00     0.023 C 
ENDBRANCH  19  20
ENDBRANCH  18  19
ENDBRANCH   4  18
TORSDOF 4
ENDMDL
MODEL 4
REMARK VINA RESULT:       0.9      2.529      4.339
REMARK  4 active torsions:
REMARK  status: ('A' for Active; 'I' for Inactive)
REMARK    1  A    between atoms: C_3  and  C_14 
REMARK    2  A    between atoms: C_21  and  C_4 
REMARK    3  A    between atoms: S_15  and  C_5 
REMARK    4  A    between atoms: C_14  and  S_15 
ROOT
ATOM      1  C   UNL d   1      58.405  -0.422  30.588  0.00  0.00     0.092 A 
ATOM      2  C   UNL d   1      57.475  -0.403  31.666  0.00  0.00     0.057 A 
ATOM      3  C   UNL d   1      58.099  -0.055  31.259  0.00  0.00     0.016 A 
ATOM      4  C   UNL d   1      58.084  -1.137  30.327  0.00  0.00     0.120 A 
ATOM      5  N   UNL d   1      57.465  -1.486  30.726  0.00  0.00    -0.239 NA
ATOM      6  C   UNL d   1      57.154  -1.118  31.404  0.00  0.00     0.081 A 
ATOM      7  C   UNL d   1      57.166  -0.035  32.340  0.00  0.00     0.193 A 
ATOM      8  C   UNL d   1      59.031  -0.075  30.179  0.00  0.00     0.103 C 
ATOM      9  N   UNL d   1      59.657   0.272  29.769  0.00  0.00    -0.191 NA
ATOM     10  C   UNL d   1      56.216  -1.104  32.486  0.00  0.00     0.042 A 
ATOM     11  C   UNL d   1      56.535  -0.380  32.756  0.00  0.00     0.019 A 
ATOM     12  C   UNL d   1      56.522  -1.475  31.811  0.00  0.00    -0.003 A 
ATOM     13  O   UNL d   1      57.488   0.681  32.601  0.00  0.00    -0.287 OA
ATOM     14  C   UNL d   1      55.765  -1.785  32.403  0.00  0.00     0.009 C 
ATOM     15  C   UNL d   1      55.914  -0.730  33.159  0.00  0.00     0.009 C 
ENDROOT
BRANCH   3  16
ATOM     16  C   UNL d   1      58.419   0.660  31.521  0.00  0.00     0.001 C 
ATOM     17  C   UNL d   1      58.820   0.682  32.235  0.00  0.00     0.000 C 
ENDBRANCH   3  16
BRANCH   4  18
ATOM     18  S   UNL d   1      58.394  -1.502  29.653  0.00  0.00    -0.067 SA
BRANCH  18  19
ATOM     19  C   UNL d   1      59.058  -1.986  29.721  0.00  0.00     0.041 C 
BRANCH  19  20
ATOM     20  C   UNL d   1      59.112  -2.681  29.281  0.00  0.00     0.051 A 
ATOM     21  C   UNL d   1      58.584  -3.039  28.894  0.00  0.00     0.127 A 
ATOM     22  O   UNL d   1      58.805  -3.714  28.514  0.00  0.00    -0.211 OA
ATOM     23  C   UNL d   1      57.885  -3.124  28.636  0.00  0.00     0.029 C 
ATOM     24  N   UNL d   1      59.595  -3.767  28.707  0.00  0.00    -0.126 NA
ATOM     25  C   UNL d   1      59.789  -3.132  29.180  0.00  0.00     0.111 A 
ATOM     26  C   UNL d   1      60.526  -2.970  29.499  0.00  0.00     0.023 C 
ENDBRANCH  19  20
ENDBRANCH  18  19
ENDBRANCH   4  18
TORSDOF 4
ENDMDL
MODEL 5
REMARK VINA RESULT:       1.4      4.282      5.215
REMARK  4 active torsions:
REMARK  status: ('A' for Active; 'I' for Inactive)
REMARK    1  A    between atoms: C_3  and  C_14 
REMARK    2  A    between atoms: C_21  and  C_4 
REMARK    3  A    between atoms: S_15  and  C_5 
REMARK    4  A    between atoms: C_14  and  S_15 
ROOT
ATOM      1  C   UNL d   1      59.841  -3.054  28.839  0.00  0.00     0.092 A 
ATOM      2  C   UNL d   1      59.324  -4.371  28.683  0.00  0.00     0.057 A 
ATOM      3  C   UNL d   1      59.967  -3.862  28.740  0.00  0.00     0.016 A 
ATOM      4  C   UNL d   1      59.071  -2.759  28.882  0.00  0.00     0.120 A 
ATOM      5  N   UNL d   1      58.430  -3.259  28.827  0.00  0.00    -0.239 NA
ATOM      6  C   UNL d   1      58.554  -4.075  28.726  0.00  0.00     0.081 A 
ATOM      7  C   UNL d   1      59.450  -5.183  28.583  0.00  0.00     0.193 A 
ATOM      8  C   UNL d   1      60.485  -2.542  28.896  0.00  0.00     0.103 C 
ATOM      9  N   UNL d   1      61.129  -2.029  28.954  0.00  0.00    -0.191 NA
ATOM     10  C   UNL d   1      58.028  -5.398  28.569  0.00  0.00     0.042 A 
ATOM     11  C   UNL d   1      58.805  -5.704  28.524  0.00  0.00     0.019 A 
ATOM     12  C   UNL d   1      57.899  -4.585  28.669  0.00  0.00    -0.003 A 
ATOM     13  O   UNL d   1      60.221  -5.478  28.540  0.00  0.00    -0.287 OA
ATOM     14  C   UNL d   1      57.210  -5.320  28.585  0.00  0.00     0.009 C 
ATOM     15  C   UNL d   1      58.162  -6.208  28.468  0.00  0.00     0.009 C 
ENDROOT
BRANCH   3  16
ATOM     16  C   UNL d   1      60.737  -4.158  28.697  0.00  0.00     0.001 C 
ATOM     17  C   UNL d   1      61.022  -4.624  29.308  0.00  0.00     0.000 C 
ENDBRANCH   3  16
BRANCH   4  18
ATOM     18  S   UNL d   1      58.949  -1.948  28.982  0.00  0.00    -0.067 SA
BRANCH  18  19
ATOM     19  C   UNL d   1      58.267  -1.682  29.362  0.00  0.00     0.041 C 
BRANCH  19  20
ATOM     20  C   UNL d   1      58.194  -0.889  29.575  0.00  0.00     0.051 A 
ATOM     21  C   UNL d   1      58.297  -0.276  29.163  0.00  0.00     0.127 A 
ATOM     22  O   UNL d   1      58.183   0.433  29.528  0.00  0.00    -0.211 OA
ATOM     23  C   UNL d   1      58.468   0.081  28.526  0.00  0.00     0.029 C 
ATOM     24  N   UNL d   1      57.977   0.204  30.283  0.00  0.00    -0.126 NA
ATOM     25  C   UNL d   1      57.982  -0.611  30.317  0.00  0.00     0.111 A 
ATOM     26  C   UNL d   1      57.809  -1.071  30.972  0.00  0.00     0.023 C 
ENDBRANCH  19  20
ENDBRANCH  18  19
ENDBRANCH   4  18
TORSDOF 4
ENDMDL
MODEL 6
REMARK VINA RESULT:       2.1      1.439      4.635
REMARK  4 active torsions:
REMARK  status: ('A' for Active; 'I' for Inactive)
REMARK    1  A    between atoms: C_3  and  C_14 
REMARK    2  A    between atoms: C_21  and  C_4 
REMARK    3  A    between atoms: S_15  and  C_5 
REMARK    4  A    between atoms: C_14  and  S_15 
ROOT
ATOM      1  C   UNL d   1      57.277   0.519  31.623  0.00  0.00     0.092 A 
ATOM      2  C   UNL d   1      57.292   0.582  33.045  0.00  0.00     0.057 A 
ATOM      3  C   UNL d   1      56.871   0.547  32.340  0.00  0.00     0.016 A 
ATOM      4  C   UNL d   1      58.103   0.528  31.616  0.00  0.00     0.120 A 
ATOM      5  N   UNL d   1      58.524   0.563  32.313  0.00  0.00    -0.239 NA
ATOM      6  C   UNL d   1      58.118   0.591  33.037  0.00  0.00     0.081 A 
ATOM      7  C   UNL d   1      56.885   0.610  33.766  0.00  0.00     0.193 A 
ATOM      8  C   UNL d   1      56.856   0.483  30.915  0.00  0.00     0.103 C 
ATOM      9  N   UNL d   1      56.436   0.447  30.205  0.00  0.00    -0.191 NA
ATOM     10  C   UNL d   1      58.140   0.655  34.468  0.00  0.00     0.042 A 
ATOM     11  C   UNL d   1      57.304   0.646  34.483  0.00  0.00     0.019 A 
ATOM     12  C   UNL d   1      58.550   0.627  33.748  0.00  0.00    -0.003 A 
ATOM     13  O   UNL d   1      56.059   0.602  33.773  0.00  0.00    -0.287 OA
ATOM     14  C   UNL d   1      58.933   0.673  34.682  0.00  0.00     0.009 C 
ATOM     15  C   UNL d   1      57.726   0.682  35.184  0.00  0.00     0.009 C 
ENDROOT
BRANCH   3  16
ATOM     16  C   UNL d   1      56.045   0.538  32.348  0.00  0.00     0.001 C 
ATOM     17  C   UNL d   1      55.651  -0.179  32.310  0.00  0.00     0.000 C 
ENDBRANCH   3  16
BRANCH   4  18
ATOM     18  S   UNL d   1      58.505   0.500  30.895  0.00  0.00    -0.067 SA
BRANCH  18  19
ATOM     19  C   UNL d   1      59.310   0.679  30.870  0.00  0.00     0.041 C 
BRANCH  19  20
ATOM     20  C   UNL d   1      59.770   0.433  30.232  0.00  0.00     0.051 A 
ATOM     21  C   UNL d   1      59.585   0.365  29.513  0.00  0.00     0.127 A 
ATOM     22  O   UNL d   1      60.160   0.108  29.011  0.00  0.00    -0.211 OA
ATOM     23  C   UNL d   1      59.105   0.409  28.938  0.00  0.00     0.029 C 
ATOM     24  N   UNL d   1      60.792   0.006  29.515  0.00  0.00    -0.126 NA
ATOM     25  C   UNL d   1      60.557   0.206  30.270  0.00  0.00     0.111 A 
ATOM     26  C   UNL d   1      61.019   0.184  30.946  0.00  0.00     0.023 C 
ENDBRANCH  19  20
ENDBRANCH  18  19
ENDBRANCH   4  18
TORSDOF 4
ENDMDL
