MODEL 1
REMARK VINA RESULT:      16.1      0.000      0.000
REMARK  3 active torsions:
REMARK  status: ('A' for Active; 'I' for Inactive)
REMARK    1  A    between atoms: C_2  and  C_4 
REMARK    2  A    between atoms: N_3  and  C_2 
REMARK    3  A    between atoms: C_5  and  N_3 
ROOT
ATOM      1  C   UNL d   1      45.901 -16.636  44.053  0.00  0.00     0.153 C 
ATOM      2  S   UNL d   1      46.094 -16.241  43.357  0.00  0.00    -0.056 SA
ENDROOT
BRANCH   1   3
ATOM      3  C   UNL d   1      46.059 -17.443  44.124  0.00  0.00     0.109 A 
ATOM      4  N   UNL d   1      46.167 -17.908  43.438  0.00  0.00    -0.243 NA
ATOM      5  C   UNL d   1      46.325 -18.718  43.511  0.00  0.00     0.081 A 
ATOM      6  C   UNL d   1      46.374 -19.062  44.264  0.00  0.00     0.018 A 
ATOM      7  C   UNL d   1      46.432 -19.179  42.838  0.00  0.00     0.019 A 
ATOM      8  C   UNL d   1      46.268 -18.601  44.943  0.00  0.00     0.003 A 
ATOM      9  C   UNL d   1      46.531 -19.865  44.332  0.00  0.00     0.002 A 
ATOM     10  C   UNL d   1      46.110 -17.795  44.872  0.00  0.00     0.021 A 
ATOM     11  C   UNL d   1      46.638 -20.328  43.664  0.00  0.00     0.000 A 
ATOM     12  C   UNL d   1      46.589 -19.985  42.918  0.00  0.00     0.002 A 
ENDBRANCH   1   3
BRANCH   1  13
ATOM     13  N   UNL d   1      45.553 -16.229  44.679  0.00  0.00    -0.233 NA
BRANCH  13  14
ATOM     14  C   UNL d   1      45.601 -15.403  44.709  0.00  0.00     0.082 A 
ATOM     15  C   UNL d   1      44.910 -14.961  44.841  0.00  0.00     0.018 A 
ATOM     16  C   UNL d   1      44.966 -14.135  44.871  0.00  0.00     0.002 A 
ATOM     17  C   UNL d   1      44.185 -15.336  44.939  0.00  0.00     0.002 C 
ATOM     18  C   UNL d   1      45.691 -13.760  44.772  0.00  0.00     0.000 A 
ATOM     19  C   UNL d   1      46.374 -14.207  44.642  0.00  0.00     0.002 A 
ATOM     20  C   UNL d   1      45.739 -12.934  44.803  0.00  0.00     0.000 C 
ATOM     21  C   UNL d   1      46.329 -15.030  44.610  0.00  0.00     0.019 A 
ENDBRANCH  13  14
ENDBRANCH   1  13
TORSDOF 3
ENDMDL
