MODEL 1
REMARK VINA RESULT:      -4.4      0.000      0.000
REMARK  5 active torsions:
REMARK  status: ('A' for Active; 'I' for Inactive)
REMARK    1  A    between atoms: C_12  and  N_3 
REMARK    2  A    between atoms: C_11  and  C_5 
REMARK       I    between atoms: N_16  and  C_11 
REMARK    3  A    between atoms: C_15  and  C_12 
REMARK    4  A    between atoms: C_26  and  N_16 
REMARK    5  A    between atoms: C_27  and  C_26 
ROOT
ATOM      1  C   UNL d   1     -40.083  15.371  20.741  0.00  0.00     0.155 A 
ATOM      2  C   UNL d   1     -39.395  15.536  20.316  0.00  0.00     0.091 A 
ATOM      3  N   UNL d   1     -40.782  15.194  20.356  0.00  0.00    -0.272 N 
ATOM      4  N   UNL d   1     -40.061  15.387  21.570  0.00  0.00    -0.210 NA
ATOM      5  C   UNL d   1     -40.119  15.342  19.095  0.00  0.00     0.094 A 
ATOM      6  C   UNL d   1     -40.803  15.178  19.526  0.00  0.00     0.175 A 
ATOM      7  C   UNL d   1     -38.694  15.714  20.707  0.00  0.00     0.269 A 
ATOM      8  N   UNL d   1     -38.675  15.728  21.530  0.00  0.00    -0.258 N 
ATOM      9  C   UNL d   1     -39.358  15.565  21.962  0.00  0.00     0.152 A 
ATOM     10  C   UNL d   1     -39.414  15.521  19.493  0.00  0.00     0.016 A 
ATOM     11  N   UNL d   1     -41.515  14.998  19.136  0.00  0.00    -0.128 N 
ATOM     12  C   UNL d   1     -37.973  15.906  21.921  0.00  0.00     0.084 A 
ATOM     13  O   UNL d   1     -38.010  15.877  20.275  0.00  0.00    -0.266 OA
ATOM     14  C   UNL d   1     -39.341  15.579  22.785  0.00  0.00     0.038 A 
ATOM     15  C   UNL d   1     -37.952  15.922  22.748  0.00  0.00     0.019 A 
ATOM     16  C   UNL d   1     -38.636  15.758  23.180  0.00  0.00     0.005 A 
ENDROOT
BRANCH   5  17
ATOM     17  C   UNL d   1     -40.140  15.327  18.268  0.00  0.00     0.282 C 
ATOM     18  N   UNL d   1     -39.753  14.728  17.856  0.00  0.00    -0.206 NA
ATOM     19  O   UNL d   1     -40.548  15.909  17.849  0.00  0.00    -0.265 OA
BRANCH  18  20
ATOM     20  C   UNL d   1     -39.344  14.142  18.268  0.00  0.00     0.102 C 
BRANCH  20  21
ATOM     21  C   UNL d   1     -38.893  13.579  17.863  0.00  0.00     0.019 A 
ATOM     22  C   UNL d   1     -38.699  12.871  18.245  0.00  0.00     0.002 A 
ATOM     23  C   UNL d   1     -38.246  12.300  17.847  0.00  0.00     0.000 A 
ATOM     24  C   UNL d   1     -37.991  12.443  17.067  0.00  0.00     0.000 A 
ATOM     25  C   UNL d   1     -38.192  13.157  16.693  0.00  0.00     0.000 A 
ATOM     26  C   UNL d   1     -38.640  13.721  17.090  0.00  0.00     0.002 A 
ENDBRANCH  20  21
ENDBRANCH  18  20
ENDBRANCH   5  17
BRANCH   3  27
ATOM     27  C   UNL d   1     -41.465  15.030  20.788  0.00  0.00     0.107 C 
BRANCH  27  28
ATOM     28  C   UNL d   1     -41.716  14.253  20.884  0.00  0.00     0.118 A 
ATOM     29  O   UNL d   1     -42.390  13.979  20.485  0.00  0.00    -0.304 OA
ATOM     30  C   UNL d   1     -42.505  13.180  20.689  0.00  0.00     0.123 A 
ATOM     31  C   UNL d   1     -41.907  12.972  21.206  0.00  0.00     0.029 A 
ATOM     32  C   UNL d   1     -41.418  13.624  21.332  0.00  0.00     0.028 A 
ENDBRANCH  27  28
ENDBRANCH   3  27
TORSDOF 5
ENDMDL
MODEL 2
REMARK VINA RESULT:      -4.0      6.799      9.032
REMARK  5 active torsions:
REMARK  status: ('A' for Active; 'I' for Inactive)
REMARK    1  A    between atoms: C_12  and  N_3 
REMARK    2  A    between atoms: C_11  and  C_5 
REMARK       I    between atoms: N_16  and  C_11 
REMARK    3  A    between atoms: C_15  and  C_12 
REMARK    4  A    between atoms: C_26  and  N_16 
REMARK    5  A    between atoms: C_27  and  C_26 
ROOT
ATOM      1  C   UNL d   1     -48.022  13.045  23.015  0.00  0.00     0.155 A 
ATOM      2  C   UNL d   1     -47.826  12.329  22.654  0.00  0.00     0.091 A 
ATOM      3  N   UNL d   1     -47.490  13.665  23.032  0.00  0.00    -0.272 N 
ATOM      4  N   UNL d   1     -48.770  13.132  23.364  0.00  0.00    -0.210 NA
ATOM      5  C   UNL d   1     -46.540  12.865  22.319  0.00  0.00     0.094 A 
ATOM      6  C   UNL d   1     -46.743  13.578  22.682  0.00  0.00     0.175 A 
ATOM      7  C   UNL d   1     -48.364  11.707  22.639  0.00  0.00     0.269 A 
ATOM      8  N   UNL d   1     -49.105  11.796  22.986  0.00  0.00    -0.258 N 
ATOM      9  C   UNL d   1     -49.308  12.509  23.349  0.00  0.00     0.152 A 
ATOM     10  C   UNL d   1     -47.085  12.240  22.306  0.00  0.00     0.016 A 
ATOM     11  N   UNL d   1     -46.203  14.210  22.700  0.00  0.00    -0.128 N 
ATOM     12  C   UNL d   1     -49.643  11.174  22.971  0.00  0.00     0.084 A 
ATOM     13  O   UNL d   1     -48.161  10.994  22.276  0.00  0.00    -0.266 OA
ATOM     14  C   UNL d   1     -50.049  12.599  23.697  0.00  0.00     0.038 A 
ATOM     15  C   UNL d   1     -50.388  11.262  23.319  0.00  0.00     0.019 A 
ATOM     16  C   UNL d   1     -50.591  11.974  23.682  0.00  0.00     0.005 A 
ENDROOT
BRANCH   5  17
ATOM     17  C   UNL d   1     -45.795  12.778  21.971  0.00  0.00     0.282 C 
ATOM     18  N   UNL d   1     -45.241  12.267  22.303  0.00  0.00    -0.206 NA
ATOM     19  O   UNL d   1     -45.599  13.199  21.289  0.00  0.00    -0.265 OA
BRANCH  18  20
ATOM     20  C   UNL d   1     -45.429  11.841  22.985  0.00  0.00     0.102 C 
BRANCH  20  21
ATOM     21  C   UNL d   1     -44.964  11.200  23.222  0.00  0.00     0.019 A 
ATOM     22  C   UNL d   1     -44.140  11.279  23.214  0.00  0.00     0.002 A 
ATOM     23  C   UNL d   1     -43.663  10.641  23.451  0.00  0.00     0.000 A 
ATOM     24  C   UNL d   1     -44.017   9.928  23.694  0.00  0.00     0.000 A 
ATOM     25  C   UNL d   1     -44.845   9.859  23.698  0.00  0.00     0.000 A 
ATOM     26  C   UNL d   1     -45.315  10.493  23.463  0.00  0.00     0.002 A 
ENDBRANCH  20  21
ENDBRANCH  18  20
ENDBRANCH   5  17
BRANCH   3  27
ATOM     27  C   UNL d   1     -47.693  14.378  23.395  0.00  0.00     0.107 C 
BRANCH  27  28
ATOM     28  C   UNL d   1     -48.118  14.946  22.978  0.00  0.00     0.118 A 
ATOM     29  O   UNL d   1     -48.808  15.274  23.304  0.00  0.00    -0.304 OA
ATOM     30  C   UNL d   1     -49.114  15.826  22.762  0.00  0.00     0.123 A 
ATOM     31  C   UNL d   1     -48.616  15.833  22.115  0.00  0.00     0.029 A 
ATOM     32  C   UNL d   1     -48.002  15.297  22.238  0.00  0.00     0.028 A 
ENDBRANCH  27  28
ENDBRANCH   3  27
TORSDOF 5
ENDMDL
MODEL 3
REMARK VINA RESULT:      -3.8      6.321      8.918
REMARK  5 active torsions:
REMARK  status: ('A' for Active; 'I' for Inactive)
REMARK    1  A    between atoms: C_12  and  N_3 
REMARK    2  A    between atoms: C_11  and  C_5 
REMARK       I    between atoms: N_16  and  C_11 
REMARK    3  A    between atoms: C_15  and  C_12 
REMARK    4  A    between atoms: C_26  and  N_16 
REMARK    5  A    between atoms: C_27  and  C_26 
ROOT
ATOM      1  C   UNL d   1     -48.431  13.496  22.748  0.00  0.00     0.155 A 
ATOM      2  C   UNL d   1     -47.795  13.090  23.083  0.00  0.00     0.091 A 
ATOM      3  N   UNL d   1     -48.340  14.258  22.467  0.00  0.00    -0.272 N 
ATOM      4  N   UNL d   1     -49.170  13.123  22.698  0.00  0.00    -0.210 NA
ATOM      5  C   UNL d   1     -46.961  14.231  22.850  0.00  0.00     0.094 A 
ATOM      6  C   UNL d   1     -47.601  14.631  22.516  0.00  0.00     0.175 A 
ATOM      7  C   UNL d   1     -47.890  12.323  23.365  0.00  0.00     0.269 A 
ATOM      8  N   UNL d   1     -48.625  11.955  23.314  0.00  0.00    -0.258 N 
ATOM      9  C   UNL d   1     -49.265  12.355  22.981  0.00  0.00     0.152 A 
ATOM     10  C   UNL d   1     -47.060  13.458  23.133  0.00  0.00     0.016 A 
ATOM     11  N   UNL d   1     -47.510  15.406  22.230  0.00  0.00    -0.128 N 
ATOM     12  C   UNL d   1     -48.720  11.188  23.596  0.00  0.00     0.084 A 
ATOM     13  O   UNL d   1     -47.250  11.923  23.698  0.00  0.00    -0.266 OA
ATOM     14  C   UNL d   1     -50.000  11.988  22.930  0.00  0.00     0.038 A 
ATOM     15  C   UNL d   1     -49.457  10.816  23.546  0.00  0.00     0.019 A 
ATOM     16  C   UNL d   1     -50.097  11.216  23.213  0.00  0.00     0.005 A 
ENDROOT
BRANCH   5  17
ATOM     17  C   UNL d   1     -46.223  14.602  22.900  0.00  0.00     0.282 C 
ATOM     18  N   UNL d   1     -45.553  14.233  22.595  0.00  0.00    -0.206 NA
ATOM     19  O   UNL d   1     -46.151  15.344  23.253  0.00  0.00    -0.265 OA
BRANCH  18  20
ATOM     20  C   UNL d   1     -45.617  13.491  22.240  0.00  0.00     0.102 C 
BRANCH  20  21
ATOM     21  C   UNL d   1     -44.940  13.078  22.003  0.00  0.00     0.019 A 
ATOM     22  C   UNL d   1     -44.684  13.146  21.219  0.00  0.00     0.002 A 
ATOM     23  C   UNL d   1     -44.006  12.736  20.971  0.00  0.00     0.000 A 
ATOM     24  C   UNL d   1     -43.589  12.260  21.512  0.00  0.00     0.000 A 
ATOM     25  C   UNL d   1     -43.854  12.198  22.297  0.00  0.00     0.000 A 
ATOM     26  C   UNL d   1     -44.527  12.606  22.540  0.00  0.00     0.002 A 
ENDBRANCH  20  21
ENDBRANCH  18  20
ENDBRANCH   5  17
BRANCH   3  27
ATOM     27  C   UNL d   1     -48.980  14.658  22.133  0.00  0.00     0.107 C 
BRANCH  27  28
ATOM     28  C   UNL d   1     -49.472  15.115  22.608  0.00  0.00     0.118 A 
ATOM     29  O   UNL d   1     -50.287  15.153  22.451  0.00  0.00    -0.304 OA
ATOM     30  C   UNL d   1     -50.637  15.653  23.016  0.00  0.00     0.123 A 
ATOM     31  C   UNL d   1     -50.042  15.915  23.511  0.00  0.00     0.029 A 
ATOM     32  C   UNL d   1     -49.324  15.591  23.269  0.00  0.00     0.028 A 
ENDBRANCH  27  28
ENDBRANCH   3  27
TORSDOF 5
ENDMDL
MODEL 4
REMARK VINA RESULT:      -3.5      5.804      8.276
REMARK  5 active torsions:
REMARK  status: ('A' for Active; 'I' for Inactive)
REMARK    1  A    between atoms: C_12  and  N_3 
REMARK    2  A    between atoms: C_11  and  C_5 
REMARK       I    between atoms: N_16  and  C_11 
REMARK    3  A    between atoms: C_15  and  C_12 
REMARK    4  A    between atoms: C_26  and  N_16 
REMARK    5  A    between atoms: C_27  and  C_26 
ROOT
ATOM      1  C   UNL d   1     -47.768  13.013  22.502  0.00  0.00     0.155 A 
ATOM      2  C   UNL d   1     -47.094  13.403  22.774  0.00  0.00     0.091 A 
ATOM      3  N   UNL d   1     -47.782  12.199  22.429  0.00  0.00    -0.272 N 
ATOM      4  N   UNL d   1     -48.440  13.456  22.300  0.00  0.00    -0.210 NA
ATOM      5  C   UNL d   1     -46.432  12.139  22.905  0.00  0.00     0.094 A 
ATOM      6  C   UNL d   1     -47.110  11.756  22.631  0.00  0.00     0.175 A 
ATOM      7  C   UNL d   1     -47.084  14.222  22.846  0.00  0.00     0.269 A 
ATOM      8  N   UNL d   1     -47.752  14.660  22.645  0.00  0.00    -0.258 N 
ATOM      9  C   UNL d   1     -48.430  14.277  22.372  0.00  0.00     0.152 A 
ATOM     10  C   UNL d   1     -46.426  12.965  22.976  0.00  0.00     0.016 A 
ATOM     11  N   UNL d   1     -47.124  10.928  22.557  0.00  0.00    -0.128 N 
ATOM     12  C   UNL d   1     -47.743  15.480  22.717  0.00  0.00     0.084 A 
ATOM     13  O   UNL d   1     -46.407  14.605  23.119  0.00  0.00    -0.266 OA
ATOM     14  C   UNL d   1     -49.098  14.714  22.170  0.00  0.00     0.038 A 
ATOM     15  C   UNL d   1     -48.412  15.921  22.515  0.00  0.00     0.019 A 
ATOM     16  C   UNL d   1     -49.090  15.538  22.242  0.00  0.00     0.005 A 
ENDROOT
BRANCH   5  17
ATOM     17  C   UNL d   1     -45.762  11.697  23.106  0.00  0.00     0.282 C 
ATOM     18  N   UNL d   1     -45.047  11.833  22.722  0.00  0.00    -0.206 NA
ATOM     19  O   UNL d   1     -45.803  11.118  23.693  0.00  0.00    -0.265 OA
BRANCH  18  20
ATOM     20  C   UNL d   1     -44.997  12.410  22.134  0.00  0.00     0.102 C 
BRANCH  20  21
ATOM     21  C   UNL d   1     -44.266  12.619  21.810  0.00  0.00     0.019 A 
ATOM     22  C   UNL d   1     -44.217  13.296  21.336  0.00  0.00     0.002 A 
ATOM     23  C   UNL d   1     -43.487  13.515  21.005  0.00  0.00     0.000 A 
ATOM     24  C   UNL d   1     -42.810  13.052  21.153  0.00  0.00     0.000 A 
ATOM     25  C   UNL d   1     -42.870  12.375  21.630  0.00  0.00     0.000 A 
ATOM     26  C   UNL d   1     -43.595  12.161  21.956  0.00  0.00     0.002 A 
ENDBRANCH  20  21
ENDBRANCH  18  20
ENDBRANCH   5  17
BRANCH   3  27
ATOM     27  C   UNL d   1     -48.459  11.816  22.156  0.00  0.00     0.107 C 
BRANCH  27  28
ATOM     28  C   UNL d   1     -49.063  11.624  22.680  0.00  0.00     0.118 A 
ATOM     29  O   UNL d   1     -49.857  11.710  22.452  0.00  0.00    -0.304 OA
ATOM     30  C   UNL d   1     -50.337  11.475  23.090  0.00  0.00     0.123 A 
ATOM     31  C   UNL d   1     -49.840  11.248  23.698  0.00  0.00     0.029 A 
ATOM     32  C   UNL d   1     -49.056  11.336  23.456  0.00  0.00     0.028 A 
ENDBRANCH  27  28
ENDBRANCH   3  27
TORSDOF 5
ENDMDL
MODEL 5
REMARK VINA RESULT:      -3.1      1.468      4.492
REMARK  5 active torsions:
REMARK  status: ('A' for Active; 'I' for Inactive)
REMARK    1  A    between atoms: C_12  and  N_3 
REMARK    2  A    between atoms: C_11  and  C_5 
REMARK       I    between atoms: N_16  and  C_11 
REMARK    3  A    between atoms: C_15  and  C_12 
REMARK    4  A    between atoms: C_26  and  N_16 
REMARK    5  A    between atoms: C_27  and  C_26 
ROOT
ATOM      1  C   UNL d   1     -39.055  14.250  18.236  0.00  0.00     0.155 A 
ATOM      2  C   UNL d   1     -38.932  13.686  18.826  0.00  0.00     0.091 A 
ATOM      3  N   UNL d   1     -39.360  14.987  18.417  0.00  0.00    -0.272 N 
ATOM      4  N   UNL d   1     -38.864  14.064  17.450  0.00  0.00    -0.210 NA
ATOM      5  C   UNL d   1     -39.431  14.614  19.798  0.00  0.00     0.094 A 
ATOM      6  C   UNL d   1     -39.551  15.173  19.203  0.00  0.00     0.175 A 
ATOM      7  C   UNL d   1     -38.625  12.946  18.640  0.00  0.00     0.269 A 
ATOM      8  N   UNL d   1     -38.437  12.764  17.859  0.00  0.00    -0.258 N 
ATOM      9  C   UNL d   1     -38.556  13.323  17.264  0.00  0.00     0.152 A 
ATOM     10  C   UNL d   1     -39.121  13.868  19.606  0.00  0.00     0.016 A 
ATOM     11  N   UNL d   1     -39.861  15.922  19.386  0.00  0.00    -0.128 N 
ATOM     12  C   UNL d   1     -38.129  12.024  17.673  0.00  0.00     0.084 A 
ATOM     13  O   UNL d   1     -38.505  12.387  19.234  0.00  0.00    -0.266 OA
ATOM     14  C   UNL d   1     -38.369  13.142  16.483  0.00  0.00     0.038 A 
ATOM     15  C   UNL d   1     -37.940  11.839  16.890  0.00  0.00     0.019 A 
ATOM     16  C   UNL d   1     -38.059  12.398  16.295  0.00  0.00     0.005 A 
ENDROOT
BRANCH   5  17
ATOM     17  C   UNL d   1     -39.621  14.798  20.581  0.00  0.00     0.282 C 
ATOM     18  N   UNL d   1     -40.294  14.478  20.930  0.00  0.00    -0.206 NA
ATOM     19  O   UNL d   1     -39.139  15.304  21.020  0.00  0.00    -0.265 OA
BRANCH  18  20
ATOM     20  C   UNL d   1     -40.781  13.971  20.497  0.00  0.00     0.102 C 
BRANCH  20  21
ATOM     21  C   UNL d   1     -41.460  13.645  20.840  0.00  0.00     0.019 A 
ATOM     22  C   UNL d   1     -42.177  13.693  20.429  0.00  0.00     0.002 A 
ATOM     23  C   UNL d   1     -42.865  13.369  20.765  0.00  0.00     0.000 A 
ATOM     24  C   UNL d   1     -42.827  12.999  21.510  0.00  0.00     0.000 A 
ATOM     25  C   UNL d   1     -42.103  12.957  21.913  0.00  0.00     0.000 A 
ATOM     26  C   UNL d   1     -41.423  13.279  21.579  0.00  0.00     0.002 A 
ENDBRANCH  20  21
ENDBRANCH  18  20
ENDBRANCH   5  17
BRANCH   3  27
ATOM     27  C   UNL d   1     -39.480  15.546  17.822  0.00  0.00     0.107 C 
BRANCH  27  28
ATOM     28  C   UNL d   1     -40.231  15.656  17.505  0.00  0.00     0.118 A 
ATOM     29  O   UNL d   1     -40.341  15.660  16.682  0.00  0.00    -0.304 OA
ATOM     30  C   UNL d   1     -41.149  15.781  16.529  0.00  0.00     0.123 A 
ATOM     31  C   UNL d   1     -41.526  15.850  17.251  0.00  0.00     0.029 A 
ATOM     32  C   UNL d   1     -40.971  15.774  17.856  0.00  0.00     0.028 A 
ENDBRANCH  27  28
ENDBRANCH   3  27
TORSDOF 5
ENDMDL
MODEL 6
REMARK VINA RESULT:      -2.2      1.267      3.018
REMARK  5 active torsions:
REMARK  status: ('A' for Active; 'I' for Inactive)
REMARK    1  A    between atoms: C_12  and  N_3 
REMARK    2  A    between atoms: C_11  and  C_5 
REMARK       I    between atoms: N_16  and  C_11 
REMARK    3  A    between atoms: C_15  and  C_12 
REMARK    4  A    between atoms: C_26  and  N_16 
REMARK    5  A    between atoms: C_27  and  C_26 
ROOT
ATOM      1  C   UNL d   1     -40.301  14.416  20.658  0.00  0.00     0.155 A 
ATOM      2  C   UNL d   1     -40.517  14.304  19.870  0.00  0.00     0.091 A 
ATOM      3  N   UNL d   1     -39.579  14.746  20.852  0.00  0.00    -0.272 N 
ATOM      4  N   UNL d   1     -40.826  14.189  21.260  0.00  0.00    -0.210 NA
ATOM      5  C   UNL d   1     -39.263  14.863  19.460  0.00  0.00     0.094 A 
ATOM      6  C   UNL d   1     -39.054  14.972  20.251  0.00  0.00     0.175 A 
ATOM      7  C   UNL d   1     -41.245  13.971  19.679  0.00  0.00     0.269 A 
ATOM      8  N   UNL d   1     -41.764  13.747  20.277  0.00  0.00    -0.258 N 
ATOM      9  C   UNL d   1     -41.555  13.856  21.068  0.00  0.00     0.152 A 
ATOM     10  C   UNL d   1     -39.998  14.528  19.271  0.00  0.00     0.016 A 
ATOM     11  N   UNL d   1     -38.319  15.308  20.449  0.00  0.00    -0.128 N 
ATOM     12  C   UNL d   1     -42.492  13.415  20.086  0.00  0.00     0.084 A 
ATOM     13  O   UNL d   1     -41.455  13.862  18.888  0.00  0.00    -0.266 OA
ATOM     14  C   UNL d   1     -42.073  13.633  21.667  0.00  0.00     0.038 A 
ATOM     15  C   UNL d   1     -43.015  13.189  20.686  0.00  0.00     0.019 A 
ATOM     16  C   UNL d   1     -42.805  13.298  21.476  0.00  0.00     0.005 A 
ENDROOT
BRANCH   5  17
ATOM     17  C   UNL d   1     -38.741  15.089  18.861  0.00  0.00     0.282 C 
ATOM     18  N   UNL d   1     -38.396  14.519  18.377  0.00  0.00    -0.206 NA
ATOM     19  O   UNL d   1     -38.559  15.885  18.741  0.00  0.00    -0.265 OA
BRANCH  18  20
ATOM     20  C   UNL d   1     -38.573  13.721  18.490  0.00  0.00     0.102 C 
BRANCH  20  21
ATOM     21  C   UNL d   1     -38.362  13.158  17.921  0.00  0.00     0.019 A 
ATOM     22  C   UNL d   1     -38.276  13.399  17.133  0.00  0.00     0.002 A 
ATOM     23  C   UNL d   1     -38.065  12.843  16.554  0.00  0.00     0.000 A 
ATOM     24  C   UNL d   1     -37.940  12.048  16.769  0.00  0.00     0.000 A 
ATOM     25  C   UNL d   1     -38.028  11.817  17.562  0.00  0.00     0.000 A 
ATOM     26  C   UNL d   1     -38.238  12.371  18.134  0.00  0.00     0.002 A 
ENDBRANCH  20  21
ENDBRANCH  18  20
ENDBRANCH   5  17
BRANCH   3  27
ATOM     27  C   UNL d   1     -39.369  14.855  21.643  0.00  0.00     0.107 C 
BRANCH  27  28
ATOM     28  C   UNL d   1     -38.824  14.351  21.998  0.00  0.00     0.118 A 
ATOM     29  O   UNL d   1     -38.539  14.515  22.760  0.00  0.00    -0.304 OA
ATOM     30  C   UNL d   1     -38.001  13.916  22.970  0.00  0.00     0.123 A 
ATOM     31  C   UNL d   1     -37.960  13.394  22.342  0.00  0.00     0.029 A 
ATOM     32  C   UNL d   1     -38.462  13.653  21.741  0.00  0.00     0.028 A 
ENDBRANCH  27  28
ENDBRANCH   3  27
TORSDOF 5
ENDMDL
