MODEL 1
REMARK VINA RESULT:      -5.8      0.000      0.000
REMARK  5 active torsions:
REMARK  status: ('A' for Active; 'I' for Inactive)
REMARK    1  A    between atoms: C_3  and  C_1 
REMARK    2  A    between atoms: N_4  and  C_3 
REMARK    3  A    between atoms: C_6  and  C_3 
REMARK    4  A    between atoms: C_21  and  N_9 
REMARK    5  A    between atoms: C_25  and  C_21 
ROOT
ATOM      1  C   UNL d   1     -39.119  14.346  18.403  0.00  0.00     0.073 C 
ENDROOT
BRANCH   1   2
ATOM      2  C   UNL d   1     -38.934  14.617  19.171  0.00  0.00     0.057 A 
ATOM      3  C   UNL d   1     -39.341  14.349  19.837  0.00  0.00     0.214 A 
ATOM      4  C   UNL d   1     -39.153  14.619  20.587  0.00  0.00     0.120 A 
ATOM      5  O   UNL d   1     -39.943  13.802  19.745  0.00  0.00    -0.285 OA
ATOM      6  N   UNL d   1     -39.556  14.351  21.232  0.00  0.00    -0.241 NA
ATOM      7  C   UNL d   1     -38.545  15.171  20.680  0.00  0.00     0.021 A 
ATOM      8  C   UNL d   1     -39.368  14.622  21.984  0.00  0.00     0.099 A 
ATOM      9  C   UNL d   1     -38.761  15.174  22.077  0.00  0.00     0.021 A 
ATOM     10  C   UNL d   1     -38.347  15.449  21.416  0.00  0.00     0.003 A 
ATOM     11  C   UNL d   1     -38.132  15.447  20.022  0.00  0.00     0.002 A 
ATOM     12  C   UNL d   1     -38.327  15.169  19.263  0.00  0.00     0.005 A 
ENDBRANCH   1   2
BRANCH   1  13
ATOM     13  N   UNL d   1     -39.698  14.737  17.975  0.00  0.00    -0.301 N 
ATOM     14  C   UNL d   1     -39.510  15.424  17.549  0.00  0.00     0.100 A 
ATOM     15  C   UNL d   1     -40.078  15.824  17.117  0.00  0.00     0.100 A 
ATOM     16  N   UNL d   1     -40.869  15.529  17.108  0.00  0.00    -0.297 N 
ATOM     17  C   UNL d   1     -41.067  14.853  17.523  0.00  0.00     0.100 A 
ATOM     18  C   UNL d   1     -40.473  14.452  17.963  0.00  0.00     0.100 A 
BRANCH  16  19
ATOM     19  C   UNL d   1     -41.449  15.921  16.678  0.00  0.00     0.126 C 
BRANCH  19  20
ATOM     20  C   UNL d   1     -41.943  15.513  16.180  0.00  0.00     0.253 C 
ATOM     21  O   UNL d   1     -42.604  15.879  15.848  0.00  0.00    -0.281 OA
ENDBRANCH  19  20
ENDBRANCH  16  19
ENDBRANCH   1  13
BRANCH   1  22
ATOM     22  C   UNL d   1     -38.727  13.704  18.091  0.00  0.00     0.046 A 
ATOM     23  S   UNL d   1     -38.242  13.781  17.436  0.00  0.00    -0.085 SA
ATOM     24  C   UNL d   1     -37.942  13.057  17.269  0.00  0.00     0.035 A 
ATOM     25  C   UNL d   1     -38.230  12.514  17.813  0.00  0.00     0.007 A 
ATOM     26  C   UNL d   1     -38.720  12.910  18.329  0.00  0.00     0.009 A 
ENDBRANCH   1  22
TORSDOF 5
ENDMDL
MODEL 2
REMARK VINA RESULT:      -5.7      9.217     10.341
REMARK  5 active torsions:
REMARK  status: ('A' for Active; 'I' for Inactive)
REMARK    1  A    between atoms: C_3  and  C_1 
REMARK    2  A    between atoms: N_4  and  C_3 
REMARK    3  A    between atoms: C_6  and  C_3 
REMARK    4  A    between atoms: C_21  and  N_9 
REMARK    5  A    between atoms: C_25  and  C_21 
ROOT
ATOM      1  C   UNL d   1     -48.348  12.949  22.866  0.00  0.00     0.073 C 
ENDROOT
BRANCH   1   2
ATOM      2  C   UNL d   1     -48.907  13.567  22.920  0.00  0.00     0.057 A 
ATOM      3  C   UNL d   1     -49.402  13.763  22.289  0.00  0.00     0.214 A 
ATOM      4  C   UNL d   1     -49.948  14.371  22.350  0.00  0.00     0.120 A 
ATOM      5  O   UNL d   1     -49.345  13.341  21.589  0.00  0.00    -0.285 OA
ATOM      6  N   UNL d   1     -50.426  14.555  21.728  0.00  0.00    -0.241 NA
ATOM      7  C   UNL d   1     -50.006  14.796  23.056  0.00  0.00     0.021 A 
ATOM      8  C   UNL d   1     -50.974  15.164  21.788  0.00  0.00     0.099 A 
ATOM      9  C   UNL d   1     -51.032  15.589  22.493  0.00  0.00     0.021 A 
ATOM     10  C   UNL d   1     -50.541  15.401  23.132  0.00  0.00     0.003 A 
ATOM     11  C   UNL d   1     -49.517  14.609  23.693  0.00  0.00     0.002 A 
ATOM     12  C   UNL d   1     -48.965  13.992  23.625  0.00  0.00     0.005 A 
ENDBRANCH   1   2
BRANCH   1  13
ATOM     13  N   UNL d   1     -47.567  13.135  22.705  0.00  0.00    -0.301 N 
ATOM     14  C   UNL d   1     -47.111  13.544  23.264  0.00  0.00     0.100 A 
ATOM     15  C   UNL d   1     -46.330  13.737  23.116  0.00  0.00     0.100 A 
ATOM     16  N   UNL d   1     -45.986  13.513  22.378  0.00  0.00    -0.297 N 
ATOM     17  C   UNL d   1     -46.425  13.110  21.818  0.00  0.00     0.100 A 
ATOM     18  C   UNL d   1     -47.226  12.919  21.984  0.00  0.00     0.100 A 
BRANCH  16  19
ATOM     19  C   UNL d   1     -45.202  13.700  22.216  0.00  0.00     0.126 C 
BRANCH  19  20
ATOM     20  C   UNL d   1     -44.737  13.195  21.784  0.00  0.00     0.253 C 
ATOM     21  O   UNL d   1     -43.954  13.390  21.608  0.00  0.00    -0.281 OA
ENDBRANCH  19  20
ENDBRANCH  16  19
ENDBRANCH   1  13
BRANCH   1  22
ATOM     22  C   UNL d   1     -48.583  12.176  22.974  0.00  0.00     0.046 A 
ATOM     23  S   UNL d   1     -48.492  11.803  23.697  0.00  0.00    -0.085 SA
ATOM     24  C   UNL d   1     -48.773  11.056  23.623  0.00  0.00     0.035 A 
ATOM     25  C   UNL d   1     -49.044  10.946  22.855  0.00  0.00     0.007 A 
ATOM     26  C   UNL d   1     -48.929  11.640  22.446  0.00  0.00     0.009 A 
ENDBRANCH   1  22
TORSDOF 5
ENDMDL
MODEL 3
REMARK VINA RESULT:      -4.8      1.032      3.805
REMARK  5 active torsions:
REMARK  status: ('A' for Active; 'I' for Inactive)
REMARK    1  A    between atoms: C_3  and  C_1 
REMARK    2  A    between atoms: N_4  and  C_3 
REMARK    3  A    between atoms: C_6  and  C_3 
REMARK    4  A    between atoms: C_21  and  N_9 
REMARK    5  A    between atoms: C_25  and  C_21 
ROOT
ATOM      1  C   UNL d   1     -38.959  13.957  18.163  0.00  0.00     0.073 C 
ENDROOT
BRANCH   1   2
ATOM      2  C   UNL d   1     -39.396  14.449  17.649  0.00  0.00     0.057 A 
ATOM      3  C   UNL d   1     -40.221  14.435  17.628  0.00  0.00     0.214 A 
ATOM      4  C   UNL d   1     -40.642  14.920  17.120  0.00  0.00     0.120 A 
ATOM      5  O   UNL d   1     -40.625  13.925  18.126  0.00  0.00    -0.285 OA
ATOM      6  N   UNL d   1     -41.447  14.899  17.108  0.00  0.00    -0.241 NA
ATOM      7  C   UNL d   1     -40.234  15.434  16.619  0.00  0.00     0.021 A 
ATOM      8  C   UNL d   1     -41.871  15.385  16.599  0.00  0.00     0.099 A 
ATOM      9  C   UNL d   1     -41.464  15.899  16.097  0.00  0.00     0.021 A 
ATOM     10  C   UNL d   1     -40.637  15.921  16.110  0.00  0.00     0.003 A 
ATOM     11  C   UNL d   1     -39.410  15.457  16.630  0.00  0.00     0.002 A 
ATOM     12  C   UNL d   1     -38.989  14.963  17.147  0.00  0.00     0.005 A 
ENDBRANCH   1   2
BRANCH   1  13
ATOM     13  N   UNL d   1     -38.857  14.192  18.942  0.00  0.00    -0.301 N 
ATOM     14  C   UNL d   1     -38.273  14.747  19.138  0.00  0.00     0.100 A 
ATOM     15  C   UNL d   1     -38.160  14.990  19.911  0.00  0.00     0.100 A 
ATOM     16  N   UNL d   1     -38.650  14.665  20.517  0.00  0.00    -0.297 N 
ATOM     17  C   UNL d   1     -39.228  14.117  20.337  0.00  0.00     0.100 A 
ATOM     18  C   UNL d   1     -39.333  13.877  19.539  0.00  0.00     0.100 A 
BRANCH  16  19
ATOM     19  C   UNL d   1     -38.547  14.900  21.298  0.00  0.00     0.126 C 
BRANCH  19  20
ATOM     20  C   UNL d   1     -38.940  15.547  21.591  0.00  0.00     0.253 C 
ATOM     21  O   UNL d   1     -38.892  15.742  22.392  0.00  0.00    -0.281 OA
ENDBRANCH  19  20
ENDBRANCH  16  19
ENDBRANCH   1  13
BRANCH   1  22
ATOM     22  C   UNL d   1     -38.643  13.258  17.889  0.00  0.00     0.046 A 
ATOM     23  S   UNL d   1     -38.163  13.242  17.225  0.00  0.00    -0.085 SA
ATOM     24  C   UNL d   1     -37.945  12.481  17.102  0.00  0.00     0.035 A 
ATOM     25  C   UNL d   1     -38.281  12.007  17.682  0.00  0.00     0.007 A 
ATOM     26  C   UNL d   1     -38.717  12.485  18.176  0.00  0.00     0.009 A 
ENDBRANCH   1  22
TORSDOF 5
ENDMDL
MODEL 4
REMARK VINA RESULT:      -4.6      2.071      3.141
REMARK  5 active torsions:
REMARK  status: ('A' for Active; 'I' for Inactive)
REMARK    1  A    between atoms: C_3  and  C_1 
REMARK    2  A    between atoms: N_4  and  C_3 
REMARK    3  A    between atoms: C_6  and  C_3 
REMARK    4  A    between atoms: C_21  and  N_9 
REMARK    5  A    between atoms: C_25  and  C_21 
ROOT
ATOM      1  C   UNL d   1     -39.750  14.843  20.429  0.00  0.00     0.073 C 
ENDROOT
BRANCH   1   2
ATOM      2  C   UNL d   1     -39.375  14.573  21.124  0.00  0.00     0.057 A 
ATOM      3  C   UNL d   1     -39.035  15.094  21.666  0.00  0.00     0.214 A 
ATOM      4  C   UNL d   1     -38.668  14.821  22.346  0.00  0.00     0.120 A 
ATOM      5  O   UNL d   1     -39.066  15.899  21.521  0.00  0.00    -0.285 OA
ATOM      6  N   UNL d   1     -38.339  15.338  22.869  0.00  0.00    -0.241 NA
ATOM      7  C   UNL d   1     -38.637  14.008  22.492  0.00  0.00     0.021 A 
ATOM      8  C   UNL d   1     -37.971  15.065  23.551  0.00  0.00     0.099 A 
ATOM      9  C   UNL d   1     -37.940  14.253  23.698  0.00  0.00     0.021 A 
ATOM     10  C   UNL d   1     -38.277  13.722  23.161  0.00  0.00     0.003 A 
ATOM     11  C   UNL d   1     -38.973  13.478  21.958  0.00  0.00     0.002 A 
ATOM     12  C   UNL d   1     -39.343  13.761  21.270  0.00  0.00     0.005 A 
ENDBRANCH   1   2
BRANCH   1  13
ATOM     13  N   UNL d   1     -39.348  14.793  19.717  0.00  0.00    -0.301 N 
ATOM     14  C   UNL d   1     -39.356  14.088  19.281  0.00  0.00     0.100 A 
ATOM     15  C   UNL d   1     -38.959  14.024  18.569  0.00  0.00     0.100 A 
ATOM     16  N   UNL d   1     -38.534  14.693  18.276  0.00  0.00    -0.297 N 
ATOM     17  C   UNL d   1     -38.519  15.394  18.696  0.00  0.00     0.100 A 
ATOM     18  C   UNL d   1     -38.931  15.445  19.426  0.00  0.00     0.100 A 
BRANCH  16  19
ATOM     19  C   UNL d   1     -38.131  14.643  17.562  0.00  0.00     0.126 C 
BRANCH  19  20
ATOM     20  C   UNL d   1     -38.464  14.925  16.878  0.00  0.00     0.253 C 
ATOM     21  O   UNL d   1     -37.989  15.203  16.262  0.00  0.00    -0.281 OA
ENDBRANCH  19  20
ENDBRANCH  16  19
ENDBRANCH   1  13
BRANCH   1  22
ATOM     22  C   UNL d   1     -40.505  15.150  20.466  0.00  0.00     0.046 A 
ATOM     23  S   UNL d   1     -41.146  14.674  20.648  0.00  0.00    -0.085 SA
ATOM     24  C   UNL d   1     -41.801  15.136  20.640  0.00  0.00     0.035 A 
ATOM     25  C   UNL d   1     -41.584  15.906  20.454  0.00  0.00     0.007 A 
ATOM     26  C   UNL d   1     -40.778  15.922  20.344  0.00  0.00     0.009 A 
ENDBRANCH   1  22
TORSDOF 5
ENDMDL
MODEL 5
REMARK VINA RESULT:      -4.4      1.915      3.938
REMARK  5 active torsions:
REMARK  status: ('A' for Active; 'I' for Inactive)
REMARK    1  A    between atoms: C_3  and  C_1 
REMARK    2  A    between atoms: N_4  and  C_3 
REMARK    3  A    between atoms: C_6  and  C_3 
REMARK    4  A    between atoms: C_21  and  N_9 
REMARK    5  A    between atoms: C_25  and  C_21 
ROOT
ATOM      1  C   UNL d   1     -39.647  14.760  20.112  0.00  0.00     0.073 C 
ENDROOT
BRANCH   1   2
ATOM      2  C   UNL d   1     -39.498  14.673  19.295  0.00  0.00     0.057 A 
ATOM      3  C   UNL d   1     -39.725  15.246  18.747  0.00  0.00     0.214 A 
ATOM      4  C   UNL d   1     -39.575  15.153  17.947  0.00  0.00     0.120 A 
ATOM      5  O   UNL d   1     -40.107  15.922  19.009  0.00  0.00    -0.285 OA
ATOM      6  N   UNL d   1     -39.801  15.719  17.419  0.00  0.00    -0.241 NA
ATOM      7  C   UNL d   1     -39.190  14.472  17.683  0.00  0.00     0.021 A 
ATOM      8  C   UNL d   1     -39.651  15.626  16.617  0.00  0.00     0.099 A 
ATOM      9  C   UNL d   1     -39.266  14.945  16.352  0.00  0.00     0.021 A 
ATOM     10  C   UNL d   1     -39.034  14.364  16.893  0.00  0.00     0.003 A 
ATOM     11  C   UNL d   1     -38.958  13.892  18.221  0.00  0.00     0.002 A 
ATOM     12  C   UNL d   1     -39.113  13.992  19.031  0.00  0.00     0.005 A 
ENDBRANCH   1   2
BRANCH   1  13
ATOM     13  N   UNL d   1     -40.359  14.493  20.415  0.00  0.00    -0.301 N 
ATOM     14  C   UNL d   1     -40.475  13.685  20.559  0.00  0.00     0.100 A 
ATOM     15  C   UNL d   1     -41.182  13.404  20.862  0.00  0.00     0.100 A 
ATOM     16  N   UNL d   1     -41.802  13.952  21.028  0.00  0.00    -0.297 N 
ATOM     17  C   UNL d   1     -41.700  14.752  20.890  0.00  0.00     0.100 A 
ATOM     18  C   UNL d   1     -40.969  15.026  20.580  0.00  0.00     0.100 A 
BRANCH  16  19
ATOM     19  C   UNL d   1     -42.517  13.684  21.332  0.00  0.00     0.126 C 
BRANCH  19  20
ATOM     20  C   UNL d   1     -42.739  12.908  21.244  0.00  0.00     0.253 C 
ATOM     21  O   UNL d   1     -43.457  12.639  21.550  0.00  0.00    -0.281 OA
ENDBRANCH  19  20
ENDBRANCH  16  19
ENDBRANCH   1  13
BRANCH   1  22
ATOM     22  C   UNL d   1     -39.088  15.107  20.593  0.00  0.00     0.046 A 
ATOM     23  S   UNL d   1     -38.497  14.661  20.945  0.00  0.00    -0.085 SA
ATOM     24  C   UNL d   1     -38.043  15.159  21.379  0.00  0.00     0.035 A 
ATOM     25  C   UNL d   1     -38.337  15.922  21.308  0.00  0.00     0.007 A 
ATOM     26  C   UNL d   1     -38.989  15.897  20.821  0.00  0.00     0.009 A 
ENDBRANCH   1  22
TORSDOF 5
ENDMDL
MODEL 6
REMARK VINA RESULT:      -3.7      2.031      4.568
REMARK  5 active torsions:
REMARK  status: ('A' for Active; 'I' for Inactive)
REMARK    1  A    between atoms: C_3  and  C_1 
REMARK    2  A    between atoms: N_4  and  C_3 
REMARK    3  A    between atoms: C_6  and  C_3 
REMARK    4  A    between atoms: C_21  and  N_9 
REMARK    5  A    between atoms: C_25  and  C_21 
ROOT
ATOM      1  C   UNL d   1     -39.548  14.866  20.179  0.00  0.00     0.073 C 
ENDROOT
BRANCH   1   2
ATOM      2  C   UNL d   1     -39.165  14.963  19.443  0.00  0.00     0.057 A 
ATOM      3  C   UNL d   1     -39.158  14.366  18.874  0.00  0.00     0.214 A 
ATOM      4  C   UNL d   1     -38.780  14.469  18.155  0.00  0.00     0.120 A 
ATOM      5  O   UNL d   1     -39.538  13.658  19.032  0.00  0.00    -0.285 OA
ATOM      6  N   UNL d   1     -38.779  13.880  17.605  0.00  0.00    -0.241 NA
ATOM      7  C   UNL d   1     -38.397  15.183  17.995  0.00  0.00     0.021 A 
ATOM      8  C   UNL d   1     -38.400  13.981  16.883  0.00  0.00     0.099 A 
ATOM      9  C   UNL d   1     -38.017  14.695  16.723  0.00  0.00     0.021 A 
ATOM     10  C   UNL d   1     -38.018  15.300  17.287  0.00  0.00     0.003 A 
ATOM     11  C   UNL d   1     -38.397  15.787  18.556  0.00  0.00     0.002 A 
ATOM     12  C   UNL d   1     -38.782  15.677  19.284  0.00  0.00     0.005 A 
ENDBRANCH   1   2
BRANCH   1  13
ATOM     13  N   UNL d   1     -39.149  14.489  20.786  0.00  0.00    -0.301 N 
ATOM     14  C   UNL d   1     -38.726  14.931  21.346  0.00  0.00     0.100 A 
ATOM     15  C   UNL d   1     -38.323  14.567  21.958  0.00  0.00     0.100 A 
ATOM     16  N   UNL d   1     -38.340  13.725  22.016  0.00  0.00    -0.297 N 
ATOM     17  C   UNL d   1     -38.753  13.278  21.470  0.00  0.00     0.100 A 
ATOM     18  C   UNL d   1     -39.163  13.665  20.847  0.00  0.00     0.100 A 
BRANCH  16  19
ATOM     19  C   UNL d   1     -37.940  13.347  22.626  0.00  0.00     0.126 C 
BRANCH  19  20
ATOM     20  C   UNL d   1     -38.284  13.257  23.355  0.00  0.00     0.253 C 
ATOM     21  O   UNL d   1     -38.357  12.510  23.698  0.00  0.00    -0.281 OA
ENDBRANCH  19  20
ENDBRANCH  16  19
ENDBRANCH   1  13
BRANCH   1  22
ATOM     22  C   UNL d   1     -40.307  15.145  20.283  0.00  0.00     0.046 A 
ATOM     23  S   UNL d   1     -40.458  15.787  20.769  0.00  0.00    -0.085 SA
ATOM     24  C   UNL d   1     -41.249  15.922  20.754  0.00  0.00     0.035 A 
ATOM     25  C   UNL d   1     -41.606  15.371  20.262  0.00  0.00     0.007 A 
ATOM     26  C   UNL d   1     -41.025  14.884  19.965  0.00  0.00     0.009 A 
ENDBRANCH   1  22
TORSDOF 5
ENDMDL
MODEL 7
REMARK VINA RESULT:      -3.2      1.491      4.091
REMARK  5 active torsions:
REMARK  status: ('A' for Active; 'I' for Inactive)
REMARK    1  A    between atoms: C_3  and  C_1 
REMARK    2  A    between atoms: N_4  and  C_3 
REMARK    3  A    between atoms: C_6  and  C_3 
REMARK    4  A    between atoms: C_21  and  N_9 
REMARK    5  A    between atoms: C_25  and  C_21 
ROOT
ATOM      1  C   UNL d   1     -39.927  15.058  18.661  0.00  0.00     0.073 C 
ENDROOT
BRANCH   1   2
ATOM      2  C   UNL d   1     -39.433  14.583  18.185  0.00  0.00     0.057 A 
ATOM      3  C   UNL d   1     -39.495  13.760  18.178  0.00  0.00     0.214 A 
ATOM      4  C   UNL d   1     -39.005  13.301  17.708  0.00  0.00     0.120 A 
ATOM      5  O   UNL d   1     -40.057  13.397  18.649  0.00  0.00    -0.285 OA
ATOM      6  N   UNL d   1     -39.074  12.498  17.707  0.00  0.00    -0.241 NA
ATOM      7  C   UNL d   1     -38.438  13.667  17.232  0.00  0.00     0.021 A 
ATOM      8  C   UNL d   1     -38.584  12.036  17.236  0.00  0.00     0.099 A 
ATOM      9  C   UNL d   1     -38.017  12.403  16.761  0.00  0.00     0.021 A 
ATOM     10  C   UNL d   1     -37.946  13.227  16.761  0.00  0.00     0.003 A 
ATOM     11  C   UNL d   1     -38.366  14.489  17.231  0.00  0.00     0.002 A 
ATOM     12  C   UNL d   1     -38.865  14.949  17.710  0.00  0.00     0.005 A 
ENDBRANCH   1   2
BRANCH   1  13
ATOM     13  N   UNL d   1     -39.727  15.174  19.447  0.00  0.00    -0.301 N 
ATOM     14  C   UNL d   1     -40.021  14.668  20.033  0.00  0.00     0.100 A 
ATOM     15  C   UNL d   1     -39.829  14.773  20.821  0.00  0.00     0.100 A 
ATOM     16  N   UNL d   1     -39.321  15.411  21.037  0.00  0.00    -0.297 N 
ATOM     17  C   UNL d   1     -39.024  15.918  20.468  0.00  0.00     0.100 A 
ATOM     18  C   UNL d   1     -39.229  15.798  19.663  0.00  0.00     0.100 A 
BRANCH  16  19
ATOM     19  C   UNL d   1     -39.120  15.528  21.825  0.00  0.00     0.126 C 
BRANCH  19  20
ATOM     20  C   UNL d   1     -39.006  14.897  22.322  0.00  0.00     0.253 C 
ATOM     21  O   UNL d   1     -38.563  14.979  23.014  0.00  0.00    -0.281 OA
ENDBRANCH  19  20
ENDBRANCH  16  19
ENDBRANCH   1  13
BRANCH   1  22
ATOM     22  C   UNL d   1     -40.597  15.396  18.343  0.00  0.00     0.046 A 
ATOM     23  S   UNL d   1     -40.636  15.589  17.548  0.00  0.00    -0.085 SA
ATOM     24  C   UNL d   1     -41.359  15.909  17.411  0.00  0.00     0.035 A 
ATOM     25  C   UNL d   1     -41.784  15.922  18.113  0.00  0.00     0.007 A 
ATOM     26  C   UNL d   1     -41.316  15.604  18.698  0.00  0.00     0.009 A 
ENDBRANCH   1  22
TORSDOF 5
ENDMDL
MODEL 8
REMARK VINA RESULT:      -3.0      2.344      3.503
REMARK  5 active torsions:
REMARK  status: ('A' for Active; 'I' for Inactive)
REMARK    1  A    between atoms: C_3  and  C_1 
REMARK    2  A    between atoms: N_4  and  C_3 
REMARK    3  A    between atoms: C_6  and  C_3 
REMARK    4  A    between atoms: C_21  and  N_9 
REMARK    5  A    between atoms: C_25  and  C_21 
ROOT
ATOM      1  C   UNL d   1     -40.432  14.506  20.572  0.00  0.00     0.073 C 
ENDROOT
BRANCH   1   2
ATOM      2  C   UNL d   1     -39.977  14.816  21.200  0.00  0.00     0.057 A 
ATOM      3  C   UNL d   1     -39.402  14.365  21.585  0.00  0.00     0.214 A 
ATOM      4  C   UNL d   1     -38.960  14.677  22.200  0.00  0.00     0.120 A 
ATOM      5  O   UNL d   1     -39.273  13.593  21.346  0.00  0.00    -0.285 OA
ATOM      6  N   UNL d   1     -38.401  14.229  22.569  0.00  0.00    -0.241 NA
ATOM      7  C   UNL d   1     -39.090  15.456  22.440  0.00  0.00     0.021 A 
ATOM      8  C   UNL d   1     -37.956  14.539  23.186  0.00  0.00     0.099 A 
ATOM      9  C   UNL d   1     -38.086  15.319  23.427  0.00  0.00     0.021 A 
ATOM     10  C   UNL d   1     -38.660  15.779  23.048  0.00  0.00     0.003 A 
ATOM     11  C   UNL d   1     -39.661  15.916  22.063  0.00  0.00     0.002 A 
ATOM     12  C   UNL d   1     -40.107  15.595  21.440  0.00  0.00     0.005 A 
ENDBRANCH   1   2
BRANCH   1  13
ATOM     13  N   UNL d   1     -41.141  14.134  20.744  0.00  0.00    -0.301 N 
ATOM     14  C   UNL d   1     -41.795  14.576  20.997  0.00  0.00     0.100 A 
ATOM     15  C   UNL d   1     -42.509  14.217  21.173  0.00  0.00     0.100 A 
ATOM     16  N   UNL d   1     -42.576  13.380  21.092  0.00  0.00    -0.297 N 
ATOM     17  C   UNL d   1     -41.939  12.932  20.843  0.00  0.00     0.100 A 
ATOM     18  C   UNL d   1     -41.212  13.314  20.667  0.00  0.00     0.100 A 
BRANCH  16  19
ATOM     19  C   UNL d   1     -43.287  13.006  21.265  0.00  0.00     0.126 C 
BRANCH  19  20
ATOM     20  C   UNL d   1     -43.323  12.424  21.829  0.00  0.00     0.253 C 
ATOM     21  O   UNL d   1     -44.051  12.140  22.097  0.00  0.00    -0.281 OA
ENDBRANCH  19  20
ENDBRANCH  16  19
ENDBRANCH   1  13
BRANCH   1  22
ATOM     22  C   UNL d   1     -40.169  14.577  19.804  0.00  0.00     0.046 A 
ATOM     23  S   UNL d   1     -40.419  15.194  19.327  0.00  0.00    -0.085 SA
ATOM     24  C   UNL d   1     -40.065  15.108  18.612  0.00  0.00     0.035 A 
ATOM     25  C   UNL d   1     -39.589  14.439  18.628  0.00  0.00     0.007 A 
ATOM     26  C   UNL d   1     -39.649  14.104  19.367  0.00  0.00     0.009 A 
ENDBRANCH   1  22
TORSDOF 5
ENDMDL
MODEL 9
REMARK VINA RESULT:      -2.9      8.467      9.933
REMARK  5 active torsions:
REMARK  status: ('A' for Active; 'I' for Inactive)
REMARK    1  A    between atoms: C_3  and  C_1 
REMARK    2  A    between atoms: N_4  and  C_3 
REMARK    3  A    between atoms: C_6  and  C_3 
REMARK    4  A    between atoms: C_21  and  N_9 
REMARK    5  A    between atoms: C_25  and  C_21 
ROOT
ATOM      1  C   UNL d   1     -46.993  12.938  22.839  0.00  0.00     0.073 C 
ENDROOT
BRANCH   1   2
ATOM      2  C   UNL d   1     -47.819  12.862  22.743  0.00  0.00     0.057 A 
ATOM      3  C   UNL d   1     -48.163  12.756  22.001  0.00  0.00     0.214 A 
ATOM      4  C   UNL d   1     -48.974  12.682  21.915  0.00  0.00     0.120 A 
ATOM      5  O   UNL d   1     -47.683  12.724  21.338  0.00  0.00    -0.285 OA
ATOM      6  N   UNL d   1     -49.301  12.579  21.185  0.00  0.00    -0.241 NA
ATOM      7  C   UNL d   1     -49.458  12.714  22.583  0.00  0.00     0.021 A 
ATOM      8  C   UNL d   1     -50.114  12.505  21.097  0.00  0.00     0.099 A 
ATOM      9  C   UNL d   1     -50.599  12.536  21.766  0.00  0.00     0.021 A 
ATOM     10  C   UNL d   1     -50.264  12.642  22.515  0.00  0.00     0.003 A 
ATOM     11  C   UNL d   1     -49.126  12.819  23.330  0.00  0.00     0.002 A 
ATOM     12  C   UNL d   1     -48.303  12.894  23.412  0.00  0.00     0.005 A 
ENDBRANCH   1   2
BRANCH   1  13
ATOM     13  N   UNL d   1     -46.557  12.277  23.049  0.00  0.00    -0.301 N 
ATOM     14  C   UNL d   1     -46.909  11.664  23.482  0.00  0.00     0.100 A 
ATOM     15  C   UNL d   1     -46.485  10.998  23.698  0.00  0.00     0.100 A 
ATOM     16  N   UNL d   1     -45.674  10.939  23.473  0.00  0.00    -0.297 N 
ATOM     17  C   UNL d   1     -45.315  11.537  23.045  0.00  0.00     0.100 A 
ATOM     18  C   UNL d   1     -45.762  12.214  22.831  0.00  0.00     0.100 A 
BRANCH  16  19
ATOM     19  C   UNL d   1     -45.236  10.276  23.683  0.00  0.00     0.126 C 
BRANCH  19  20
ATOM     20  C   UNL d   1     -44.431  10.262  23.581  0.00  0.00     0.253 C 
ATOM     21  O   UNL d   1     -44.004   9.565  23.698  0.00  0.00    -0.281 OA
ENDBRANCH  19  20
ENDBRANCH  16  19
ENDBRANCH   1  13
BRANCH   1  22
ATOM     22  C   UNL d   1     -46.634  13.661  22.726  0.00  0.00     0.046 A 
ATOM     23  S   UNL d   1     -46.681  14.250  23.292  0.00  0.00    -0.085 SA
ATOM     24  C   UNL d   1     -46.275  14.884  23.017  0.00  0.00     0.035 A 
ATOM     25  C   UNL d   1     -45.968  14.706  22.277  0.00  0.00     0.007 A 
ATOM     26  C   UNL d   1     -46.188  13.945  22.089  0.00  0.00     0.009 A 
ENDBRANCH   1  22
TORSDOF 5
ENDMDL
