MODEL 1
REMARK VINA RESULT:      -1.7      0.000      0.000
REMARK  3 active torsions:
REMARK  status: ('A' for Active; 'I' for Inactive)
REMARK    1  A    between atoms: C_8  and  C_1 
REMARK    2  A    between atoms: N_4  and  C_2 
REMARK       I    between atoms: C_6  and  N_4 
REMARK    3  A    between atoms: C_10  and  C_6 
ROOT
ATOM      1  C   UNL d   1      60.396  -0.592  29.235  0.00  0.00     0.177 A 
ATOM      2  C   UNL d   1      59.678  -0.774  28.853  0.00  0.00     0.114 A 
ATOM      3  O   UNL d   1      60.686  -1.290  29.552  0.00  0.00    -0.301 OA
ATOM      4  C   UNL d   1      59.539  -1.579  28.942  0.00  0.00     0.043 A 
ATOM      5  C   UNL d   1      60.158  -1.902  29.373  0.00  0.00     0.102 A 
ATOM      6  C   UNL d   1      58.922  -2.061  28.683  0.00  0.00     0.004 A 
ATOM      7  C   UNL d   1      60.168  -2.708  29.549  0.00  0.00     0.025 A 
ATOM      8  C   UNL d   1      58.927  -2.873  28.857  0.00  0.00     0.000 A 
ATOM      9  C   UNL d   1      59.555  -3.186  29.290  0.00  0.00     0.002 A 
ENDROOT
BRANCH   2  10
ATOM     10  N   UNL d   1      59.191  -0.237  28.455  0.00  0.00    -0.206 NA
ATOM     11  C   UNL d   1      58.579   0.142  28.857  0.00  0.00     0.279 C 
ATOM     12  O   UNL d   1      58.090   0.682  28.457  0.00  0.00    -0.265 OA
BRANCH  11  13
ATOM     13  C   UNL d   1      58.453  -0.014  29.657  0.00  0.00     0.058 A 
ATOM     14  C   UNL d   1      58.828   0.447  30.230  0.00  0.00     0.005 A 
ATOM     15  C   UNL d   1      58.702   0.290  31.030  0.00  0.00     0.000 A 
ATOM     16  C   UNL d   1      58.202  -0.328  31.258  0.00  0.00     0.000 A 
ATOM     17  C   UNL d   1      57.828  -0.789  30.685  0.00  0.00     0.000 A 
ATOM     18  C   UNL d   1      57.953  -0.632  29.885  0.00  0.00     0.005 A 
ENDBRANCH  11  13
ENDBRANCH   2  10
BRANCH   1  19
ATOM     19  C   UNL d   1      60.768   0.155  29.295  0.00  0.00     0.321 C 
ATOM     20  O   UNL d   1      61.069   0.409  30.028  0.00  0.00    -0.261 OA
ATOM     21  N   UNL d   1      60.832   0.628  28.639  0.00  0.00    -0.101 N 
ENDBRANCH   1  19
TORSDOF 3
ENDMDL
MODEL 2
REMARK VINA RESULT:      -0.9      1.382      2.896
REMARK  3 active torsions:
REMARK  status: ('A' for Active; 'I' for Inactive)
REMARK    1  A    between atoms: C_8  and  C_1 
REMARK    2  A    between atoms: N_4  and  C_2 
REMARK       I    between atoms: C_6  and  N_4 
REMARK    3  A    between atoms: C_10  and  C_6 
ROOT
ATOM      1  C   UNL d   1      58.064  -1.393  29.922  0.00  0.00     0.177 A 
ATOM      2  C   UNL d   1      57.959  -0.571  29.819  0.00  0.00     0.114 A 
ATOM      3  O   UNL d   1      57.769  -1.584  30.662  0.00  0.00    -0.301 OA
ATOM      4  C   UNL d   1      57.601  -0.274  30.497  0.00  0.00     0.043 A 
ATOM      5  C   UNL d   1      57.482  -0.895  31.019  0.00  0.00     0.102 A 
ATOM      6  C   UNL d   1      57.368   0.489  30.704  0.00  0.00     0.004 A 
ATOM      7  C   UNL d   1      57.130  -0.761  31.753  0.00  0.00     0.025 A 
ATOM      8  C   UNL d   1      57.013   0.630  31.441  0.00  0.00     0.000 A 
ATOM      9  C   UNL d   1      56.898  -0.001  31.958  0.00  0.00     0.002 A 
ENDROOT
BRANCH   2  10
ATOM     10  N   UNL d   1      58.176  -0.134  29.152  0.00  0.00    -0.206 NA
ATOM     11  C   UNL d   1      58.910   0.242  29.126  0.00  0.00     0.279 C 
ATOM     12  O   UNL d   1      59.128   0.682  28.455  0.00  0.00    -0.265 OA
BRANCH  11  13
ATOM     13  C   UNL d   1      59.426   0.182  29.766  0.00  0.00     0.058 A 
ATOM     14  C   UNL d   1      59.334   0.682  30.416  0.00  0.00     0.005 A 
ATOM     15  C   UNL d   1      59.850   0.622  31.057  0.00  0.00     0.000 A 
ATOM     16  C   UNL d   1      60.458   0.062  31.048  0.00  0.00     0.000 A 
ATOM     17  C   UNL d   1      60.550  -0.438  30.398  0.00  0.00     0.000 A 
ATOM     18  C   UNL d   1      60.034  -0.378  29.757  0.00  0.00     0.005 A 
ENDBRANCH  11  13
ENDBRANCH   2  10
BRANCH   1  19
ATOM     19  C   UNL d   1      58.404  -1.934  29.383  0.00  0.00     0.321 C 
ATOM     20  O   UNL d   1      58.929  -2.518  29.661  0.00  0.00    -0.261 OA
ATOM     21  N   UNL d   1      58.222  -1.889  28.594  0.00  0.00    -0.101 N 
ENDBRANCH   1  19
TORSDOF 3
ENDMDL
MODEL 3
REMARK VINA RESULT:       0.2      1.187      2.280
REMARK  3 active torsions:
REMARK  status: ('A' for Active; 'I' for Inactive)
REMARK    1  A    between atoms: C_8  and  C_1 
REMARK    2  A    between atoms: N_4  and  C_2 
REMARK       I    between atoms: C_6  and  N_4 
REMARK    3  A    between atoms: C_10  and  C_6 
ROOT
ATOM      1  C   UNL d   1      59.024  -1.363  29.258  0.00  0.00     0.177 A 
ATOM      2  C   UNL d   1      59.022  -0.535  29.153  0.00  0.00     0.114 A 
ATOM      3  O   UNL d   1      59.709  -1.553  29.666  0.00  0.00    -0.301 OA
ATOM      4  C   UNL d   1      59.704  -0.234  29.497  0.00  0.00     0.043 A 
ATOM      5  C   UNL d   1      60.131  -0.858  29.814  0.00  0.00     0.102 A 
ATOM      6  C   UNL d   1      59.992   0.537  29.561  0.00  0.00     0.004 A 
ATOM      7  C   UNL d   1      60.848  -0.720  30.198  0.00  0.00     0.025 A 
ATOM      8  C   UNL d   1      60.713   0.681  29.946  0.00  0.00     0.000 A 
ATOM      9  C   UNL d   1      61.133   0.046  30.261  0.00  0.00     0.002 A 
ENDROOT
BRANCH   2  10
ATOM     10  N   UNL d   1      58.435  -0.097  28.770  0.00  0.00    -0.206 NA
ATOM     11  C   UNL d   1      57.819   0.237  29.204  0.00  0.00     0.279 C 
ATOM     12  O   UNL d   1      57.229   0.678  28.819  0.00  0.00    -0.265 OA
BRANCH  11  13
ATOM     13  C   UNL d   1      57.789   0.134  30.022  0.00  0.00     0.058 A 
ATOM     14  C   UNL d   1      57.367  -0.499  30.341  0.00  0.00     0.005 A 
ATOM     15  C   UNL d   1      57.338  -0.603  31.159  0.00  0.00     0.000 A 
ATOM     16  C   UNL d   1      57.730  -0.073  31.658  0.00  0.00     0.000 A 
ATOM     17  C   UNL d   1      58.151   0.560  31.339  0.00  0.00     0.000 A 
ATOM     18  C   UNL d   1      58.181   0.664  30.521  0.00  0.00     0.005 A 
ENDBRANCH  11  13
ENDBRANCH   2  10
BRANCH   1  19
ATOM     19  C   UNL d   1      58.445  -1.911  29.004  0.00  0.00     0.321 C 
ATOM     20  O   UNL d   1      57.861  -1.672  28.462  0.00  0.00    -0.261 OA
ATOM     21  N   UNL d   1      58.457  -2.672  29.285  0.00  0.00    -0.101 N 
ENDBRANCH   1  19
TORSDOF 3
ENDMDL
MODEL 4
REMARK VINA RESULT:       0.9      1.352      2.216
REMARK  3 active torsions:
REMARK  status: ('A' for Active; 'I' for Inactive)
REMARK    1  A    between atoms: C_8  and  C_1 
REMARK    2  A    between atoms: N_4  and  C_2 
REMARK       I    between atoms: C_6  and  N_4 
REMARK    3  A    between atoms: C_10  and  C_6 
ROOT
ATOM      1  C   UNL d   1      58.002  -1.335  30.329  0.00  0.00     0.177 A 
ATOM      2  C   UNL d   1      58.181  -1.232  29.521  0.00  0.00     0.114 A 
ATOM      3  O   UNL d   1      58.346  -2.040  30.565  0.00  0.00    -0.301 OA
ATOM      4  C   UNL d   1      58.630  -1.875  29.276  0.00  0.00     0.043 A 
ATOM      5  C   UNL d   1      58.735  -2.376  29.917  0.00  0.00     0.102 A 
ATOM      6  C   UNL d   1      58.960  -2.067  28.545  0.00  0.00     0.004 A 
ATOM      7  C   UNL d   1      59.168  -3.073  29.835  0.00  0.00     0.025 A 
ATOM      8  C   UNL d   1      59.396  -2.768  28.456  0.00  0.00     0.000 A 
ATOM      9  C   UNL d   1      59.494  -3.263  29.107  0.00  0.00     0.002 A 
ENDROOT
BRANCH   2  10
ATOM     10  N   UNL d   1      57.947  -0.594  29.050  0.00  0.00    -0.206 NA
ATOM     11  C   UNL d   1      58.459   0.041  28.929  0.00  0.00     0.279 C 
ATOM     12  O   UNL d   1      58.223   0.682  28.456  0.00  0.00    -0.265 OA
BRANCH  11  13
ATOM     13  C   UNL d   1      59.206   0.038  29.279  0.00  0.00     0.058 A 
ATOM     14  C   UNL d   1      59.294   0.276  30.063  0.00  0.00     0.005 A 
ATOM     15  C   UNL d   1      60.041   0.274  30.413  0.00  0.00     0.000 A 
ATOM     16  C   UNL d   1      60.701   0.033  29.977  0.00  0.00     0.000 A 
ATOM     17  C   UNL d   1      60.614  -0.205  29.192  0.00  0.00     0.000 A 
ATOM     18  C   UNL d   1      59.867  -0.202  28.843  0.00  0.00     0.005 A 
ENDBRANCH  11  13
ENDBRANCH   2  10
BRANCH   1  19
ATOM     19  C   UNL d   1      57.558  -0.826  30.822  0.00  0.00     0.321 C 
ATOM     20  O   UNL d   1      57.027  -0.283  30.482  0.00  0.00    -0.261 OA
ATOM     21  N   UNL d   1      57.647  -0.863  31.628  0.00  0.00    -0.101 N 
ENDBRANCH   1  19
TORSDOF 3
ENDMDL
MODEL 5
REMARK VINA RESULT:       1.0      1.561      2.939
REMARK  3 active torsions:
REMARK  status: ('A' for Active; 'I' for Inactive)
REMARK    1  A    between atoms: C_8  and  C_1 
REMARK    2  A    between atoms: N_4  and  C_2 
REMARK       I    between atoms: C_6  and  N_4 
REMARK    3  A    between atoms: C_10  and  C_6 
ROOT
ATOM      1  C   UNL d   1      58.369   0.206  31.120  0.00  0.00     0.177 A 
ATOM      2  C   UNL d   1      58.669   0.421  30.371  0.00  0.00     0.114 A 
ATOM      3  O   UNL d   1      59.010   0.135  31.626  0.00  0.00    -0.301 OA
ATOM      4  C   UNL d   1      59.487   0.477  30.431  0.00  0.00     0.043 A 
ATOM      5  C   UNL d   1      59.701   0.302  31.203  0.00  0.00     0.102 A 
ATOM      6  C   UNL d   1      60.066   0.668  29.876  0.00  0.00     0.004 A 
ATOM      7  C   UNL d   1      60.495   0.315  31.428  0.00  0.00     0.025 A 
ATOM      8  C   UNL d   1      60.866   0.682  30.097  0.00  0.00     0.000 A 
ATOM      9  C   UNL d   1      61.070   0.504  30.875  0.00  0.00     0.002 A 
ENDROOT
BRANCH   2  10
ATOM     10  N   UNL d   1      58.221   0.553  29.689  0.00  0.00    -0.206 NA
ATOM     11  C   UNL d   1      58.114  -0.054  29.141  0.00  0.00     0.279 C 
ATOM     12  O   UNL d   1      57.663   0.079  28.455  0.00  0.00    -0.265 OA
BRANCH  11  13
ATOM     13  C   UNL d   1      58.455  -0.793  29.274  0.00  0.00     0.058 A 
ATOM     14  C   UNL d   1      58.140  -1.295  29.848  0.00  0.00     0.005 A 
ATOM     15  C   UNL d   1      58.482  -2.034  29.981  0.00  0.00     0.000 A 
ATOM     16  C   UNL d   1      59.139  -2.271  29.539  0.00  0.00     0.000 A 
ATOM     17  C   UNL d   1      59.454  -1.770  28.965  0.00  0.00     0.000 A 
ATOM     18  C   UNL d   1      59.113  -1.031  28.832  0.00  0.00     0.005 A 
ENDBRANCH  11  13
ENDBRANCH   2  10
BRANCH   1  19
ATOM     19  C   UNL d   1      57.570   0.082  31.333  0.00  0.00     0.321 C 
ATOM     20  O   UNL d   1      57.335  -0.653  31.645  0.00  0.00    -0.261 OA
ATOM     21  N   UNL d   1      57.028   0.678  31.235  0.00  0.00    -0.101 N 
ENDBRANCH   1  19
TORSDOF 3
ENDMDL
