MODEL 1
REMARK VINA RESULT:      -3.8      0.000      0.000
REMARK  4 active torsions:
REMARK  status: ('A' for Active; 'I' for Inactive)
REMARK    1  A    between atoms: N_3  and  C_1 
REMARK       I    between atoms: C_5  and  N_3 
REMARK    2  A    between atoms: C_7  and  C_5 
REMARK    3  A    between atoms: C_9  and  C_12 
REMARK    4  A    between atoms: O_18  and  C_9 
ROOT
ATOM      1  C   UNL d   1      56.552   0.653  32.664  0.00  0.00     0.197 A 
ATOM      2  N   UNL d   1      57.383   0.656  32.745  0.00  0.00    -0.221 NA
ATOM      3  S   UNL d   1      56.378   0.646  31.858  0.00  0.00    -0.047 SA
ATOM      4  C   UNL d   1      57.088   0.644  31.433  0.00  0.00     0.050 A 
ATOM      5  C   UNL d   1      57.714   0.650  31.985  0.00  0.00     0.090 A 
ATOM      6  C   UNL d   1      58.028   0.638  30.369  0.00  0.00     0.064 A 
ATOM      7  C   UNL d   1      57.252   0.638  30.624  0.00  0.00     0.013 A 
ATOM      8  C   UNL d   1      58.490   0.650  31.719  0.00  0.00     0.020 A 
ATOM      9  C   UNL d   1      58.654   0.644  30.922  0.00  0.00     0.007 A 
ENDROOT
BRANCH   1  10
ATOM     10  N   UNL d   1      56.004   0.657  33.283  0.00  0.00    -0.183 NA
ATOM     11  C   UNL d   1      55.651  -0.048  33.527  0.00  0.00     0.281 C 
ATOM     12  O   UNL d   1      55.106  -0.044  34.143  0.00  0.00    -0.265 OA
BRANCH  11  13
ATOM     13  C   UNL d   1      55.845  -0.756  33.151  0.00  0.00     0.058 A 
ATOM     14  C   UNL d   1      56.221  -1.490  33.159  0.00  0.00     0.005 A 
ATOM     15  C   UNL d   1      55.803  -1.248  32.493  0.00  0.00     0.005 A 
ENDBRANCH  11  13
ENDBRANCH   1  10
BRANCH   6  16
ATOM     16  C   UNL d   1      58.206   0.631  29.562  0.00  0.00     0.296 C 
ATOM     17  O   UNL d   1      57.609   0.608  29.004  0.00  0.00    -0.259 OA
BRANCH  16  18
ATOM     18  O   UNL d   1      59.002   0.649  29.325  0.00  0.00    -0.296 OA
ATOM     19  C   UNL d   1      59.190   0.571  28.529  0.00  0.00     0.185 C 
ENDBRANCH  16  18
ENDBRANCH   6  16
TORSDOF 4
ENDMDL
MODEL 2
REMARK VINA RESULT:      -3.2      1.084      1.549
REMARK  4 active torsions:
REMARK  status: ('A' for Active; 'I' for Inactive)
REMARK    1  A    between atoms: N_3  and  C_1 
REMARK       I    between atoms: C_5  and  N_3 
REMARK    2  A    between atoms: C_7  and  C_5 
REMARK    3  A    between atoms: C_9  and  C_12 
REMARK    4  A    between atoms: O_18  and  C_9 
ROOT
ATOM      1  C   UNL d   1      56.737   0.191  33.586  0.00  0.00     0.197 A 
ATOM      2  N   UNL d   1      56.538  -0.491  33.147  0.00  0.00    -0.221 NA
ATOM      3  S   UNL d   1      57.192   0.678  33.102  0.00  0.00    -0.047 SA
ATOM      4  C   UNL d   1      57.283   0.313  32.365  0.00  0.00     0.050 A 
ATOM      5  C   UNL d   1      56.875  -0.416  32.393  0.00  0.00     0.090 A 
ATOM      6  C   UNL d   1      57.665   0.048  31.025  0.00  0.00     0.064 A 
ATOM      7  C   UNL d   1      57.677   0.540  31.677  0.00  0.00     0.013 A 
ATOM      8  C   UNL d   1      56.870  -0.902  31.732  0.00  0.00     0.020 A 
ATOM      9  C   UNL d   1      57.258  -0.681  31.053  0.00  0.00     0.007 A 
ENDROOT
BRANCH   1  10
ATOM     10  N   UNL d   1      56.514   0.345  34.368  0.00  0.00    -0.183 NA
ATOM     11  C   UNL d   1      55.717   0.435  34.560  0.00  0.00     0.281 C 
ATOM     12  O   UNL d   1      55.495   0.589  35.336  0.00  0.00    -0.265 OA
BRANCH  11  13
ATOM     13  C   UNL d   1      55.142   0.371  33.972  0.00  0.00     0.058 A 
ATOM     14  C   UNL d   1      54.532  -0.051  33.610  0.00  0.00     0.005 A 
ATOM     15  C   UNL d   1      54.758   0.682  33.314  0.00  0.00     0.005 A 
ENDBRANCH  11  13
ENDBRANCH   1  10
BRANCH   6  16
ATOM     16  C   UNL d   1      58.055   0.263  30.328  0.00  0.00     0.296 C 
ATOM     17  O   UNL d   1      58.852   0.104  30.232  0.00  0.00    -0.259 OA
BRANCH  16  18
ATOM     18  O   UNL d   1      57.627   0.643  29.727  0.00  0.00    -0.296 OA
ATOM     19  C   UNL d   1      57.787   0.466  28.941  0.00  0.00     0.185 C 
ENDBRANCH  16  18
ENDBRANCH   6  16
TORSDOF 4
ENDMDL
MODEL 3
REMARK VINA RESULT:      -2.5      1.303      3.877
REMARK  4 active torsions:
REMARK  status: ('A' for Active; 'I' for Inactive)
REMARK    1  A    between atoms: N_3  and  C_1 
REMARK       I    between atoms: C_5  and  N_3 
REMARK    2  A    between atoms: C_7  and  C_5 
REMARK    3  A    between atoms: C_9  and  C_12 
REMARK    4  A    between atoms: O_18  and  C_9 
ROOT
ATOM      1  C   UNL d   1      57.836   0.638  30.673  0.00  0.00     0.197 A 
ATOM      2  N   UNL d   1      58.323   0.681  31.351  0.00  0.00    -0.221 NA
ATOM      3  S   UNL d   1      57.055   0.580  30.929  0.00  0.00    -0.047 SA
ATOM      4  C   UNL d   1      57.044   0.586  31.757  0.00  0.00     0.050 A 
ATOM      5  C   UNL d   1      57.834   0.650  32.019  0.00  0.00     0.090 A 
ATOM      6  C   UNL d   1      56.598   0.564  33.103  0.00  0.00     0.064 A 
ATOM      7  C   UNL d   1      56.429   0.544  32.304  0.00  0.00     0.013 A 
ATOM      8  C   UNL d   1      57.993   0.669  32.824  0.00  0.00     0.020 A 
ATOM      9  C   UNL d   1      57.388   0.627  33.366  0.00  0.00     0.007 A 
ENDROOT
BRANCH   1  10
ATOM     10  N   UNL d   1      58.097   0.650  29.889  0.00  0.00    -0.183 NA
ATOM     11  C   UNL d   1      58.291  -0.054  29.506  0.00  0.00     0.281 C 
ATOM     12  O   UNL d   1      58.549  -0.041  28.726  0.00  0.00    -0.265 OA
BRANCH  11  13
ATOM     13  C   UNL d   1      58.226  -0.772  29.908  0.00  0.00     0.058 A 
ATOM     14  C   UNL d   1      58.575  -1.395  30.321  0.00  0.00     0.005 A 
ATOM     15  C   UNL d   1      57.763  -1.390  30.191  0.00  0.00     0.005 A 
ENDBRANCH  11  13
ENDBRANCH   1  10
BRANCH   6  16
ATOM     16  C   UNL d   1      55.991   0.523  33.663  0.00  0.00     0.296 C 
ATOM     17  O   UNL d   1      56.156   0.594  34.461  0.00  0.00    -0.259 OA
BRANCH  16  18
ATOM     18  O   UNL d   1      55.210   0.408  33.404  0.00  0.00    -0.296 OA
ATOM     19  C   UNL d   1      54.586   0.671  33.868  0.00  0.00     0.185 C 
ENDBRANCH  16  18
ENDBRANCH   6  16
TORSDOF 4
ENDMDL
MODEL 4
REMARK VINA RESULT:      -1.9      1.763      4.099
REMARK  4 active torsions:
REMARK  status: ('A' for Active; 'I' for Inactive)
REMARK    1  A    between atoms: N_3  and  C_1 
REMARK       I    between atoms: C_5  and  N_3 
REMARK    2  A    between atoms: C_7  and  C_5 
REMARK    3  A    between atoms: C_9  and  C_12 
REMARK    4  A    between atoms: O_18  and  C_9 
ROOT
ATOM      1  C   UNL d   1      58.814   0.642  30.228  0.00  0.00     0.197 A 
ATOM      2  N   UNL d   1      57.997   0.657  30.057  0.00  0.00    -0.221 NA
ATOM      3  S   UNL d   1      58.900   0.635  31.047  0.00  0.00    -0.047 SA
ATOM      4  C   UNL d   1      58.149   0.645  31.394  0.00  0.00     0.050 A 
ATOM      5  C   UNL d   1      57.586   0.659  30.778  0.00  0.00     0.090 A 
ATOM      6  C   UNL d   1      57.100   0.655  32.351  0.00  0.00     0.064 A 
ATOM      7  C   UNL d   1      57.899   0.643  32.181  0.00  0.00     0.013 A 
ATOM      8  C   UNL d   1      56.786   0.671  30.960  0.00  0.00     0.020 A 
ATOM      9  C   UNL d   1      56.538   0.669  31.734  0.00  0.00     0.007 A 
ENDROOT
BRANCH   1  10
ATOM     10  N   UNL d   1      59.425   0.636  29.671  0.00  0.00    -0.183 NA
ATOM     11  C   UNL d   1      59.583  -0.048  29.238  0.00  0.00     0.281 C 
ATOM     12  O   UNL d   1      60.190  -0.054  28.684  0.00  0.00    -0.265 OA
BRANCH  11  13
ATOM     13  C   UNL d   1      59.131  -0.727  29.363  0.00  0.00     0.058 A 
ATOM     14  C   UNL d   1      59.058  -1.494  29.657  0.00  0.00     0.005 A 
ATOM     15  C   UNL d   1      58.420  -1.133  29.283  0.00  0.00     0.005 A 
ENDBRANCH  11  13
ENDBRANCH   1  10
BRANCH   6  16
ATOM     16  C   UNL d   1      56.836   0.654  33.134  0.00  0.00     0.296 C 
ATOM     17  O   UNL d   1      56.037   0.626  33.304  0.00  0.00    -0.259 OA
BRANCH  16  18
ATOM     18  O   UNL d   1      57.396   0.681  33.748  0.00  0.00    -0.296 OA
ATOM     19  C   UNL d   1      57.143   0.646  34.528  0.00  0.00     0.185 C 
ENDBRANCH  16  18
ENDBRANCH   6  16
TORSDOF 4
ENDMDL
MODEL 5
REMARK VINA RESULT:      -1.6      9.419     10.161
REMARK  4 active torsions:
REMARK  status: ('A' for Active; 'I' for Inactive)
REMARK    1  A    between atoms: N_3  and  C_1 
REMARK       I    between atoms: C_5  and  N_3 
REMARK    2  A    between atoms: C_7  and  C_5 
REMARK    3  A    between atoms: C_9  and  C_12 
REMARK    4  A    between atoms: O_18  and  C_9 
ROOT
ATOM      1  C   UNL d   1      60.103  -9.273  34.555  0.00  0.00     0.197 A 
ATOM      2  N   UNL d   1      59.304  -9.491  34.656  0.00  0.00    -0.221 NA
ATOM      3  S   UNL d   1      60.250  -9.223  33.746  0.00  0.00    -0.047 SA
ATOM      4  C   UNL d   1      59.555  -9.407  33.337  0.00  0.00     0.050 A 
ATOM      5  C   UNL d   1      58.965  -9.574  33.904  0.00  0.00     0.090 A 
ATOM      6  C   UNL d   1      58.621  -9.648  32.296  0.00  0.00     0.064 A 
ATOM      7  C   UNL d   1      59.377  -9.446  32.533  0.00  0.00     0.013 A 
ATOM      8  C   UNL d   1      58.209  -9.776  33.655  0.00  0.00     0.020 A 
ATOM      9  C   UNL d   1      58.032  -9.815  32.863  0.00  0.00     0.007 A 
ENDROOT
BRANCH   1  10
ATOM     10  N   UNL d   1      60.647  -9.133  35.162  0.00  0.00    -0.183 NA
ATOM     11  C   UNL d   1      60.562  -8.472  35.649  0.00  0.00     0.281 C 
ATOM     12  O   UNL d   1      61.103  -8.332  36.252  0.00  0.00    -0.265 OA
BRANCH  11  13
ATOM     13  C   UNL d   1      59.933  -7.951  35.529  0.00  0.00     0.058 A 
ATOM     14  C   UNL d   1      59.161  -7.712  35.694  0.00  0.00     0.005 A 
ATOM     15  C   UNL d   1      59.618  -7.289  35.156  0.00  0.00     0.005 A 
ENDBRANCH  11  13
ENDBRANCH   1  10
BRANCH   6  16
ATOM     16  C   UNL d   1      58.429  -9.690  31.493  0.00  0.00     0.296 C 
ATOM     17  O   UNL d   1      57.649  -9.654  31.249  0.00  0.00    -0.259 OA
BRANCH  16  18
ATOM     18  O   UNL d   1      59.040  -9.770  30.935  0.00  0.00    -0.296 OA
ATOM     19  C   UNL d   1      58.885  -9.633  30.141  0.00  0.00     0.185 C 
ENDBRANCH  16  18
ENDBRANCH   6  16
TORSDOF 4
ENDMDL
