MODEL 1
REMARK VINA RESULT:      14.0      0.000      0.000
REMARK  1 active torsions:
REMARK  status: ('A' for Active; 'I' for Inactive)
REMARK       I    between atoms: C_8  and  N_9 
REMARK    1  A    between atoms: N_9  and  C_10 
ROOT
ATOM      1  C   UNL d   1      45.010 -14.722  44.193  0.00  0.00     0.102 A 
ATOM      2  O   UNL d   1      44.436 -14.259  43.817  0.00  0.00    -0.307 OA
ATOM      3  C   UNL d   1      45.653 -14.247  44.384  0.00  0.00     0.025 A 
ATOM      4  C   UNL d   1      45.480 -13.479  44.125  0.00  0.00     0.025 A 
ATOM      5  C   UNL d   1      44.735 -13.488  43.779  0.00  0.00     0.100 A 
ATOM      6  C   UNL d   1      45.020 -15.523  44.382  0.00  0.00     0.044 A 
ATOM      7  C   UNL d   1      46.306 -14.566  44.763  0.00  0.00     0.004 A 
ATOM      8  C   UNL d   1      45.671 -15.850  44.763  0.00  0.00     0.087 A 
ATOM      9  C   UNL d   1      46.319 -15.368  44.955  0.00  0.00     0.019 A 
ATOM     10  C   UNL d   1      45.912 -12.770  44.164  0.00  0.00     0.002 A 
ATOM     11  C   UNL d   1      44.414 -12.793  43.468  0.00  0.00     0.025 A 
ATOM     12  C   UNL d   1      45.592 -12.080  43.854  0.00  0.00     0.000 A 
ATOM     13  C   UNL d   1      44.841 -12.091  43.505  0.00  0.00     0.002 A 
ENDROOT
BRANCH   8  14
ATOM     14  N   UNL d   1      45.684 -16.652  44.954  0.00  0.00    -0.208 NA
ATOM     15  C   UNL d   1      45.909 -17.209  44.389  0.00  0.00     0.279 C 
ATOM     16  O   UNL d   1      46.122 -16.959  43.630  0.00  0.00    -0.265 OA
ATOM     17  C   UNL d   1      45.923 -18.016  44.579  0.00  0.00     0.068 C 
ENDBRANCH   8  14
TORSDOF 1
ENDMDL
MODEL 2
REMARK VINA RESULT:      14.9      1.726      4.783
REMARK  1 active torsions:
REMARK  status: ('A' for Active; 'I' for Inactive)
REMARK       I    between atoms: C_8  and  N_9 
REMARK    1  A    between atoms: N_9  and  C_10 
ROOT
ATOM      1  C   UNL d   1      46.292 -17.661  43.345  0.00  0.00     0.102 A 
ATOM      2  O   UNL d   1      46.462 -17.877  42.565  0.00  0.00    -0.307 OA
ATOM      3  C   UNL d   1      46.222 -18.342  43.801  0.00  0.00     0.025 A 
ATOM      4  C   UNL d   1      46.350 -18.989  43.301  0.00  0.00     0.025 A 
ATOM      5  C   UNL d   1      46.497 -18.703  42.545  0.00  0.00     0.100 A 
ATOM      6  C   UNL d   1      46.193 -16.922  43.693  0.00  0.00     0.044 A 
ATOM      7  C   UNL d   1      46.053 -18.289  44.602  0.00  0.00     0.004 A 
ATOM      8  C   UNL d   1      46.023 -16.861  44.495  0.00  0.00     0.087 A 
ATOM      9  C   UNL d   1      45.953 -17.549  44.953  0.00  0.00     0.019 A 
ATOM     10  C   UNL d   1      46.350 -19.809  43.443  0.00  0.00     0.002 A 
ATOM     11  C   UNL d   1      46.645 -19.229  41.925  0.00  0.00     0.025 A 
ATOM     12  C   UNL d   1      46.498 -20.330  42.826  0.00  0.00     0.000 A 
ATOM     13  C   UNL d   1      46.645 -20.040  42.065  0.00  0.00     0.002 A 
ENDROOT
BRANCH   8  14
ATOM     14  N   UNL d   1      45.923 -16.121  44.846  0.00  0.00    -0.208 NA
ATOM     15  C   UNL d   1      45.308 -15.627  44.603  0.00  0.00     0.279 C 
ATOM     16  O   UNL d   1      44.793 -15.879  44.007  0.00  0.00    -0.265 OA
ATOM     17  C   UNL d   1      45.206 -14.884  44.955  0.00  0.00     0.068 C 
ENDBRANCH   8  14
TORSDOF 1
ENDMDL
MODEL 3
REMARK VINA RESULT:      16.9      4.701      5.821
REMARK  1 active torsions:
REMARK  status: ('A' for Active; 'I' for Inactive)
REMARK       I    between atoms: C_8  and  N_9 
REMARK    1  A    between atoms: N_9  and  C_10 
ROOT
ATOM      1  C   UNL d   1      46.582 -18.611  42.421  0.00  0.00     0.102 A 
ATOM      2  O   UNL d   1      46.555 -18.273  43.176  0.00  0.00    -0.307 OA
ATOM      3  C   UNL d   1      46.610 -19.430  42.497  0.00  0.00     0.025 A 
ATOM      4  C   UNL d   1      46.600 -19.605  43.306  0.00  0.00     0.025 A 
ATOM      5  C   UNL d   1      46.566 -18.896  43.721  0.00  0.00     0.100 A 
ATOM      6  C   UNL d   1      46.585 -18.267  41.674  0.00  0.00     0.044 A 
ATOM      7  C   UNL d   1      46.640 -19.907  41.830  0.00  0.00     0.004 A 
ATOM      8  C   UNL d   1      46.615 -18.738  41.001  0.00  0.00     0.087 A 
ATOM      9  C   UNL d   1      46.643 -19.564  41.080  0.00  0.00     0.019 A 
ATOM     10  C   UNL d   1      46.617 -20.327  43.718  0.00  0.00     0.002 A 
ATOM     11  C   UNL d   1      46.549 -18.901  44.547  0.00  0.00     0.025 A 
ATOM     12  C   UNL d   1      46.600 -20.330  44.539  0.00  0.00     0.000 A 
ATOM     13  C   UNL d   1      46.566 -19.615  44.955  0.00  0.00     0.002 A 
ENDROOT
BRANCH   8  14
ATOM     14  N   UNL d   1      46.618 -18.396  40.251  0.00  0.00    -0.208 NA
ATOM     15  C   UNL d   1      45.928 -18.062  39.945  0.00  0.00     0.279 C 
ATOM     16  O   UNL d   1      45.235 -18.072  40.396  0.00  0.00    -0.265 OA
ATOM     17  C   UNL d   1      45.929 -17.717  39.192  0.00  0.00     0.068 C 
ENDBRANCH   8  14
TORSDOF 1
ENDMDL
