MODEL 1
REMARK VINA RESULT:      -6.3      0.000      0.000
REMARK  1 active torsions:
REMARK  status: ('A' for Active; 'I' for Inactive)
REMARK    1  A    between atoms: C_6  and  C_1 
ROOT
ATOM      1  C   UNL d   1     -41.595-122.622 -53.166  0.00  0.00     0.162 A 
ATOM      2  N   UNL d   1     -41.510-123.339 -52.835  0.00  0.00    -0.225 NA
ATOM      3  N   UNL d   1     -41.509-122.057 -52.566  0.00  0.00    -0.225 NA
ATOM      4  C   UNL d   1     -41.371-123.260 -52.032  0.00  0.00     0.101 A 
ATOM      5  C   UNL d   1     -41.371-122.452 -51.862  0.00  0.00     0.101 A 
ATOM      6  C   UNL d   1     -41.252-123.810 -51.467  0.00  0.00     0.021 A 
ATOM      7  C   UNL d   1     -41.250-122.207 -51.130  0.00  0.00     0.021 A 
ATOM      8  C   UNL d   1     -41.123-123.543 -50.687  0.00  0.00     0.002 A 
ATOM      9  C   UNL d   1     -41.123-122.735 -50.517  0.00  0.00     0.002 A 
ENDROOT
BRANCH   1  10
ATOM     10  C   UNL d   1     -41.731-122.411 -53.896  0.00  0.00     0.036 A 
ATOM     11  C   UNL d   1     -41.246-122.695 -54.499  0.00  0.00     0.005 A 
ATOM     12  C   UNL d   1     -41.398-122.463 -55.292  0.00  0.00     0.021 A 
ATOM     13  C   UNL d   1     -42.051-121.942 -55.436  0.00  0.00     0.103 A 
ATOM     14  C   UNL d   1     -42.513-121.675 -54.844  0.00  0.00     0.021 A 
ATOM     15  N   UNL d   1     -42.246-121.681 -56.208  0.00  0.00    -0.148 N 
ATOM     16  C   UNL d   1     -42.361-121.907 -54.051  0.00  0.00     0.005 A 
ENDBRANCH   1  10
TORSDOF 1
ENDMDL
MODEL 2
REMARK VINA RESULT:      -6.3      0.881      3.713
REMARK  1 active torsions:
REMARK  status: ('A' for Active; 'I' for Inactive)
REMARK    1  A    between atoms: C_6  and  C_1 
ROOT
ATOM      1  C   UNL d   1     -41.492-122.516 -52.908  0.00  0.00     0.162 A 
ATOM      2  N   UNL d   1     -41.127-122.855 -53.527  0.00  0.00    -0.225 NA
ATOM      3  N   UNL d   1     -42.052-121.983 -53.209  0.00  0.00    -0.225 NA
ATOM      4  C   UNL d   1     -41.432-122.559 -54.226  0.00  0.00     0.101 A 
ATOM      5  C   UNL d   1     -42.015-122.010 -54.026  0.00  0.00     0.101 A 
ATOM      6  C   UNL d   1     -41.250-122.724 -54.986  0.00  0.00     0.021 A 
ATOM      7  C   UNL d   1     -42.407-121.633 -54.588  0.00  0.00     0.021 A 
ATOM      8  C   UNL d   1     -41.671-122.319 -55.582  0.00  0.00     0.002 A 
ATOM      9  C   UNL d   1     -42.254-121.769 -55.381  0.00  0.00     0.002 A 
ENDROOT
BRANCH   1  10
ATOM     10  C   UNL d   1     -41.400-122.612 -52.148  0.00  0.00     0.036 A 
ATOM     11  C   UNL d   1     -41.222-121.960 -51.674  0.00  0.00     0.005 A 
ATOM     12  C   UNL d   1     -41.123-122.069 -50.848  0.00  0.00     0.021 A 
ATOM     13  C   UNL d   1     -41.211-122.852 -50.535  0.00  0.00     0.103 A 
ATOM     14  C   UNL d   1     -41.384-123.473 -51.003  0.00  0.00     0.021 A 
ATOM     15  N   UNL d   1     -41.123-123.014 -49.718  0.00  0.00    -0.148 N 
ATOM     16  C   UNL d   1     -41.483-123.365 -51.830  0.00  0.00     0.005 A 
ENDBRANCH   1  10
TORSDOF 1
ENDMDL
MODEL 3
REMARK VINA RESULT:      -5.8      0.918      3.749
REMARK  1 active torsions:
REMARK  status: ('A' for Active; 'I' for Inactive)
REMARK    1  A    between atoms: C_6  and  C_1 
ROOT
ATOM      1  C   UNL d   1     -41.688-122.634 -52.829  0.00  0.00     0.162 A 
ATOM      2  N   UNL d   1     -42.132-122.074 -53.175  0.00  0.00    -0.225 NA
ATOM      3  N   UNL d   1     -41.296-123.050 -53.430  0.00  0.00    -0.225 NA
ATOM      4  C   UNL d   1     -42.043-122.110 -53.988  0.00  0.00     0.101 A 
ATOM      5  C   UNL d   1     -41.516-122.725 -54.149  0.00  0.00     0.101 A 
ATOM      6  C   UNL d   1     -42.369-121.670 -54.568  0.00  0.00     0.021 A 
ATOM      7  C   UNL d   1     -41.323-122.891 -54.888  0.00  0.00     0.021 A 
ATOM      8  C   UNL d   1     -42.160-121.851 -55.356  0.00  0.00     0.002 A 
ATOM      9  C   UNL d   1     -41.632-122.466 -55.517  0.00  0.00     0.002 A 
ENDROOT
BRANCH   1  10
ATOM     10  C   UNL d   1     -41.588-122.818 -52.086  0.00  0.00     0.036 A 
ATOM     11  C   UNL d   1     -41.380-123.590 -51.882  0.00  0.00     0.005 A 
ATOM     12  C   UNL d   1     -41.273-123.786 -51.073  0.00  0.00     0.021 A 
ATOM     13  C   UNL d   1     -41.384-123.174 -50.497  0.00  0.00     0.103 A 
ATOM     14  C   UNL d   1     -41.585-122.432 -50.707  0.00  0.00     0.021 A 
ATOM     15  N   UNL d   1     -41.289-123.316 -49.677  0.00  0.00    -0.148 N 
ATOM     16  C   UNL d   1     -41.693-122.236 -51.517  0.00  0.00     0.005 A 
ENDBRANCH   1  10
TORSDOF 1
ENDMDL
MODEL 4
REMARK VINA RESULT:      -5.2      1.480      4.065
REMARK  1 active torsions:
REMARK  status: ('A' for Active; 'I' for Inactive)
REMARK    1  A    between atoms: C_6  and  C_1 
ROOT
ATOM      1  C   UNL d   1     -41.604-122.963 -51.471  0.00  0.00     0.162 A 
ATOM      2  N   UNL d   1     -41.645-122.351 -51.975  0.00  0.00    -0.225 NA
ATOM      3  N   UNL d   1     -41.410-123.638 -51.911  0.00  0.00    -0.225 NA
ATOM      4  C   UNL d   1     -41.483-122.606 -52.736  0.00  0.00     0.101 A 
ATOM      5  C   UNL d   1     -41.335-123.418 -52.695  0.00  0.00     0.101 A 
ATOM      6  C   UNL d   1     -41.455-122.206 -53.426  0.00  0.00     0.021 A 
ATOM      7  C   UNL d   1     -41.162-123.817 -53.345  0.00  0.00     0.021 A 
ATOM      8  C   UNL d   1     -41.270-122.637 -54.117  0.00  0.00     0.002 A 
ATOM      9  C   UNL d   1     -41.123-123.448 -54.076  0.00  0.00     0.002 A 
ENDROOT
BRANCH   1  10
ATOM     10  C   UNL d   1     -41.711-123.001 -50.707  0.00  0.00     0.036 A 
ATOM     11  C   UNL d   1     -41.129-123.340 -50.231  0.00  0.00     0.005 A 
ATOM     12  C   UNL d   1     -41.249-123.379 -49.401  0.00  0.00     0.021 A 
ATOM     13  C   UNL d   1     -41.972-123.065 -49.088  0.00  0.00     0.103 A 
ATOM     14  C   UNL d   1     -42.527-122.740 -49.559  0.00  0.00     0.021 A 
ATOM     15  N   UNL d   1     -42.142-123.079 -48.268  0.00  0.00    -0.148 N 
ATOM     16  C   UNL d   1     -42.406-122.700 -50.389  0.00  0.00     0.005 A 
ENDBRANCH   1  10
TORSDOF 1
ENDMDL
MODEL 5
REMARK VINA RESULT:      -5.2      1.786      2.876
REMARK  1 active torsions:
REMARK  status: ('A' for Active; 'I' for Inactive)
REMARK    1  A    between atoms: C_6  and  C_1 
ROOT
ATOM      1  C   UNL d   1     -41.618-123.085 -50.534  0.00  0.00     0.162 A 
ATOM      2  N   UNL d   1     -41.127-123.290 -49.945  0.00  0.00    -0.225 NA
ATOM      3  N   UNL d   1     -42.363-122.938 -50.200  0.00  0.00    -0.225 NA
ATOM      4  C   UNL d   1     -41.528-123.281 -49.232  0.00  0.00     0.101 A 
ATOM      5  C   UNL d   1     -42.307-123.059 -49.393  0.00  0.00     0.101 A 
ATOM      6  C   UNL d   1     -41.280-123.444 -48.491  0.00  0.00     0.021 A 
ATOM      7  C   UNL d   1     -42.826-123.003 -48.810  0.00  0.00     0.021 A 
ATOM      8  C   UNL d   1     -41.837-123.382 -47.873  0.00  0.00     0.002 A 
ATOM      9  C   UNL d   1     -42.616-123.160 -48.034  0.00  0.00     0.002 A 
ENDROOT
BRANCH   1  10
ATOM     10  C   UNL d   1     -41.501-123.015 -51.294  0.00  0.00     0.036 A 
ATOM     11  C   UNL d   1     -41.367-122.268 -51.618  0.00  0.00     0.005 A 
ATOM     12  C   UNL d   1     -41.240-122.196 -52.445  0.00  0.00     0.021 A 
ATOM     13  C   UNL d   1     -41.255-122.902 -52.913  0.00  0.00     0.103 A 
ATOM     14  C   UNL d   1     -41.385-123.618 -52.588  0.00  0.00     0.021 A 
ATOM     15  N   UNL d   1     -41.134-122.886 -53.742  0.00  0.00    -0.148 N 
ATOM     16  C   UNL d   1     -41.512-123.690 -51.761  0.00  0.00     0.005 A 
ENDBRANCH   1  10
TORSDOF 1
ENDMDL
