MODEL 1
REMARK VINA RESULT:      21.4      0.000      0.000
REMARK  6 active torsions:
REMARK  status: ('A' for Active; 'I' for Inactive)
REMARK    1  A    between atoms: C_10  and  N_1 
REMARK    2  A    between atoms: S_8  and  C_6 
REMARK    3  A    between atoms: C_13  and  S_8 
REMARK    4  A    between atoms: C_11  and  C_13 
REMARK    5  A    between atoms: O_18  and  C_11 
REMARK    6  A    between atoms: C_23  and  O_18 
ROOT
ATOM      1  N   UNL d   1      45.875 -17.020  44.155  0.00  0.00    -0.193 N 
ATOM      2  N   UNL d   1      45.419 -16.906  44.823  0.00  0.00    -0.058 NA
ATOM      3  C   UNL d   1      46.083 -16.280  43.866  0.00  0.00     0.188 A 
ATOM      4  C   UNL d   1      45.748 -15.716  44.365  0.00  0.00     0.164 A 
ATOM      5  N   UNL d   1      45.339 -16.117  44.954  0.00  0.00    -0.125 NA
ATOM      6  C   UNL d   1      45.856 -14.921  44.222  0.00  0.00     0.135 A 
ATOM      7  N   UNL d   1      46.527 -16.051  43.223  0.00  0.00    -0.203 NA
ATOM      8  N   UNL d   1      46.306 -14.681  43.570  0.00  0.00    -0.216 NA
ATOM      9  C   UNL d   1      46.641 -15.246  43.071  0.00  0.00     0.201 A 
ENDROOT
BRANCH   6  10
ATOM     10  S   UNL d   1      45.521 -14.357  44.721  0.00  0.00    -0.061 SA
BRANCH  10  11
ATOM     11  C   UNL d   1      45.636 -13.563  44.582  0.00  0.00     0.094 C 
ATOM     12  C   UNL d   1      46.291 -13.189  44.903  0.00  0.00     0.013 C 
BRANCH  11  13
ATOM     13  C   UNL d   1      45.094 -13.145  44.121  0.00  0.00     0.306 C 
ATOM     14  O   UNL d   1      44.288 -13.230  44.240  0.00  0.00    -0.258 OA
BRANCH  13  15
ATOM     15  O   UNL d   1      45.374 -12.634  43.533  0.00  0.00    -0.271 OA
BRANCH  15  16
ATOM     16  C   UNL d   1      44.847 -12.139  43.135  0.00  0.00     0.126 C 
ATOM     17  C   UNL d   1      44.645 -12.299  42.347  0.00  0.00     0.029 C 
ENDBRANCH  15  16
ENDBRANCH  13  15
ENDBRANCH  11  13
ENDBRANCH  10  11
ENDBRANCH   6  10
BRANCH   1  18
ATOM     18  C   UNL d   1      46.067 -17.756  43.862  0.00  0.00     0.086 A 
ATOM     19  C   UNL d   1      46.043 -18.417  44.357  0.00  0.00     0.022 A 
ATOM     20  C   UNL d   1      46.236 -19.164  44.064  0.00  0.00     0.031 A 
ATOM     21  C   UNL d   1      46.453 -19.257  43.283  0.00  0.00     0.140 A 
ATOM     22  C   UNL d   1      46.478 -18.597  42.787  0.00  0.00     0.031 A 
ATOM     23  F   UNL d   1      46.646 -20.040  43.014  0.00  0.00    -0.204 F 
ATOM     24  C   UNL d   1      46.287 -17.849  43.069  0.00  0.00     0.022 A 
ENDBRANCH   1  18
TORSDOF 6
ENDMDL
