MODEL 1
REMARK VINA RESULT:      -6.8      0.000      0.000
REMARK  4 active torsions:
REMARK  status: ('A' for Active; 'I' for Inactive)
REMARK    1  A    between atoms: C_2  and  S_1 
REMARK    2  A    between atoms: N_3  and  S_1 
REMARK    3  A    between atoms: C_4  and  N_3 
REMARK    4  A    between atoms: O_12  and  C_10 
ROOT
ATOM      1  N   UNL d   1     -47.753  14.032  22.379  0.00  0.00    -0.156 NA
ENDROOT
BRANCH   1   2
ATOM      2  S   UNL d   1     -48.538  14.348  22.522  0.00  0.00     0.291 S 
ATOM      3  O   UNL d   1     -48.826  13.904  21.884  0.00  0.00    -0.198 OA
ATOM      4  O   UNL d   1     -48.244  14.790  23.159  0.00  0.00    -0.198 OA
BRANCH   2   5
ATOM      5  C   UNL d   1     -49.296  14.653  22.660  0.00  0.00     0.135 A 
ATOM      6  S   UNL d   1     -50.026  14.413  22.390  0.00  0.00    -0.073 SA
ATOM      7  C   UNL d   1     -50.568  14.919  22.706  0.00  0.00     0.036 A 
ATOM      8  C   UNL d   1     -50.191  15.455  23.156  0.00  0.00     0.008 A 
ATOM      9  C   UNL d   1     -49.391  15.316  23.149  0.00  0.00     0.020 A 
ENDBRANCH   2   5
ENDBRANCH   1   2
BRANCH   1  10
ATOM     10  C   UNL d   1     -47.497  13.331  22.802  0.00  0.00     0.116 A 
ATOM     11  C   UNL d   1     -46.659  13.121  22.816  0.00  0.00     0.112 A 
ATOM     12  C   UNL d   1     -46.402  12.490  23.192  0.00  0.00     0.026 A 
ATOM     13  C   UNL d   1     -46.929  11.989  23.597  0.00  0.00     0.002 A 
ATOM     14  C   UNL d   1     -47.733  12.168  23.598  0.00  0.00     0.002 A 
ATOM     15  C   UNL d   1     -48.012  12.848  23.193  0.00  0.00     0.022 A 
BRANCH  11  16
ATOM     16  O   UNL d   1     -46.087  13.599  22.419  0.00  0.00    -0.327 OA
ATOM     17  C   UNL d   1     -45.356  13.308  22.244  0.00  0.00     0.181 C 
ENDBRANCH  11  16
ENDBRANCH   1  10
TORSDOF 4
ENDMDL
MODEL 2
REMARK VINA RESULT:      -6.7      1.690      1.997
REMARK  4 active torsions:
REMARK  status: ('A' for Active; 'I' for Inactive)
REMARK    1  A    between atoms: C_2  and  S_1 
REMARK    2  A    between atoms: N_3  and  S_1 
REMARK    3  A    between atoms: C_4  and  N_3 
REMARK    4  A    between atoms: O_12  and  C_10 
ROOT
ATOM      1  N   UNL d   1     -48.386  12.180  23.016  0.00  0.00    -0.156 NA
ENDROOT
BRANCH   1   2
ATOM      2  S   UNL d   1     -49.121  12.476  22.688  0.00  0.00     0.291 S 
ATOM      3  O   UNL d   1     -49.325  12.781  23.433  0.00  0.00    -0.198 OA
ATOM      4  O   UNL d   1     -48.913  12.170  21.946  0.00  0.00    -0.198 OA
BRANCH   2   5
ATOM      5  C   UNL d   1     -49.832  12.763  22.370  0.00  0.00     0.135 A 
ATOM      6  S   UNL d   1     -50.040  12.941  21.603  0.00  0.00    -0.073 SA
ATOM      7  C   UNL d   1     -50.805  13.198  21.625  0.00  0.00     0.036 A 
ATOM      8  C   UNL d   1     -51.062  13.181  22.377  0.00  0.00     0.008 A 
ATOM      9  C   UNL d   1     -50.476  12.913  22.870  0.00  0.00     0.020 A 
ENDBRANCH   2   5
ENDBRANCH   1   2
BRANCH   1  10
ATOM     10  C   UNL d   1     -47.691  12.682  23.013  0.00  0.00     0.116 A 
ATOM     11  C   UNL d   1     -46.926  12.356  23.253  0.00  0.00     0.112 A 
ATOM     12  C   UNL d   1     -46.281  12.790  23.259  0.00  0.00     0.026 A 
ATOM     13  C   UNL d   1     -46.302  13.591  23.033  0.00  0.00     0.002 A 
ATOM     14  C   UNL d   1     -47.019  13.925  22.801  0.00  0.00     0.002 A 
ATOM     15  C   UNL d   1     -47.716  13.458  22.794  0.00  0.00     0.022 A 
BRANCH  11  16
ATOM     16  O   UNL d   1     -46.857  11.549  23.490  0.00  0.00    -0.327 OA
ATOM     17  C   UNL d   1     -46.141  11.241  23.697  0.00  0.00     0.181 C 
ENDBRANCH  11  16
ENDBRANCH   1  10
TORSDOF 4
ENDMDL
MODEL 3
REMARK VINA RESULT:      -6.5      1.269      3.550
REMARK  4 active torsions:
REMARK  status: ('A' for Active; 'I' for Inactive)
REMARK    1  A    between atoms: C_2  and  S_1 
REMARK    2  A    between atoms: N_3  and  S_1 
REMARK    3  A    between atoms: C_4  and  N_3 
REMARK    4  A    between atoms: O_12  and  C_10 
ROOT
ATOM      1  N   UNL d   1     -48.736  14.299  23.072  0.00  0.00    -0.156 NA
ENDROOT
BRANCH   1   2
ATOM      2  S   UNL d   1     -47.952  13.961  22.991  0.00  0.00     0.291 S 
ATOM      3  O   UNL d   1     -47.710  14.634  22.571  0.00  0.00    -0.198 OA
ATOM      4  O   UNL d   1     -48.199  13.290  23.411  0.00  0.00    -0.198 OA
BRANCH   2   5
ATOM      5  C   UNL d   1     -47.194  13.632  22.912  0.00  0.00     0.135 A 
ATOM      6  S   UNL d   1     -46.917  12.884  23.077  0.00  0.00    -0.073 SA
ATOM      7  C   UNL d   1     -46.132  12.883  22.891  0.00  0.00     0.036 A 
ATOM      8  C   UNL d   1     -45.928  13.603  22.622  0.00  0.00     0.008 A 
ATOM      9  C   UNL d   1     -46.572  14.096  22.622  0.00  0.00     0.020 A 
ENDBRANCH   2   5
ENDBRANCH   1   2
BRANCH   1  10
ATOM     10  C   UNL d   1     -49.349  14.083  22.513  0.00  0.00     0.116 A 
ATOM     11  C   UNL d   1     -50.141  14.420  22.594  0.00  0.00     0.112 A 
ATOM     12  C   UNL d   1     -50.714  14.239  22.100  0.00  0.00     0.026 A 
ATOM     13  C   UNL d   1     -50.586  13.711  21.470  0.00  0.00     0.002 A 
ATOM     14  C   UNL d   1     -49.839  13.377  21.371  0.00  0.00     0.002 A 
ATOM     15  C   UNL d   1     -49.219  13.570  21.903  0.00  0.00     0.022 A 
BRANCH  11  16
ATOM     16  O   UNL d   1     -50.319  14.960  23.218  0.00  0.00    -0.327 OA
ATOM     17  C   UNL d   1     -51.064  15.253  23.309  0.00  0.00     0.181 C 
ENDBRANCH  11  16
ENDBRANCH   1  10
TORSDOF 4
ENDMDL
