MODEL 1
REMARK VINA RESULT:      -6.2      0.000      0.000
REMARK  2 active torsions:
REMARK  status: ('A' for Active; 'I' for Inactive)
REMARK       I    between atoms: N_2  and  C_1 
REMARK    1  A    between atoms: C_6  and  C_1 
REMARK    2  A    between atoms: C_4  and  N_2 
ROOT
ATOM      1  C   UNL d   1     -41.402-122.904 -52.923  0.00  0.00     0.279 C 
ATOM      2  N   UNL d   1     -41.743-122.248 -53.282  0.00  0.00    -0.204 NA
ATOM      3  O   UNL d   1     -41.123-123.534 -53.389  0.00  0.00    -0.265 OA
ENDROOT
BRANCH   1   4
ATOM      4  C   UNL d   1     -41.335-122.943 -52.102  0.00  0.00     0.058 A 
ATOM      5  C   UNL d   1     -41.189-122.273 -51.667  0.00  0.00     0.006 A 
ATOM      6  C   UNL d   1     -41.123-122.312 -50.846  0.00  0.00     0.012 A 
ATOM      7  C   UNL d   1     -41.201-123.021 -50.449  0.00  0.00     0.058 A 
ATOM      8  C   UNL d   1     -41.353-123.722 -50.893  0.00  0.00     0.012 A 
ATOM      9 CL   UNL d   1     -41.136-123.058 -49.650  0.00  0.00    -0.082 Cl
ATOM     10  C   UNL d   1     -41.420-123.683 -51.715  0.00  0.00     0.006 A 
ENDBRANCH   1   4
BRANCH   2  11
ATOM     11  C   UNL d   1     -41.806-122.218 -54.110  0.00  0.00     0.130 A 
ATOM     12  C   UNL d   1     -42.427-121.911 -54.545  0.00  0.00     0.243 A 
ATOM     13  S   UNL d   1     -42.251-122.000 -55.344  0.00  0.00    -0.044 SA
ATOM     14  O   UNL d   1     -43.116-121.570 -54.228  0.00  0.00    -0.278 OA
ATOM     15  C   UNL d   1     -41.510-122.367 -55.403  0.00  0.00     0.040 A 
ATOM     16  C   UNL d   1     -41.232-122.503 -54.641  0.00  0.00     0.030 A 
ENDBRANCH   2  11
TORSDOF 2
ENDMDL
MODEL 2
REMARK VINA RESULT:      -6.0      2.285      3.740
REMARK  2 active torsions:
REMARK  status: ('A' for Active; 'I' for Inactive)
REMARK       I    between atoms: N_2  and  C_1 
REMARK    1  A    between atoms: C_6  and  C_1 
REMARK    2  A    between atoms: C_4  and  N_2 
ROOT
ATOM      1  C   UNL d   1     -41.601-122.920 -53.172  0.00  0.00     0.279 C 
ATOM      2  N   UNL d   1     -41.492-122.428 -52.522  0.00  0.00    -0.204 NA
ATOM      3  O   UNL d   1     -41.565-123.745 -53.077  0.00  0.00    -0.265 OA
ENDROOT
BRANCH   1   4
ATOM      4  C   UNL d   1     -41.747-122.600 -53.918  0.00  0.00     0.058 A 
ATOM      5  C   UNL d   1     -42.392-122.124 -54.045  0.00  0.00     0.006 A 
ATOM      6  C   UNL d   1     -42.538-121.805 -54.791  0.00  0.00     0.012 A 
ATOM      7  C   UNL d   1     -42.040-121.957 -55.420  0.00  0.00     0.058 A 
ATOM      8  C   UNL d   1     -41.366-122.451 -55.297  0.00  0.00     0.012 A 
ATOM      9 CL   UNL d   1     -42.181-121.646 -56.146  0.00  0.00    -0.082 Cl
ATOM     10  C   UNL d   1     -41.221-122.770 -54.550  0.00  0.00     0.006 A 
ENDBRANCH   1   4
BRANCH   2  11
ATOM     11  C   UNL d   1     -41.345-122.759 -51.774  0.00  0.00     0.130 A 
ATOM     12  C   UNL d   1     -41.260-122.356 -51.067  0.00  0.00     0.243 A 
ATOM     13  S   UNL d   1     -41.123-122.908 -50.472  0.00  0.00    -0.044 SA
ATOM     14  O   UNL d   1     -41.306-121.531 -50.972  0.00  0.00    -0.278 OA
ATOM     15  C   UNL d   1     -41.123-123.662 -50.817  0.00  0.00     0.040 A 
ATOM     16  C   UNL d   1     -41.260-123.572 -51.624  0.00  0.00     0.030 A 
ENDBRANCH   2  11
TORSDOF 2
ENDMDL
MODEL 3
REMARK VINA RESULT:      -5.4      2.393      3.780
REMARK  2 active torsions:
REMARK  status: ('A' for Active; 'I' for Inactive)
REMARK       I    between atoms: N_2  and  C_1 
REMARK    1  A    between atoms: C_6  and  C_1 
REMARK    2  A    between atoms: C_4  and  N_2 
ROOT
ATOM      1  C   UNL d   1     -41.575-122.193 -52.514  0.00  0.00     0.279 C 
ATOM      2  N   UNL d   1     -41.857-122.782 -52.014  0.00  0.00    -0.204 NA
ATOM      3  O   UNL d   1     -41.135-121.561 -52.203  0.00  0.00    -0.265 OA
ENDROOT
BRANCH   1   4
ATOM      4  C   UNL d   1     -41.728-122.226 -53.324  0.00  0.00     0.058 A 
ATOM      5  C   UNL d   1     -42.240-121.700 -53.670  0.00  0.00     0.006 A 
ATOM      6  C   UNL d   1     -42.393-121.733 -54.480  0.00  0.00     0.012 A 
ATOM      7  C   UNL d   1     -42.034-122.293 -54.954  0.00  0.00     0.058 A 
ATOM      8  C   UNL d   1     -41.500-122.843 -54.603  0.00  0.00     0.012 A 
ATOM      9 CL   UNL d   1     -42.182-122.325 -55.742  0.00  0.00    -0.082 Cl
ATOM     10  C   UNL d   1     -41.348-122.811 -53.792  0.00  0.00     0.006 A 
ENDBRANCH   1   4
BRANCH   2  11
ATOM     11  C   UNL d   1     -41.698-122.740 -51.199  0.00  0.00     0.130 A 
ATOM     12  C   UNL d   1     -42.030-123.201 -50.610  0.00  0.00     0.243 A 
ATOM     13  S   UNL d   1     -41.710-122.966 -49.889  0.00  0.00    -0.044 SA
ATOM     14  O   UNL d   1     -42.594-123.802 -50.726  0.00  0.00    -0.278 OA
ATOM     15  C   UNL d   1     -41.173-122.352 -50.035  0.00  0.00     0.040 A 
ATOM     16  C   UNL d   1     -41.164-122.210 -50.846  0.00  0.00     0.030 A 
ENDBRANCH   2  11
TORSDOF 2
ENDMDL
MODEL 4
REMARK VINA RESULT:      -5.1      1.793      2.482
REMARK  2 active torsions:
REMARK  status: ('A' for Active; 'I' for Inactive)
REMARK       I    between atoms: N_2  and  C_1 
REMARK    1  A    between atoms: C_6  and  C_1 
REMARK    2  A    between atoms: C_4  and  N_2 
ROOT
ATOM      1  C   UNL d   1     -41.865-123.275 -50.720  0.00  0.00     0.279 C 
ATOM      2  N   UNL d   1     -41.334-122.781 -51.108  0.00  0.00    -0.204 NA
ATOM      3  O   UNL d   1     -42.327-123.810 -51.157  0.00  0.00    -0.265 OA
ENDROOT
BRANCH   1   4
ATOM      4  C   UNL d   1     -41.942-123.242 -49.899  0.00  0.00     0.058 A 
ATOM      5  C   UNL d   1     -41.355-123.531 -49.418  0.00  0.00     0.006 A 
ATOM      6  C   UNL d   1     -41.433-123.499 -48.597  0.00  0.00     0.012 A 
ATOM      7  C   UNL d   1     -42.097-123.178 -48.248  0.00  0.00     0.058 A 
ATOM      8  C   UNL d   1     -42.711-122.875 -48.742  0.00  0.00     0.012 A 
ATOM      9 CL   UNL d   1     -42.172-123.147 -47.450  0.00  0.00    -0.082 Cl
ATOM     10  C   UNL d   1     -42.634-122.907 -49.563  0.00  0.00     0.006 A 
ENDBRANCH   1   4
BRANCH   2  11
ATOM     11  C   UNL d   1     -41.263-122.820 -51.935  0.00  0.00     0.130 A 
ATOM     12  C   UNL d   1     -41.167-122.192 -52.450  0.00  0.00     0.243 A 
ATOM     13  S   UNL d   1     -41.123-122.492 -53.215  0.00  0.00    -0.044 SA
ATOM     14  O   UNL d   1     -41.124-121.390 -52.232  0.00  0.00    -0.278 OA
ATOM     15  C   UNL d   1     -41.191-123.316 -53.172  0.00  0.00     0.040 A 
ATOM     16  C   UNL d   1     -41.279-123.523 -52.380  0.00  0.00     0.030 A 
ENDBRANCH   2  11
TORSDOF 2
ENDMDL
MODEL 5
REMARK VINA RESULT:      -5.0      2.671      3.973
REMARK  2 active torsions:
REMARK  status: ('A' for Active; 'I' for Inactive)
REMARK       I    between atoms: N_2  and  C_1 
REMARK    1  A    between atoms: C_6  and  C_1 
REMARK    2  A    between atoms: C_4  and  N_2 
ROOT
ATOM      1  C   UNL d   1     -41.510-122.873 -51.245  0.00  0.00     0.279 C 
ATOM      2  N   UNL d   1     -41.941-123.440 -50.835  0.00  0.00    -0.204 NA
ATOM      3  O   UNL d   1     -41.170-122.235 -50.835  0.00  0.00    -0.265 OA
ENDROOT
BRANCH   1   4
ATOM      4  C   UNL d   1     -41.413-122.933 -52.062  0.00  0.00     0.058 A 
ATOM      5  C   UNL d   1     -41.485-122.277 -52.536  0.00  0.00     0.006 A 
ATOM      6  C   UNL d   1     -41.387-122.337 -53.353  0.00  0.00     0.012 A 
ATOM      7  C   UNL d   1     -41.217-123.053 -53.706  0.00  0.00     0.058 A 
ATOM      8  C   UNL d   1     -41.141-123.739 -53.221  0.00  0.00     0.012 A 
ATOM      9 CL   UNL d   1     -41.123-123.111 -54.500  0.00  0.00    -0.082 Cl
ATOM     10  C   UNL d   1     -41.239-123.680 -52.404  0.00  0.00     0.006 A 
ENDBRANCH   1   4
BRANCH   2  11
ATOM     11  C   UNL d   1     -42.034-123.372 -50.012  0.00  0.00     0.130 A 
ATOM     12  C   UNL d   1     -42.706-123.540 -49.578  0.00  0.00     0.243 A 
ATOM     13  S   UNL d   1     -42.545-123.392 -48.785  0.00  0.00    -0.044 SA
ATOM     14  O   UNL d   1     -43.427-123.815 -49.890  0.00  0.00    -0.278 OA
ATOM     15  C   UNL d   1     -41.761-123.127 -48.728  0.00  0.00     0.040 A 
ATOM     16  C   UNL d   1     -41.442-123.114 -49.487  0.00  0.00     0.030 A 
ENDBRANCH   2  11
TORSDOF 2
ENDMDL
MODEL 6
REMARK VINA RESULT:      -3.9      3.700      5.177
REMARK  2 active torsions:
REMARK  status: ('A' for Active; 'I' for Inactive)
REMARK       I    between atoms: N_2  and  C_1 
REMARK    1  A    between atoms: C_6  and  C_1 
REMARK    2  A    between atoms: C_4  and  N_2 
ROOT
ATOM      1  C   UNL d   1     -42.413-122.932 -49.338  0.00  0.00     0.279 C 
ATOM      2  N   UNL d   1     -41.910-123.231 -48.761  0.00  0.00    -0.204 NA
ATOM      3  O   UNL d   1     -43.210-122.781 -49.155  0.00  0.00    -0.265 OA
ENDROOT
BRANCH   1   4
ATOM      4  C   UNL d   1     -42.133-122.781 -50.099  0.00  0.00     0.058 A 
ATOM      5  C   UNL d   1     -42.245-122.054 -50.444  0.00  0.00     0.006 A 
ATOM      6  C   UNL d   1     -41.965-121.903 -51.205  0.00  0.00     0.012 A 
ATOM      7  C   UNL d   1     -41.569-122.476 -51.631  0.00  0.00     0.058 A 
ATOM      8  C   UNL d   1     -41.448-123.234 -51.279  0.00  0.00     0.012 A 
ATOM      9 CL   UNL d   1     -41.296-122.329 -52.370  0.00  0.00    -0.082 Cl
ATOM     10  C   UNL d   1     -41.728-123.386 -50.518  0.00  0.00     0.006 A 
ENDBRANCH   1   4
BRANCH   2  11
ATOM     11  C   UNL d   1     -42.201-123.380 -47.997  0.00  0.00     0.130 A 
ATOM     12  C   UNL d   1     -41.860-123.155 -47.289  0.00  0.00     0.243 A 
ATOM     13  S   UNL d   1     -42.341-123.421 -46.676  0.00  0.00    -0.044 SA
ATOM     14  O   UNL d   1     -41.150-122.730 -47.208  0.00  0.00    -0.278 OA
ATOM     15  C   UNL d   1     -42.988-123.816 -47.011  0.00  0.00     0.040 A 
ATOM     16  C   UNL d   1     -42.904-123.792 -47.829  0.00  0.00     0.030 A 
ENDBRANCH   2  11
TORSDOF 2
ENDMDL
