MODEL 1
REMARK VINA RESULT:      48.7      0.000      0.000
REMARK  6 active torsions:
REMARK  status: ('A' for Active; 'I' for Inactive)
REMARK    1  A    between atoms: N_2  and  S_1 
REMARK    2  A    between atoms: C_6  and  S_1 
REMARK    3  A    between atoms: C_4  and  N_2 
REMARK    4  A    between atoms: C_5  and  C_3 
REMARK    5  A    between atoms: O_12  and  C_5 
REMARK    6  A    between atoms: C_18  and  O_12 
ROOT
ATOM      1  C   UNL d   1     -51.577  24.396  33.693  0.00  0.00     0.082 A 
ATOM      2  C   UNL d   1     -51.022  24.965  33.497  0.00  0.00     0.099 A 
ATOM      3  C   UNL d   1     -51.363  23.599  33.703  0.00  0.00     0.007 A 
ATOM      4  C   UNL d   1     -50.252  24.737  33.310  0.00  0.00     0.020 A 
ATOM      5  C   UNL d   1     -50.594  23.375  33.516  0.00  0.00     0.000 A 
ATOM      6  C   UNL d   1     -50.039  23.944  33.320  0.00  0.00     0.002 A 
ENDROOT
BRANCH   2   7
ATOM      7  N   UNL d   1     -51.231  25.778  33.484  0.00  0.00    -0.158 NA
BRANCH   7   8
ATOM      8  S   UNL d   1     -50.706  26.329  33.795  0.00  0.00     0.285 S 
ATOM      9  O   UNL d   1     -51.312  26.625  34.309  0.00  0.00    -0.198 OA
ATOM     10  O   UNL d   1     -50.102  26.061  33.307  0.00  0.00    -0.198 OA
BRANCH   8  11
ATOM     11  C   UNL d   1     -50.188  26.898  34.124  0.00  0.00     0.105 A 
ATOM     12  C   UNL d   1     -49.745  27.385  33.620  0.00  0.00     0.013 A 
ATOM     13  C   UNL d   1     -49.233  27.947  33.945  0.00  0.00     0.001 A 
ATOM     14  C   UNL d   1     -49.179  28.006  34.766  0.00  0.00     0.000 A 
ATOM     15  C   UNL d   1     -49.615  27.527  35.271  0.00  0.00     0.001 A 
ATOM     16  C   UNL d   1     -48.673  28.561  35.110  0.00  0.00     0.000 C 
ATOM     17  C   UNL d   1     -50.127  26.965  34.946  0.00  0.00     0.013 A 
ENDBRANCH   8  11
ENDBRANCH   7   8
ENDBRANCH   2   7
BRANCH   1  18
ATOM     18  C   UNL d   1     -52.376  24.630  33.886  0.00  0.00     0.302 C 
ATOM     19  O   UNL d   1     -52.560  24.852  34.649  0.00  0.00    -0.259 OA
BRANCH  18  20
ATOM     20  O   UNL d   1     -52.969  24.635  33.306  0.00  0.00    -0.271 OA
BRANCH  20  21
ATOM     21  C   UNL d   1     -53.721  24.318  33.484  0.00  0.00     0.126 C 
ATOM     22  C   UNL d   1     -53.850  23.952  34.201  0.00  0.00     0.029 C 
ENDBRANCH  20  21
ENDBRANCH  18  20
ENDBRANCH   1  18
TORSDOF 6
ENDMDL
