MODEL 1
REMARK VINA RESULT:      -2.3      0.000      0.000
REMARK  3 active torsions:
REMARK  status: ('A' for Active; 'I' for Inactive)
REMARK    1  A    between atoms: C_2  and  C_1 
REMARK    2  A    between atoms: C_3  and  C_1 
REMARK       I    between atoms: N_4  and  C_2 
REMARK    3  A    between atoms: C_6  and  N_4 
ROOT
ATOM      1  C   UNL d   1     -42.154-122.152 -50.892  0.00  0.00     0.150 A 
ATOM      2  O   UNL d   1     -43.774-121.893 -50.688  0.00  0.00    -0.304 OA
ATOM      3  C   UNL d   1     -42.549-121.607 -51.373  0.00  0.00     0.019 A 
ATOM      4  C   UNL d   1     -42.566-122.561 -50.318  0.00  0.00     0.019 A 
ATOM      5  C   UNL d   1     -43.382-122.430 -50.215  0.00  0.00     0.119 A 
ATOM      6  C   UNL d   1     -43.360-121.478 -51.269  0.00  0.00     0.119 A 
ENDROOT
BRANCH   1   7
ATOM      7  C   UNL d   1     -41.737-121.738 -51.474  0.00  0.00     0.315 C 
ATOM      8  N   UNL d   1     -41.770-121.976 -52.263  0.00  0.00    -0.367 NA
ATOM      9  O   UNL d   1     -41.287-121.083 -51.259  0.00  0.00    -0.255 OA
BRANCH   8  10
ATOM     10  C   UNL d   1     -41.799-122.209 -53.051  0.00  0.00     0.135 A 
ATOM     11  C   UNL d   1     -42.189-121.730 -53.580  0.00  0.00     0.032 A 
ATOM     12  C   UNL d   1     -42.220-121.964 -54.384  0.00  0.00     0.003 A 
ATOM     13  C   UNL d   1     -42.616-121.480 -54.927  0.00  0.00     0.000 C 
ATOM     14  C   UNL d   1     -41.872-122.641 -54.611  0.00  0.00     0.000 A 
ATOM     15  C   UNL d   1     -41.484-123.117 -54.083  0.00  0.00     0.003 A 
ATOM     16  C   UNL d   1     -41.450-122.896 -53.301  0.00  0.00     0.032 A 
ATOM     17  C   UNL d   1     -41.126-123.817 -54.325  0.00  0.00     0.000 C 
ENDBRANCH   8  10
ENDBRANCH   1   7
BRANCH   1  18
ATOM     18  C   UNL d   1     -41.756-122.698 -50.412  0.00  0.00     0.024 A 
ATOM     19  S   UNL d   1     -41.522-122.588 -49.623  0.00  0.00    -0.090 SA
ATOM     20  C   UNL d   1     -41.143-123.271 -49.357  0.00  0.00     0.035 A 
ATOM     21  C   UNL d   1     -41.131-123.817 -49.969  0.00  0.00     0.007 A 
ATOM     22  C   UNL d   1     -41.511-123.464 -50.626  0.00  0.00     0.004 A 
ENDBRANCH   1  18
TORSDOF 3
ENDMDL
