MODEL 1
REMARK VINA RESULT:      49.1      0.000      0.000
REMARK  3 active torsions:
REMARK  status: ('A' for Active; 'I' for Inactive)
REMARK    1  A    between atoms: N_5  and  C_1 
REMARK    2  A    between atoms: C_7  and  N_2 
REMARK    3  A    between atoms: C_9  and  C_7 
ROOT
ATOM      1  C   UNL d   1     -51.920  25.119  33.654  0.00  0.00     0.720 A 
ATOM      2  N   UNL d   1     -51.130  24.958  33.466  0.00  0.00    -0.139 N 
ATOM      3  N   UNL d   1     -51.994  25.934  33.760  0.00  0.00    -0.060 NA
ATOM      4  C   UNL d   1     -50.719  25.678  33.458  0.00  0.00     0.100 A 
ATOM      5  C   UNL d   1     -51.252  26.279  33.639  0.00  0.00     0.116 A 
ATOM      6  C   UNL d   1     -49.926  25.851  33.306  0.00  0.00     0.020 A 
ATOM      7  C   UNL d   1     -50.996  27.060  33.671  0.00  0.00     0.021 A 
ATOM      8  C   UNL d   1     -49.670  26.632  33.338  0.00  0.00     0.002 A 
ATOM      9  C   UNL d   1     -50.203  27.233  33.520  0.00  0.00     0.002 A 
ENDROOT
BRANCH   2  10
ATOM     10  C   UNL d   1     -50.810  24.210  33.313  0.00  0.00     0.098 C 
BRANCH  10  11
ATOM     11  C   UNL d   1     -50.065  24.016  33.616  0.00  0.00     0.018 A 
ATOM     12  C   UNL d   1     -49.995  23.463  34.213  0.00  0.00     0.002 A 
ATOM     13  C   UNL d   1     -49.251  23.272  34.513  0.00  0.00     0.000 A 
ATOM     14  C   UNL d   1     -48.577  23.642  34.208  0.00  0.00     0.000 A 
ATOM     15  C   UNL d   1     -48.657  24.202  33.602  0.00  0.00     0.000 A 
ATOM     16  C   UNL d   1     -49.401  24.389  33.307  0.00  0.00     0.002 A 
ENDBRANCH  10  11
ENDBRANCH   2  10
BRANCH   1  17
ATOM     17  N   UNL d   1     -52.520  24.557  33.720  0.00  0.00    -0.136 N 
ATOM     18  C   UNL d   1     -52.352  23.753  33.634  0.00  0.00     0.119 A 
ATOM     19  C   UNL d   1     -52.953  23.200  33.702  0.00  0.00     0.119 A 
ATOM     20  N   UNL d   1     -53.726  23.443  33.855  0.00  0.00    -0.239 NA
ATOM     21  C   UNL d   1     -53.894  24.246  33.940  0.00  0.00     0.119 A 
ATOM     22  C   UNL d   1     -53.291  24.812  33.874  0.00  0.00     0.119 A 
ENDBRANCH   1  17
TORSDOF 3
ENDMDL
