MODEL 1
REMARK VINA RESULT:      -2.0      0.000      0.000
REMARK  5 active torsions:
REMARK  status: ('A' for Active; 'I' for Inactive)
REMARK    1  A    between atoms: C_2  and  C_1 
REMARK    2  A    between atoms: S_3  and  C_4 
REMARK    3  A    between atoms: C_7  and  S_3 
REMARK    4  A    between atoms: C_5  and  C_7 
REMARK    5  A    between atoms: C_6  and  C_5 
ROOT
ATOM      1  S   UNL d   1      32.163  17.544 -23.581  0.00  0.00    -0.083 SA
ENDROOT
BRANCH   1   2
ATOM      2  C   UNL d   1      32.529  18.226 -23.918  0.00  0.00     0.035 A 
ATOM      3  C   UNL d   1      32.846  18.828 -23.451  0.00  0.00     0.070 A 
ATOM      4  C   UNL d   1      33.194  19.475 -23.795  0.00  0.00     0.007 A 
ATOM      5  C   UNL d   1      33.238  19.547 -24.611  0.00  0.00     0.000 A 
ATOM      6  C   UNL d   1      32.918  18.939 -25.097  0.00  0.00     0.001 A 
ATOM      7  C   UNL d   1      32.567  18.286 -24.721  0.00  0.00     0.007 A 
BRANCH   3   8
ATOM      8  C   UNL d   1      32.809  18.770 -22.635  0.00  0.00     0.211 C 
ATOM      9  O   UNL d   1      32.323  19.311 -22.214  0.00  0.00    -0.644 OA
ATOM     10  O   UNL d   1      33.241  18.191 -22.231  0.00  0.00    -0.644 OA
ENDBRANCH   3   8
ENDBRANCH   1   2
BRANCH   1  11
ATOM     11  C   UNL d   1      31.546  17.209 -23.973  0.00  0.00     0.077 C 
BRANCH  11  12
ATOM     12  C   UNL d   1      31.348  16.410 -23.839  0.00  0.00     0.202 C 
ATOM     13  O   UNL d   1      31.935  15.883 -23.614  0.00  0.00    -0.286 OA
BRANCH  12  14
ATOM     14  C   UNL d   1      30.564  16.191 -23.942  0.00  0.00     0.040 A 
ATOM     15  C   UNL d   1      30.024  16.392 -23.333  0.00  0.00     0.003 A 
ATOM     16  C   UNL d   1      29.232  16.180 -23.420  0.00  0.00     0.000 A 
ATOM     17  C   UNL d   1      28.995  15.793 -24.072  0.00  0.00     0.000 A 
ATOM     18  C   UNL d   1      29.536  15.593 -24.678  0.00  0.00     0.000 A 
ATOM     19  C   UNL d   1      28.182  15.573 -24.164  0.00  0.00     0.000 C 
ATOM     20  C   UNL d   1      30.337  15.812 -24.581  0.00  0.00     0.003 A 
ENDBRANCH  12  14
ENDBRANCH  11  12
ENDBRANCH   1  11
TORSDOF 5
ENDMDL
MODEL 2
REMARK VINA RESULT:      -2.0      1.544      4.357
REMARK  5 active torsions:
REMARK  status: ('A' for Active; 'I' for Inactive)
REMARK    1  A    between atoms: C_2  and  C_1 
REMARK    2  A    between atoms: S_3  and  C_4 
REMARK    3  A    between atoms: C_7  and  S_3 
REMARK    4  A    between atoms: C_5  and  C_7 
REMARK    5  A    between atoms: C_6  and  C_5 
ROOT
ATOM      1  S   UNL d   1      32.107  17.920 -23.841  0.00  0.00    -0.083 SA
ENDROOT
BRANCH   1   2
ATOM      2  C   UNL d   1      31.948  17.091 -23.859  0.00  0.00     0.035 A 
ATOM      3  C   UNL d   1      31.235  16.790 -24.146  0.00  0.00     0.070 A 
ATOM      4  C   UNL d   1      31.101  15.990 -24.154  0.00  0.00     0.007 A 
ATOM      5  C   UNL d   1      31.667  15.463 -23.880  0.00  0.00     0.000 A 
ATOM      6  C   UNL d   1      32.397  15.760 -23.585  0.00  0.00     0.001 A 
ATOM      7  C   UNL d   1      32.511  16.584 -23.587  0.00  0.00     0.007 A 
BRANCH   3   8
ATOM      8  C   UNL d   1      30.660  17.303 -24.423  0.00  0.00     0.211 C 
ATOM      9  O   UNL d   1      30.831  17.775 -25.097  0.00  0.00    -0.644 OA
ATOM     10  O   UNL d   1      29.924  17.357 -24.049  0.00  0.00    -0.644 OA
ENDBRANCH   3   8
ENDBRANCH   1   2
BRANCH   1  11
ATOM     11  C   UNL d   1      32.700  18.184 -23.365  0.00  0.00     0.077 C 
BRANCH  11  12
ATOM     12  C   UNL d   1      33.006  18.953 -23.465  0.00  0.00     0.202 C 
ATOM     13  O   UNL d   1      33.238  19.200 -24.212  0.00  0.00    -0.286 OA
BRANCH  12  14
ATOM     14  C   UNL d   1      33.060  19.429 -22.798  0.00  0.00     0.040 A 
ATOM     15  C   UNL d   1      32.971  20.256 -22.905  0.00  0.00     0.003 A 
ATOM     16  C   UNL d   1      33.022  20.748 -22.245  0.00  0.00     0.000 A 
ATOM     17  C   UNL d   1      33.153  20.436 -21.527  0.00  0.00     0.000 A 
ATOM     18  C   UNL d   1      33.241  19.610 -21.423  0.00  0.00     0.000 A 
ATOM     19  C   UNL d   1      33.206  20.939 -20.847  0.00  0.00     0.000 C 
ATOM     20  C   UNL d   1      33.188  19.119 -22.097  0.00  0.00     0.003 A 
ENDBRANCH  12  14
ENDBRANCH  11  12
ENDBRANCH   1  11
TORSDOF 5
ENDMDL
MODEL 3
REMARK VINA RESULT:      -0.2      5.003      7.321
REMARK  5 active torsions:
REMARK  status: ('A' for Active; 'I' for Inactive)
REMARK    1  A    between atoms: C_2  and  C_1 
REMARK    2  A    between atoms: S_3  and  C_4 
REMARK    3  A    between atoms: C_7  and  S_3 
REMARK    4  A    between atoms: C_5  and  C_7 
REMARK    5  A    between atoms: C_6  and  C_5 
ROOT
ATOM      1  S   UNL d   1      32.199  22.347 -20.595  0.00  0.00    -0.083 SA
ENDROOT
BRANCH   1   2
ATOM      2  C   UNL d   1      32.526  22.278 -21.370  0.00  0.00     0.035 A 
ATOM      3  C   UNL d   1      32.658  21.544 -21.724  0.00  0.00     0.070 A 
ATOM      4  C   UNL d   1      32.973  21.498 -22.470  0.00  0.00     0.007 A 
ATOM      5  C   UNL d   1      33.168  22.177 -22.889  0.00  0.00     0.000 A 
ATOM      6  C   UNL d   1      33.037  22.930 -22.537  0.00  0.00     0.001 A 
ATOM      7  C   UNL d   1      32.713  22.951 -21.771  0.00  0.00     0.007 A 
BRANCH   3   8
ATOM      8  C   UNL d   1      32.469  20.858 -21.318  0.00  0.00     0.211 C 
ATOM      9  O   UNL d   1      33.090  20.344 -21.084  0.00  0.00    -0.644 OA
ATOM     10  O   UNL d   1      31.681  20.674 -21.142  0.00  0.00    -0.644 OA
ENDBRANCH   3   8
ENDBRANCH   1   2
BRANCH   1  11
ATOM     11  C   UNL d   1      32.509  22.899 -20.097  0.00  0.00     0.077 C 
BRANCH  11  12
ATOM     12  C   UNL d   1      32.041  23.228 -19.492  0.00  0.00     0.202 C 
ATOM     13  O   UNL d   1      31.303  23.536 -19.677  0.00  0.00    -0.286 OA
BRANCH  12  14
ATOM     14  C   UNL d   1      32.349  23.227 -18.731  0.00  0.00     0.040 A 
ATOM     15  C   UNL d   1      32.011  22.696 -18.178  0.00  0.00     0.003 A 
ATOM     16  C   UNL d   1      32.309  22.682 -17.409  0.00  0.00     0.000 A 
ATOM     17  C   UNL d   1      32.905  23.166 -17.206  0.00  0.00     0.000 A 
ATOM     18  C   UNL d   1      33.241  23.695 -17.760  0.00  0.00     0.000 A 
ATOM     19  C   UNL d   1      33.213  23.154 -16.418  0.00  0.00     0.000 C 
ATOM     20  C   UNL d   1      32.932  23.702 -18.537  0.00  0.00     0.003 A 
ENDBRANCH  12  14
ENDBRANCH  11  12
ENDBRANCH   1  11
TORSDOF 5
ENDMDL
