MODEL 1
REMARK VINA RESULT:      -3.5      0.000      0.000
REMARK  2 active torsions:
REMARK  status: ('A' for Active; 'I' for Inactive)
REMARK    1  A    between atoms: C_9  and  C_3 
REMARK    2  A    between atoms: C_12  and  N_4 
ROOT
ATOM      1  C   UNL d   1      58.670   0.043  30.425  0.00  0.00     0.035 A 
ATOM      2  C   UNL d   1      58.311   0.143  31.161  0.00  0.00     0.065 A 
ATOM      3  C   UNL d   1      58.114  -0.274  29.914  0.00  0.00     0.166 A 
ATOM      4  N   UNL d   1      57.533  -0.116  31.098  0.00  0.00    -0.233 N 
ATOM      5  N   UNL d   1      57.413  -0.373  30.327  0.00  0.00    -0.159 NA
ATOM      6  C   UNL d   1      58.947   0.411  31.414  0.00  0.00     0.057 A 
ATOM      7  C   UNL d   1      59.381   0.332  30.665  0.00  0.00    -0.020 A 
ATOM      8  C   UNL d   1      60.060   0.447  30.333  0.00  0.00     0.027 A 
ATOM      9  C   UNL d   1      59.153   0.681  32.135  0.00  0.00    -0.021 A 
ATOM     10  C   UNL d   1      59.498   0.596  31.465  0.00  0.00    -0.008 A 
ATOM     11  C   UNL d   1      58.499   0.443  32.010  0.00  0.00     0.011 C 
ATOM     12  C   UNL d   1      60.173   0.276  29.613  0.00  0.00     0.005 C 
ATOM     13  C   UNL d   1      60.772   0.680  30.380  0.00  0.00     0.005 C 
ENDROOT
BRANCH   4  14
ATOM     14  C   UNL d   1      56.959  -0.117  31.717  0.00  0.00     0.083 A 
ATOM     15  C   UNL d   1      56.752  -0.849  32.095  0.00  0.00     0.019 A 
ATOM     16  C   UNL d   1      56.181  -0.845  32.710  0.00  0.00     0.002 A 
ATOM     17  C   UNL d   1      55.818  -0.127  32.950  0.00  0.00     0.000 A 
ATOM     18  C   UNL d   1      56.028   0.604  32.568  0.00  0.00     0.002 A 
ATOM     19  C   UNL d   1      56.600   0.597  31.953  0.00  0.00     0.019 A 
ENDBRANCH   4  14
BRANCH   3  20
ATOM     20  C   UNL d   1      58.244  -0.465  29.105  0.00  0.00     0.231 C 
ATOM     21  O   UNL d   1      58.587  -1.207  28.886  0.00  0.00    -0.643 OA
ATOM     22  O   UNL d   1      58.028   0.093  28.506  0.00  0.00    -0.643 OA
ENDBRANCH   3  20
TORSDOF 2
ENDMDL
MODEL 2
REMARK VINA RESULT:      -2.2      1.179      1.678
REMARK  2 active torsions:
REMARK  status: ('A' for Active; 'I' for Inactive)
REMARK    1  A    between atoms: C_9  and  C_3 
REMARK    2  A    between atoms: C_12  and  N_4 
ROOT
ATOM      1  C   UNL d   1      58.974  -1.086  29.584  0.00  0.00     0.035 A 
ATOM      2  C   UNL d   1      58.683  -0.495  30.080  0.00  0.00     0.065 A 
ATOM      3  C   UNL d   1      58.482  -1.738  29.652  0.00  0.00     0.166 A 
ATOM      4  N   UNL d   1      58.010  -0.788  30.451  0.00  0.00    -0.233 N 
ATOM      5  N   UNL d   1      57.887  -1.555  30.186  0.00  0.00    -0.159 NA
ATOM      6  C   UNL d   1      59.237  -0.065  29.862  0.00  0.00     0.057 A 
ATOM      7  C   UNL d   1      59.594  -0.645  29.322  0.00  0.00    -0.020 A 
ATOM      8  C   UNL d   1      60.171  -0.758  28.833  0.00  0.00     0.027 A 
ATOM      9  C   UNL d   1      59.433   0.682  30.062  0.00  0.00    -0.021 A 
ATOM     10  C   UNL d   1      59.714   0.149  29.601  0.00  0.00    -0.008 A 
ATOM     11  C   UNL d   1      58.866   0.368  30.343  0.00  0.00     0.011 C 
ATOM     12  C   UNL d   1      60.251  -1.407  28.471  0.00  0.00     0.005 C 
ATOM     13  C   UNL d   1      60.786  -0.501  28.489  0.00  0.00     0.005 C 
ENDROOT
BRANCH   4  14
ATOM     14  C   UNL d   1      57.530  -0.372  31.007  0.00  0.00     0.083 A 
ATOM     15  C   UNL d   1      57.543  -0.601  31.826  0.00  0.00     0.019 A 
ATOM     16  C   UNL d   1      57.064  -0.184  32.376  0.00  0.00     0.002 A 
ATOM     17  C   UNL d   1      56.578   0.451  32.121  0.00  0.00     0.000 A 
ATOM     18  C   UNL d   1      56.569   0.677  31.300  0.00  0.00     0.002 A 
ATOM     19  C   UNL d   1      57.048   0.259  30.753  0.00  0.00     0.019 A 
ENDBRANCH   4  14
BRANCH   3  20
ATOM     20  C   UNL d   1      58.574  -2.467  29.243  0.00  0.00     0.231 C 
ATOM     21  O   UNL d   1      58.962  -3.123  29.611  0.00  0.00    -0.643 OA
ATOM     22  O   UNL d   1      58.274  -2.543  28.455  0.00  0.00    -0.643 OA
ENDBRANCH   3  20
TORSDOF 2
ENDMDL
MODEL 3
REMARK VINA RESULT:      -1.7      1.423      2.182
REMARK  2 active torsions:
REMARK  status: ('A' for Active; 'I' for Inactive)
REMARK    1  A    between atoms: C_9  and  C_3 
REMARK    2  A    between atoms: C_12  and  N_4 
ROOT
ATOM      1  C   UNL d   1      59.073  -0.616  29.666  0.00  0.00     0.035 A 
ATOM      2  C   UNL d   1      58.441  -0.665  30.193  0.00  0.00     0.065 A 
ATOM      3  C   UNL d   1      59.380   0.142  29.708  0.00  0.00     0.166 A 
ATOM      4  N   UNL d   1      58.363   0.067  30.559  0.00  0.00    -0.233 N 
ATOM      5  N   UNL d   1      58.943   0.565  30.258  0.00  0.00    -0.159 NA
ATOM      6  C   UNL d   1      58.348  -1.365  29.989  0.00  0.00     0.057 A 
ATOM      7  C   UNL d   1      59.003  -1.378  29.416  0.00  0.00    -0.020 A 
ATOM      8  C   UNL d   1      59.373  -1.821  28.915  0.00  0.00     0.027 A 
ATOM      9  C   UNL d   1      57.821  -1.915  30.222  0.00  0.00    -0.021 A 
ATOM     10  C   UNL d   1      58.399  -1.887  29.732  0.00  0.00    -0.008 A 
ATOM     11  C   UNL d   1      57.811  -1.263  30.496  0.00  0.00     0.011 C 
ATOM     12  C   UNL d   1      59.951  -1.559  28.520  0.00  0.00     0.005 C 
ATOM     13  C   UNL d   1      59.453  -2.485  28.575  0.00  0.00     0.005 C 
ENDROOT
BRANCH   4  14
ATOM     14  C   UNL d   1      57.787   0.271  31.141  0.00  0.00     0.083 A 
ATOM     15  C   UNL d   1      58.001   0.264  31.964  0.00  0.00     0.019 A 
ATOM     16  C   UNL d   1      57.425   0.467  32.540  0.00  0.00     0.002 A 
ATOM     17  C   UNL d   1      56.646   0.676  32.307  0.00  0.00     0.000 A 
ATOM     18  C   UNL d   1      56.435   0.682  31.482  0.00  0.00     0.002 A 
ATOM     19  C   UNL d   1      57.013   0.478  30.909  0.00  0.00     0.019 A 
ENDBRANCH   4  14
BRANCH   3  20
ATOM     20  C   UNL d   1      60.030   0.434  29.262  0.00  0.00     0.231 C 
ATOM     21  O   UNL d   1      59.931   0.671  28.456  0.00  0.00    -0.643 OA
ATOM     22  O   UNL d   1      60.792   0.491  29.627  0.00  0.00    -0.643 OA
ENDBRANCH   3  20
TORSDOF 2
ENDMDL
MODEL 4
REMARK VINA RESULT:      -1.3      1.060      1.653
REMARK  2 active torsions:
REMARK  status: ('A' for Active; 'I' for Inactive)
REMARK    1  A    between atoms: C_9  and  C_3 
REMARK    2  A    between atoms: C_12  and  N_4 
ROOT
ATOM      1  C   UNL d   1      57.710   0.205  31.680  0.00  0.00     0.035 A 
ATOM      2  C   UNL d   1      57.289   0.251  32.388  0.00  0.00     0.065 A 
ATOM      3  C   UNL d   1      57.187  -0.012  31.088  0.00  0.00     0.166 A 
ATOM      4  N   UNL d   1      56.506   0.062  32.226  0.00  0.00    -0.233 N 
ATOM      5  N   UNL d   1      56.443  -0.101  31.424  0.00  0.00    -0.159 NA
ATOM      6  C   UNL d   1      57.914   0.442  32.725  0.00  0.00     0.057 A 
ATOM      7  C   UNL d   1      58.413   0.411  32.014  0.00  0.00    -0.020 A 
ATOM      8  C   UNL d   1      59.127   0.508  31.759  0.00  0.00     0.027 A 
ATOM      9  C   UNL d   1      58.067   0.615  33.488  0.00  0.00    -0.021 A 
ATOM     10  C   UNL d   1      58.469   0.577  32.846  0.00  0.00    -0.008 A 
ATOM     11  C   UNL d   1      57.414   0.443  33.279  0.00  0.00     0.011 C 
ATOM     12  C   UNL d   1      59.297   0.408  31.037  0.00  0.00     0.005 C 
ATOM     13  C   UNL d   1      59.844   0.680  31.895  0.00  0.00     0.005 C 
ENDROOT
BRANCH   4  14
ATOM     14  C   UNL d   1      55.876   0.038  32.788  0.00  0.00     0.083 A 
ATOM     15  C   UNL d   1      55.789  -0.641  33.292  0.00  0.00     0.019 A 
ATOM     16  C   UNL d   1      55.161  -0.660  33.849  0.00  0.00     0.002 A 
ATOM     17  C   UNL d   1      54.625  -0.017  33.908  0.00  0.00     0.000 A 
ATOM     18  C   UNL d   1      54.716   0.661  33.401  0.00  0.00     0.002 A 
ATOM     19  C   UNL d   1      55.344   0.677  32.846  0.00  0.00     0.019 A 
ENDBRANCH   4  14
BRANCH   3  20
ATOM     20  C   UNL d   1      57.381  -0.124  30.278  0.00  0.00     0.231 C 
ATOM     21  O   UNL d   1      57.521   0.540  29.771  0.00  0.00    -0.643 OA
ATOM     22  O   UNL d   1      57.437  -0.909  29.968  0.00  0.00    -0.643 OA
ENDBRANCH   3  20
TORSDOF 2
ENDMDL
