MODEL 1
REMARK VINA RESULT:      -9.3      0.000      0.000
REMARK  5 active torsions:
REMARK  status: ('A' for Active; 'I' for Inactive)
REMARK    1  A    between atoms: C_9  and  N_1 
REMARK    2  A    between atoms: C_2  and  C_9 
REMARK    3  A    between atoms: S_14  and  C_5 
REMARK    4  A    between atoms: C_12  and  C_16 
REMARK       I    between atoms: N_13  and  C_12 
REMARK    5  A    between atoms: C_16  and  S_14 
ROOT
ATOM      1  C   UNL d   1      51.784  33.592  52.917  0.00  0.00     0.189 A 
ATOM      2  N   UNL d   1      51.357  34.060  52.398  0.00  0.00    -0.265 N 
ATOM      3  C   UNL d   1      50.574  34.076  52.656  0.00  0.00     0.202 A 
ATOM      4  N   UNL d   1      51.269  33.318  53.496  0.00  0.00    -0.126 NA
ATOM      5  N   UNL d   1      50.519  33.617  53.337  0.00  0.00    -0.121 NA
ATOM      6  C   UNL d   1      51.645  34.453  51.729  0.00  0.00     0.103 C 
ENDROOT
BRANCH   1   7
ATOM      7  C   UNL d   1      52.584  33.474  52.799  0.00  0.00     0.123 C 
BRANCH   7   8
ATOM      8  N   UNL d   1      53.006  32.949  53.278  0.00  0.00    -0.265 N 
ATOM      9  C   UNL d   1      53.045  32.126  53.184  0.00  0.00     0.296 A 
ATOM     10  S   UNL d   1      53.526  31.830  53.784  0.00  0.00    -0.025 SA
ATOM     11  O   UNL d   1      52.669  31.687  52.597  0.00  0.00    -0.259 OA
ATOM     12  C   UNL d   1      53.783  32.477  54.247  0.00  0.00     0.050 A 
ATOM     13  C   UNL d   1      53.458  33.163  53.929  0.00  0.00     0.074 A 
ATOM     14  C   UNL d   1      54.271  32.516  54.915  0.00  0.00     0.008 A 
ATOM     15  C   UNL d   1      53.622  33.898  54.281  0.00  0.00     0.018 A 
ATOM     16  C   UNL d   1      54.109  33.943  54.949  0.00  0.00     0.002 A 
ATOM     17  C   UNL d   1      54.431  33.241  55.262  0.00  0.00     0.001 A 
ENDBRANCH   7   8
ENDBRANCH   1   7
BRANCH   3  18
ATOM     18  S   UNL d   1      49.951  34.482  52.297  0.00  0.00    -0.043 SA
BRANCH  18  19
ATOM     19  C   UNL d   1      49.374  34.858  52.755  0.00  0.00     0.099 C 
BRANCH  19  20
ATOM     20  C   UNL d   1      48.712  35.199  52.394  0.00  0.00     0.271 C 
ATOM     21  N   UNL d   1      48.246  35.735  52.809  0.00  0.00    -0.272 N 
ATOM     22  C   UNL d   1      48.302  36.033  53.576  0.00  0.00     0.083 A 
ATOM     23  C   UNL d   1      47.592  36.072  52.453  0.00  0.00     0.083 A 
ATOM     24  C   UNL d   1      47.672  36.557  53.686  0.00  0.00     0.021 A 
ATOM     25  C   UNL d   1      47.242  36.577  52.996  0.00  0.00     0.021 A 
ATOM     26  O   UNL d   1      48.518  35.000  51.614  0.00  0.00    -0.266 OA
ENDBRANCH  19  20
ENDBRANCH  18  19
ENDBRANCH   3  18
TORSDOF 5
ENDMDL
MODEL 2
REMARK VINA RESULT:      -8.5      1.156      1.451
REMARK  5 active torsions:
REMARK  status: ('A' for Active; 'I' for Inactive)
REMARK    1  A    between atoms: C_9  and  N_1 
REMARK    2  A    between atoms: C_2  and  C_9 
REMARK    3  A    between atoms: S_14  and  C_5 
REMARK    4  A    between atoms: C_12  and  C_16 
REMARK       I    between atoms: N_13  and  C_12 
REMARK    5  A    between atoms: C_16  and  S_14 
ROOT
ATOM      1  C   UNL d   1      51.636  34.165  52.956  0.00  0.00     0.189 A 
ATOM      2  N   UNL d   1      51.199  34.300  52.276  0.00  0.00    -0.265 N 
ATOM      3  C   UNL d   1      50.401  34.289  52.482  0.00  0.00     0.202 A 
ATOM      4  N   UNL d   1      51.113  34.070  53.582  0.00  0.00    -0.126 NA
ATOM      5  N   UNL d   1      50.346  34.146  53.291  0.00  0.00    -0.121 NA
ATOM      6  C   UNL d   1      51.491  34.426  51.513  0.00  0.00     0.103 C 
ENDROOT
BRANCH   1   7
ATOM      7  C   UNL d   1      52.453  34.145  52.919  0.00  0.00     0.123 C 
BRANCH   7   8
ATOM      8  N   UNL d   1      52.900  34.019  53.603  0.00  0.00    -0.265 N 
ATOM      9  C   UNL d   1      53.079  34.589  54.179  0.00  0.00     0.296 A 
ATOM     10  S   UNL d   1      53.535  34.221  54.759  0.00  0.00    -0.025 SA
ATOM     11  O   UNL d   1      52.842  35.378  54.171  0.00  0.00    -0.259 OA
ATOM     12  C   UNL d   1      53.635  33.422  54.534  0.00  0.00     0.050 A 
ATOM     13  C   UNL d   1      53.241  33.306  53.822  0.00  0.00     0.074 A 
ATOM     14  C   UNL d   1      54.037  32.794  54.897  0.00  0.00     0.008 A 
ATOM     15  C   UNL d   1      53.247  32.555  53.464  0.00  0.00     0.018 A 
ATOM     16  C   UNL d   1      53.647  31.925  53.822  0.00  0.00     0.002 A 
ATOM     17  C   UNL d   1      54.042  32.055  54.544  0.00  0.00     0.001 A 
ENDBRANCH   7   8
ENDBRANCH   1   7
BRANCH   3  18
ATOM     18  S   UNL d   1      49.764  34.401  51.969  0.00  0.00    -0.043 SA
BRANCH  18  19
ATOM     19  C   UNL d   1      49.094  34.820  52.214  0.00  0.00     0.099 C 
BRANCH  19  20
ATOM     20  C   UNL d   1      48.448  34.909  51.705  0.00  0.00     0.271 C 
ATOM     21  N   UNL d   1      47.851  35.445  51.885  0.00  0.00    -0.272 N 
ATOM     22  C   UNL d   1      47.748  35.959  52.522  0.00  0.00     0.083 A 
ATOM     23  C   UNL d   1      47.212  35.533  51.383  0.00  0.00     0.083 A 
ATOM     24  C   UNL d   1      47.037  36.364  52.403  0.00  0.00     0.021 A 
ATOM     25  C   UNL d   1      46.714  36.099  51.705  0.00  0.00     0.021 A 
ATOM     26  O   UNL d   1      48.402  34.457  51.012  0.00  0.00    -0.266 OA
ENDBRANCH  19  20
ENDBRANCH  18  19
ENDBRANCH   3  18
TORSDOF 5
ENDMDL
MODEL 3
REMARK VINA RESULT:      -7.7      1.097      1.802
REMARK  5 active torsions:
REMARK  status: ('A' for Active; 'I' for Inactive)
REMARK    1  A    between atoms: C_9  and  N_1 
REMARK    2  A    between atoms: C_2  and  C_9 
REMARK    3  A    between atoms: S_14  and  C_5 
REMARK    4  A    between atoms: C_12  and  C_16 
REMARK       I    between atoms: N_13  and  C_12 
REMARK    5  A    between atoms: C_16  and  S_14 
ROOT
ATOM      1  C   UNL d   1      51.837  33.283  52.975  0.00  0.00     0.189 A 
ATOM      2  N   UNL d   1      51.539  33.968  52.639  0.00  0.00    -0.265 N 
ATOM      3  C   UNL d   1      50.799  34.114  52.972  0.00  0.00     0.202 A 
ATOM      4  N   UNL d   1      51.284  33.003  53.516  0.00  0.00    -0.126 NA
ATOM      5  N   UNL d   1      50.640  33.516  53.515  0.00  0.00    -0.121 NA
ATOM      6  C   UNL d   1      51.904  34.441  52.066  0.00  0.00     0.103 C 
ENDROOT
BRANCH   1   7
ATOM      7  C   UNL d   1      52.570  33.002  52.749  0.00  0.00     0.123 C 
BRANCH   7   8
ATOM      8  N   UNL d   1      53.005  32.511  53.253  0.00  0.00    -0.265 N 
ATOM      9  C   UNL d   1      53.486  32.761  53.880  0.00  0.00     0.296 A 
ATOM     10  S   UNL d   1      53.810  32.088  54.229  0.00  0.00    -0.025 SA
ATOM     11  O   UNL d   1      53.615  33.542  54.111  0.00  0.00    -0.259 OA
ATOM     12  C   UNL d   1      53.524  31.423  53.811  0.00  0.00     0.050 A 
ATOM     13  C   UNL d   1      53.029  31.692  53.211  0.00  0.00     0.074 A 
ATOM     14  C   UNL d   1      53.659  30.612  53.909  0.00  0.00     0.008 A 
ATOM     15  C   UNL d   1      52.663  31.146  52.702  0.00  0.00     0.018 A 
ATOM     16  C   UNL d   1      52.794  30.334  52.796  0.00  0.00     0.002 A 
ATOM     17  C   UNL d   1      53.298  30.074  53.407  0.00  0.00     0.001 A 
ENDBRANCH   7   8
ENDBRANCH   1   7
BRANCH   3  18
ATOM     18  S   UNL d   1      50.301  34.747  52.793  0.00  0.00    -0.043 SA
BRANCH  18  19
ATOM     19  C   UNL d   1      49.496  34.622  52.647  0.00  0.00     0.099 C 
BRANCH  19  20
ATOM     20  C   UNL d   1      48.955  35.241  52.737  0.00  0.00     0.271 C 
ATOM     21  N   UNL d   1      48.337  35.330  52.200  0.00  0.00    -0.272 N 
ATOM     22  C   UNL d   1      48.122  34.896  51.533  0.00  0.00     0.083 A 
ATOM     23  C   UNL d   1      47.802  35.941  52.288  0.00  0.00     0.083 A 
ATOM     24  C   UNL d   1      47.448  35.249  51.212  0.00  0.00     0.021 A 
ATOM     25  C   UNL d   1      47.256  35.888  51.678  0.00  0.00     0.021 A 
ATOM     26  O   UNL d   1      49.034  35.772  53.367  0.00  0.00    -0.266 OA
ENDBRANCH  19  20
ENDBRANCH  18  19
ENDBRANCH   3  18
TORSDOF 5
ENDMDL
MODEL 4
REMARK VINA RESULT:      -6.3      1.005      5.447
REMARK  5 active torsions:
REMARK  status: ('A' for Active; 'I' for Inactive)
REMARK    1  A    between atoms: C_9  and  N_1 
REMARK    2  A    between atoms: C_2  and  C_9 
REMARK    3  A    between atoms: S_14  and  C_5 
REMARK    4  A    between atoms: C_12  and  C_16 
REMARK       I    between atoms: N_13  and  C_12 
REMARK    5  A    between atoms: C_16  and  S_14 
ROOT
ATOM      1  C   UNL d   1      50.255  34.243  52.618  0.00  0.00     0.189 A 
ATOM      2  N   UNL d   1      50.731  33.659  52.940  0.00  0.00    -0.265 N 
ATOM      3  C   UNL d   1      51.514  33.843  52.761  0.00  0.00     0.202 A 
ATOM      4  N   UNL d   1      50.740  34.789  52.241  0.00  0.00    -0.126 NA
ATOM      5  N   UNL d   1      51.521  34.544  52.328  0.00  0.00    -0.121 NA
ATOM      6  C   UNL d   1      50.485  32.996  53.369  0.00  0.00     0.103 C 
ENDROOT
BRANCH   1   7
ATOM      7  C   UNL d   1      49.443  34.205  52.709  0.00  0.00     0.123 C 
BRANCH   7   8
ATOM      8  N   UNL d   1      48.953  34.755  52.334  0.00  0.00    -0.265 N 
ATOM      9  C   UNL d   1      48.764  34.767  51.527  0.00  0.00     0.296 A 
ATOM     10  S   UNL d   1      48.262  35.409  51.399  0.00  0.00    -0.025 SA
ATOM     11  O   UNL d   1      49.030  34.234  50.958  0.00  0.00    -0.259 OA
ATOM     12  C   UNL d   1      48.145  35.789  52.134  0.00  0.00     0.050 A 
ATOM     13  C   UNL d   1      48.574  35.381  52.705  0.00  0.00     0.074 A 
ATOM     14  C   UNL d   1      47.699  36.456  52.345  0.00  0.00     0.008 A 
ATOM     15  C   UNL d   1      48.560  35.639  53.496  0.00  0.00     0.018 A 
ATOM     16  C   UNL d   1      48.117  36.304  53.710  0.00  0.00     0.002 A 
ATOM     17  C   UNL d   1      47.686  36.709  53.123  0.00  0.00     0.001 A 
ENDBRANCH   7   8
ENDBRANCH   1   7
BRANCH   3  18
ATOM     18  S   UNL d   1      52.180  33.404  52.977  0.00  0.00    -0.043 SA
BRANCH  18  19
ATOM     19  C   UNL d   1      52.806  33.761  53.382  0.00  0.00     0.099 C 
BRANCH  19  20
ATOM     20  C   UNL d   1      53.491  33.330  53.556  0.00  0.00     0.271 C 
ATOM     21  N   UNL d   1      53.947  33.526  54.212  0.00  0.00    -0.272 N 
ATOM     22  C   UNL d   1      53.861  34.113  54.785  0.00  0.00     0.083 A 
ATOM     23  C   UNL d   1      54.623  33.100  54.384  0.00  0.00     0.083 A 
ATOM     24  C   UNL d   1      54.494  34.041  55.311  0.00  0.00     0.021 A 
ATOM     25  C   UNL d   1      54.957  33.420  55.061  0.00  0.00     0.021 A 
ATOM     26  O   UNL d   1      53.716  32.700  53.069  0.00  0.00    -0.266 OA
ENDBRANCH  19  20
ENDBRANCH  18  19
ENDBRANCH   3  18
TORSDOF 5
ENDMDL
