MODEL 1
REMARK VINA RESULT:      -2.8      0.000      0.000
REMARK  5 active torsions:
REMARK  status: ('A' for Active; 'I' for Inactive)
REMARK    1  A    between atoms: C_15  and  C_3 
REMARK    2  A    between atoms: S_9  and  C_4 
REMARK       I    between atoms: N_6  and  C_8 
REMARK    3  A    between atoms: C_16  and  N_7 
REMARK    4  A    between atoms: C_8  and  C_14 
REMARK    5  A    between atoms: C_14  and  S_9 
ROOT
ATOM      1  N   UNL d   1     -41.687-122.476 -50.475  0.00  0.00    -0.269 N 
ATOM      2  N   UNL d   1     -42.045-123.018 -48.958  0.00  0.00    -0.301 N 
ATOM      3  C   UNL d   1     -41.510-122.208 -51.242  0.00  0.00     0.272 C 
ATOM      4  C   UNL d   1     -42.056-123.206 -50.367  0.00  0.00     0.102 A 
ATOM      5  C   UNL d   1     -41.498-122.017 -49.821  0.00  0.00     0.102 A 
ATOM      6  C   UNL d   1     -41.675-122.284 -49.055  0.00  0.00     0.100 A 
ATOM      7  C   UNL d   1     -42.236-123.478 -49.609  0.00  0.00     0.100 A 
ATOM      8  O   UNL d   1     -41.143-121.482 -51.353  0.00  0.00    -0.266 OA
ENDROOT
BRANCH   3   9
ATOM      9  C   UNL d   1     -41.703-122.675 -51.891  0.00  0.00     0.100 C 
BRANCH   9  10
ATOM     10  S   UNL d   1     -41.123-122.889 -52.438  0.00  0.00    -0.036 SA
BRANCH  10  11
ATOM     11  C   UNL d   1     -41.309-122.965 -53.247  0.00  0.00     0.236 A 
ATOM     12  O   UNL d   1     -41.642-122.401 -53.731  0.00  0.00    -0.263 OA
ATOM     13  C   UNL d   1     -41.726-122.724 -54.489  0.00  0.00     0.205 A 
ATOM     14  N   UNL d   1     -41.441-123.493 -54.464  0.00  0.00    -0.120 NA
ATOM     15  N   UNL d   1     -41.181-123.646 -53.688  0.00  0.00    -0.114 NA
BRANCH  13  16
ATOM     16  C   UNL d   1     -42.035-122.367 -55.166  0.00  0.00     0.043 A 
ATOM     17  C   UNL d   1     -41.531-121.992 -55.696  0.00  0.00     0.004 A 
ATOM     18  C   UNL d   1     -41.840-121.635 -56.373  0.00  0.00     0.000 A 
ATOM     19  C   UNL d   1     -42.651-121.654 -56.516  0.00  0.00     0.000 A 
ATOM     20  C   UNL d   1     -43.156-122.031 -55.982  0.00  0.00     0.000 A 
ATOM     21  C   UNL d   1     -42.846-122.386 -55.309  0.00  0.00     0.004 A 
ENDBRANCH  13  16
ENDBRANCH  10  11
ENDBRANCH   9  10
ENDBRANCH   3   9
BRANCH   2  22
ATOM     22  C   UNL d   1     -42.221-123.284 -48.196  0.00  0.00     0.064 A 
ATOM     23  C   UNL d   1     -43.000-123.441 -47.992  0.00  0.00     0.018 A 
ATOM     24  C   UNL d   1     -43.187-123.710 -47.225  0.00  0.00     0.002 A 
ATOM     25  C   UNL d   1     -42.586-123.815 -46.677  0.00  0.00     0.000 A 
ATOM     26  C   UNL d   1     -41.799-123.657 -46.878  0.00  0.00     0.002 A 
ATOM     27  C   UNL d   1     -41.623-123.390 -47.644  0.00  0.00     0.018 A 
ENDBRANCH   2  22
TORSDOF 5
ENDMDL
MODEL 2
REMARK VINA RESULT:       0.1      1.086      6.474
REMARK  5 active torsions:
REMARK  status: ('A' for Active; 'I' for Inactive)
REMARK    1  A    between atoms: C_15  and  C_3 
REMARK    2  A    between atoms: S_9  and  C_4 
REMARK       I    between atoms: N_6  and  C_8 
REMARK    3  A    between atoms: C_16  and  N_7 
REMARK    4  A    between atoms: C_8  and  C_14 
REMARK    5  A    between atoms: C_14  and  S_9 
ROOT
ATOM      1  N   UNL d   1     -41.633-122.677 -52.672  0.00  0.00    -0.269 N 
ATOM      2  N   UNL d   1     -41.817-122.217 -54.246  0.00  0.00    -0.301 N 
ATOM      3  C   UNL d   1     -41.543-122.904 -51.877  0.00  0.00     0.272 C 
ATOM      4  C   UNL d   1     -42.046-121.989 -52.862  0.00  0.00     0.102 A 
ATOM      5  C   UNL d   1     -41.312-123.135 -53.273  0.00  0.00     0.102 A 
ATOM      6  C   UNL d   1     -41.401-122.910 -54.067  0.00  0.00     0.100 A 
ATOM      7  C   UNL d   1     -42.139-121.757 -53.648  0.00  0.00     0.100 A 
ATOM      8  O   UNL d   1     -41.132-123.588 -51.685  0.00  0.00    -0.266 OA
ENDROOT
BRANCH   3   9
ATOM      9  C   UNL d   1     -41.868-122.438 -51.282  0.00  0.00     0.100 C 
BRANCH   9  10
ATOM     10  S   UNL d   1     -42.592-122.644 -50.941  0.00  0.00    -0.036 SA
BRANCH  10  11
ATOM     11  C   UNL d   1     -42.675-122.680 -50.112  0.00  0.00     0.236 A 
ATOM     12  O   UNL d   1     -42.189-123.065 -49.585  0.00  0.00    -0.263 OA
ATOM     13  C   UNL d   1     -42.488-122.948 -48.821  0.00  0.00     0.205 A 
ATOM     14  N   UNL d   1     -43.163-122.486 -48.887  0.00  0.00    -0.120 NA
ATOM     15  N   UNL d   1     -43.281-122.318 -49.694  0.00  0.00    -0.114 NA
BRANCH  13  16
ATOM     16  C   UNL d   1     -42.187-123.229 -48.105  0.00  0.00     0.043 A 
ATOM     17  C   UNL d   1     -41.426-123.536 -48.074  0.00  0.00     0.004 A 
ATOM     18  C   UNL d   1     -41.126-123.817 -47.359  0.00  0.00     0.000 A 
ATOM     19  C   UNL d   1     -41.589-123.789 -46.678  0.00  0.00     0.000 A 
ATOM     20  C   UNL d   1     -42.354-123.480 -46.711  0.00  0.00     0.000 A 
ATOM     21  C   UNL d   1     -42.651-123.201 -47.424  0.00  0.00     0.004 A 
ENDBRANCH  13  16
ENDBRANCH  10  11
ENDBRANCH   9  10
ENDBRANCH   3   9
BRANCH   2  22
ATOM     22  C   UNL d   1     -41.907-121.992 -55.036  0.00  0.00     0.064 A 
ATOM     23  C   UNL d   1     -42.591-122.195 -55.440  0.00  0.00     0.018 A 
ATOM     24  C   UNL d   1     -42.689-121.972 -56.238  0.00  0.00     0.002 A 
ATOM     25  C   UNL d   1     -42.096-121.548 -56.614  0.00  0.00     0.000 A 
ATOM     26  C   UNL d   1     -41.404-121.342 -56.210  0.00  0.00     0.002 A 
ATOM     27  C   UNL d   1     -41.315-121.568 -55.416  0.00  0.00     0.018 A 
ENDBRANCH   2  22
TORSDOF 5
ENDMDL
