MODEL 1
REMARK VINA RESULT:      68.4      0.000      0.000
REMARK  9 active torsions:
REMARK  status: ('A' for Active; 'I' for Inactive)
REMARK    1  A    between atoms: N_2  and  S_1 
REMARK    2  A    between atoms: C_9  and  S_1 
REMARK    3  A    between atoms: C_4  and  N_2 
REMARK    4  A    between atoms: O_22  and  C_6 
REMARK    5  A    between atoms: O_23  and  C_7 
REMARK       I    between atoms: C_12  and  N_13 
REMARK    6  A    between atoms: C_20  and  C_12 
REMARK    7  A    between atoms: N_13  and  C_21 
REMARK    8  A    between atoms: O_14  and  C_20 
REMARK    9  A    between atoms: C_15  and  O_14 
ROOT
ATOM      1  C   UNL d   1     -55.555-101.061 -42.997  0.00  0.00     0.105 A 
ATOM      2  C   UNL d   1     -55.219-100.581 -42.425  0.00  0.00     0.015 A 
ATOM      3  C   UNL d   1     -55.651-101.860 -42.863  0.00  0.00     0.015 A 
ATOM      4  C   UNL d   1     -55.073-101.715 -41.571  0.00  0.00     0.085 A 
ATOM      5  C   UNL d   1     -54.971-100.883 -41.707  0.00  0.00     0.020 A 
ATOM      6  C   UNL d   1     -55.407-102.173 -42.150  0.00  0.00     0.020 A 
ENDROOT
BRANCH   1   7
ATOM      7  S   UNL d   1     -55.803-100.739 -43.726  0.00  0.00     0.287 S 
ATOM      8  O   UNL d   1     -55.386-100.031 -43.557  0.00  0.00    -0.198 OA
ATOM      9  O   UNL d   1     -56.221-101.440 -43.901  0.00  0.00    -0.198 OA
BRANCH   7  10
ATOM     10  N   UNL d   1     -56.051-100.413 -44.457  0.00  0.00    -0.139 NA
BRANCH  10  11
ATOM     11  C   UNL d   1     -56.691 -99.894 -44.488  0.00  0.00     0.182 A 
ATOM     12  N   UNL d   1     -57.003 -99.595 -43.798  0.00  0.00    -0.185 NA
ATOM     13  C   UNL d   1     -57.662 -99.061 -43.822  0.00  0.00     0.274 A 
ATOM     14  N   UNL d   1     -57.982 -98.845 -44.531  0.00  0.00    -0.181 NA
ATOM     15  C   UNL d   1     -57.689 -99.129 -45.233  0.00  0.00     0.185 A 
ATOM     16  C   UNL d   1     -57.014 -99.678 -45.220  0.00  0.00     0.084 A 
BRANCH  13  17
ATOM     17  O   UNL d   1     -57.977 -98.758 -43.111  0.00  0.00    -0.297 OA
ATOM     18  C   UNL d   1     -58.796 -98.793 -42.941  0.00  0.00     0.185 C 
ENDBRANCH  13  17
BRANCH  15  19
ATOM     19  O   UNL d   1     -58.036 -98.893 -45.953  0.00  0.00    -0.312 OA
ATOM     20  C   UNL d   1     -58.872 -98.810 -45.975  0.00  0.00     0.183 C 
ENDBRANCH  15  19
ENDBRANCH  10  11
ENDBRANCH   7  10
ENDBRANCH   1   7
BRANCH   4  21
ATOM     21  N   UNL d   1     -54.832-102.054 -40.853  0.00  0.00    -0.206 NA
ATOM     22  C   UNL d   1     -55.395-102.286 -40.301  0.00  0.00     0.304 C 
ATOM     23  O   UNL d   1     -56.197-102.180 -40.465  0.00  0.00    -0.263 OA
BRANCH  22  24
ATOM     24  C   UNL d   1     -55.154-102.626 -39.581  0.00  0.00     0.185 C 
BRANCH  24  25
ATOM     25  O   UNL d   1     -54.765-102.166 -39.024  0.00  0.00    -0.299 OA
BRANCH  25  26
ATOM     26  C   UNL d   1     -55.024-102.152 -38.208  0.00  0.00     0.111 A 
ATOM     27  C   UNL d   1     -55.019-101.453 -37.775  0.00  0.00     0.081 A 
ATOM     28 CL   UNL d   1     -54.755-100.728 -38.133  0.00  0.00    -0.080 Cl
ATOM     29  C   UNL d   1     -55.271-101.455 -36.993  0.00  0.00     0.013 A 
ATOM     30  C   UNL d   1     -55.531-102.171 -36.642  0.00  0.00     0.001 A 
ATOM     31  C   UNL d   1     -55.533-102.869 -37.080  0.00  0.00     0.002 A 
ATOM     32  C   UNL d   1     -55.282-102.867 -37.862  0.00  0.00     0.026 A 
ENDBRANCH  25  26
ENDBRANCH  24  25
ENDBRANCH  22  24
ENDBRANCH   4  21
TORSDOF 9
ENDMDL
