MODEL 1
REMARK VINA RESULT:      54.8      0.000      0.000
REMARK  4 active torsions:
REMARK  status: ('A' for Active; 'I' for Inactive)
REMARK    1  A    between atoms: N_3  and  S_1 
REMARK    2  A    between atoms: C_4  and  S_1 
REMARK    3  A    between atoms: S_2  and  C_5 
REMARK    4  A    between atoms: C_13  and  N_3 
ROOT
ATOM      1  N   UNL d   1      59.734  49.357  51.040  0.00  0.00    -0.158 NA
ENDROOT
BRANCH   1   2
ATOM      2  S   UNL d   1      59.008  49.420  50.675  0.00  0.00     0.285 S 
ATOM      3  O   UNL d   1      59.329  49.147  49.965  0.00  0.00    -0.198 OA
ATOM      4  O   UNL d   1      58.667  49.696  51.381  0.00  0.00    -0.198 OA
BRANCH   2   5
ATOM      5  C   UNL d   1      58.240  49.487  50.294  0.00  0.00     0.105 A 
ATOM      6  C   UNL d   1      58.206  49.571  49.490  0.00  0.00     0.015 A 
ATOM      7  C   UNL d   1      57.482  49.637  49.109  0.00  0.00     0.022 A 
ATOM      8  C   UNL d   1      56.792  49.619  49.542  0.00  0.00     0.103 A 
ATOM      9  C   UNL d   1      56.830  49.533  50.368  0.00  0.00     0.022 A 
ATOM     10  N   UNL d   1      56.054  49.687  49.146  0.00  0.00    -0.148 N 
ATOM     11  C   UNL d   1      57.571  49.468  50.728  0.00  0.00     0.015 A 
ENDBRANCH   2   5
ENDBRANCH   1   2
BRANCH   1  12
ATOM     12  C   UNL d   1      60.198  48.691  50.930  0.00  0.00     0.094 A 
ATOM     13  C   UNL d   1      59.991  48.003  51.294  0.00  0.00     0.021 A 
ATOM     14  C   UNL d   1      60.462  47.327  51.183  0.00  0.00     0.015 A 
ATOM     15  C   UNL d   1      61.118  47.368  50.713  0.00  0.00     0.107 A 
ATOM     16  C   UNL d   1      61.335  48.074  50.337  0.00  0.00     0.015 A 
ATOM     17  C   UNL d   1      60.865  48.750  50.448  0.00  0.00     0.021 A 
BRANCH  15  18
ATOM     18  S   UNL d   1      61.588  46.693  50.602  0.00  0.00     0.302 S 
ATOM     19  O   UNL d   1      62.055  47.110  50.043  0.00  0.00    -0.197 OA
ATOM     20  O   UNL d   1      61.134  46.288  51.144  0.00  0.00    -0.197 OA
ATOM     21  N   UNL d   1      62.054  46.024  50.492  0.00  0.00    -0.043 N 
ENDBRANCH  15  18
ENDBRANCH   1  12
TORSDOF 4
ENDMDL
