MODEL 1
REMARK VINA RESULT:      -7.6      0.000      0.000
REMARK  4 active torsions:
REMARK  status: ('A' for Active; 'I' for Inactive)
REMARK    1  A    between atoms: C_4  and  C_1 
REMARK    2  A    between atoms: N_5  and  C_2 
REMARK       I    between atoms: N_9  and  C_4 
REMARK       I    between atoms: C_7  and  N_5 
REMARK    3  A    between atoms: C_13  and  C_7 
REMARK    4  A    between atoms: C_11  and  N_9 
ROOT
ATOM      1  C   UNL d   1      53.281  32.381  53.157  0.00  0.00     0.175 A 
ATOM      2  C   UNL d   1      52.902  32.827  53.660  0.00  0.00     0.114 A 
ATOM      3  O   UNL d   1      53.997  32.277  53.424  0.00  0.00    -0.301 OA
ATOM      4  C   UNL d   1      53.381  33.000  54.240  0.00  0.00     0.043 A 
ATOM      5  C   UNL d   1      54.062  32.659  54.093  0.00  0.00     0.102 A 
ATOM      6  C   UNL d   1      53.292  33.418  54.876  0.00  0.00     0.004 A 
ATOM      7  C   UNL d   1      54.645  32.738  54.582  0.00  0.00     0.025 A 
ATOM      8  C   UNL d   1      53.882  33.499  55.369  0.00  0.00     0.000 A 
ATOM      9  C   UNL d   1      54.556  33.159  55.221  0.00  0.00     0.002 A 
ENDROOT
BRANCH   1  10
ATOM     10  C   UNL d   1      53.000  32.092  52.508  0.00  0.00     0.303 C 
ATOM     11  N   UNL d   1      52.694  30.630  52.543  0.00  0.00    -0.206 NA
ATOM     12  O   UNL d   1      52.860  32.465  51.852  0.00  0.00    -0.263 OA
BRANCH  11  13
ATOM     13  C   UNL d   1      52.832  30.197  53.235  0.00  0.00     0.085 A 
ATOM     14  C   UNL d   1      53.561  29.818  53.347  0.00  0.00     0.019 A 
ATOM     15  C   UNL d   1      53.701  29.384  54.040  0.00  0.00     0.002 A 
ATOM     16  C   UNL d   1      54.430  29.004  54.155  0.00  0.00     0.000 C 
ATOM     17  C   UNL d   1      53.113  29.323  54.630  0.00  0.00     0.000 A 
ATOM     18  C   UNL d   1      52.376  29.708  54.515  0.00  0.00     0.002 A 
ATOM     19  C   UNL d   1      53.251  28.892  55.319  0.00  0.00     0.000 C 
ATOM     20  C   UNL d   1      52.242  30.146  53.809  0.00  0.00     0.019 A 
ENDBRANCH  11  13
ENDBRANCH   1  10
BRANCH   2  21
ATOM     21  N   UNL d   1      52.169  33.057  53.592  0.00  0.00    -0.204 NA
ATOM     22  C   UNL d   1      51.993  33.791  53.249  0.00  0.00     0.302 C 
ATOM     23  O   UNL d   1      52.610  34.285  52.975  0.00  0.00    -0.263 OA
BRANCH  22  24
ATOM     24  C   UNL d   1      51.199  34.038  53.177  0.00  0.00     0.158 A 
ATOM     25  O   UNL d   1      50.551  33.779  53.634  0.00  0.00    -0.300 OA
ATOM     26  C   UNL d   1      49.874  34.170  53.369  0.00  0.00     0.123 A 
ATOM     27  C   UNL d   1      50.090  34.679  52.743  0.00  0.00     0.029 A 
ATOM     28  C   UNL d   1      50.898  34.601  52.622  0.00  0.00     0.032 A 
ENDBRANCH  22  24
ENDBRANCH   2  21
TORSDOF 4
ENDMDL
MODEL 2
REMARK VINA RESULT:      -6.2      1.207      3.991
REMARK  4 active torsions:
REMARK  status: ('A' for Active; 'I' for Inactive)
REMARK    1  A    between atoms: C_4  and  C_1 
REMARK    2  A    between atoms: N_5  and  C_2 
REMARK       I    between atoms: N_9  and  C_4 
REMARK       I    between atoms: C_7  and  N_5 
REMARK    3  A    between atoms: C_13  and  C_7 
REMARK    4  A    between atoms: C_11  and  N_9 
ROOT
ATOM      1  C   UNL d   1      53.494  32.047  53.183  0.00  0.00     0.175 A 
ATOM      2  C   UNL d   1      53.527  31.779  53.907  0.00  0.00     0.114 A 
ATOM      3  O   UNL d   1      53.839  32.736  53.170  0.00  0.00    -0.301 OA
ATOM      4  C   UNL d   1      53.891  32.300  54.343  0.00  0.00     0.043 A 
ATOM      5  C   UNL d   1      54.086  32.895  53.886  0.00  0.00     0.102 A 
ATOM      6  C   UNL d   1      54.072  32.315  55.088  0.00  0.00     0.004 A 
ATOM      7  C   UNL d   1      54.458  33.498  54.176  0.00  0.00     0.025 A 
ATOM      8  C   UNL d   1      54.447  32.924  55.380  0.00  0.00     0.000 A 
ATOM      9  C   UNL d   1      54.639  33.512  54.925  0.00  0.00     0.002 A 
ENDROOT
BRANCH   1  10
ATOM     10  C   UNL d   1      53.177  31.695  52.584  0.00  0.00     0.303 C 
ATOM     11  N   UNL d   1      51.864  32.253  52.141  0.00  0.00    -0.206 NA
ATOM     12  O   UNL d   1      53.455  31.096  52.193  0.00  0.00    -0.263 OA
BRANCH  11  13
ATOM     13  C   UNL d   1      51.535  32.899  52.541  0.00  0.00     0.085 A 
ATOM     14  C   UNL d   1      51.739  33.670  52.319  0.00  0.00     0.019 A 
ATOM     15  C   UNL d   1      51.410  34.318  52.719  0.00  0.00     0.002 A 
ATOM     16  C   UNL d   1      51.613  35.093  52.499  0.00  0.00     0.000 C 
ATOM     17  C   UNL d   1      50.872  34.202  53.346  0.00  0.00     0.000 A 
ATOM     18  C   UNL d   1      50.666  33.419  53.569  0.00  0.00     0.002 A 
ATOM     19  C   UNL d   1      50.544  34.845  53.745  0.00  0.00     0.000 C 
ATOM     20  C   UNL d   1      51.004  32.768  53.158  0.00  0.00     0.019 A 
ENDBRANCH  11  13
ENDBRANCH   1  10
BRANCH   2  21
ATOM     21  N   UNL d   1      53.241  31.104  54.148  0.00  0.00    -0.204 NA
ATOM     22  C   UNL d   1      53.688  30.410  54.068  0.00  0.00     0.302 C 
ATOM     23  O   UNL d   1      54.450  30.439  53.724  0.00  0.00    -0.263 OA
BRANCH  22  24
ATOM     24  C   UNL d   1      53.377  29.681  54.329  0.00  0.00     0.158 A 
ATOM     25  O   UNL d   1      52.642  29.347  54.120  0.00  0.00    -0.300 OA
ATOM     26  C   UNL d   1      52.565  28.623  54.509  0.00  0.00     0.123 A 
ATOM     27  C   UNL d   1      53.251  28.495  54.967  0.00  0.00     0.029 A 
ATOM     28  C   UNL d   1      53.750  29.139  54.860  0.00  0.00     0.032 A 
ENDBRANCH  22  24
ENDBRANCH   2  21
TORSDOF 4
ENDMDL
MODEL 3
REMARK VINA RESULT:      -5.8      1.769      3.259
REMARK  4 active torsions:
REMARK  status: ('A' for Active; 'I' for Inactive)
REMARK    1  A    between atoms: C_4  and  C_1 
REMARK    2  A    between atoms: N_5  and  C_2 
REMARK       I    between atoms: N_9  and  C_4 
REMARK       I    between atoms: C_7  and  N_5 
REMARK    3  A    between atoms: C_13  and  C_7 
REMARK    4  A    between atoms: C_11  and  N_9 
ROOT
ATOM      1  C   UNL d   1      52.340  33.781  52.671  0.00  0.00     0.175 A 
ATOM      2  C   UNL d   1      51.663  33.525  52.940  0.00  0.00     0.114 A 
ATOM      3  O   UNL d   1      52.803  33.171  52.577  0.00  0.00    -0.301 OA
ATOM      4  C   UNL d   1      51.704  32.759  53.013  0.00  0.00     0.043 A 
ATOM      5  C   UNL d   1      52.412  32.538  52.788  0.00  0.00     0.102 A 
ATOM      6  C   UNL d   1      51.199  32.234  53.253  0.00  0.00     0.004 A 
ATOM      7  C   UNL d   1      52.609  31.799  52.804  0.00  0.00     0.025 A 
ATOM      8  C   UNL d   1      51.398  31.487  53.269  0.00  0.00     0.000 A 
ATOM      9  C   UNL d   1      52.100  31.272  53.045  0.00  0.00     0.002 A 
ENDROOT
BRANCH   1  10
ATOM     10  C   UNL d   1      52.522  34.507  52.522  0.00  0.00     0.303 C 
ATOM     11  N   UNL d   1      53.458  35.140  53.500  0.00  0.00    -0.206 NA
ATOM     12  O   UNL d   1      52.280  34.940  51.936  0.00  0.00    -0.263 OA
BRANCH  11  13
ATOM     13  C   UNL d   1      53.739  34.702  54.144  0.00  0.00     0.085 A 
ATOM     14  C   UNL d   1      54.448  34.278  54.079  0.00  0.00     0.019 A 
ATOM     15  C   UNL d   1      54.729  33.839  54.724  0.00  0.00     0.002 A 
ATOM     16  C   UNL d   1      55.439  33.413  54.662  0.00  0.00     0.000 C 
ATOM     17  C   UNL d   1      54.305  33.819  55.442  0.00  0.00     0.000 A 
ATOM     18  C   UNL d   1      53.587  34.249  55.507  0.00  0.00     0.002 A 
ATOM     19  C   UNL d   1      54.584  33.383  56.085  0.00  0.00     0.000 C 
ATOM     20  C   UNL d   1      53.308  34.692  54.848  0.00  0.00     0.019 A 
ENDBRANCH  11  13
ENDBRANCH   1  10
BRANCH   2  21
ATOM     21  N   UNL d   1      51.051  33.965  53.105  0.00  0.00    -0.204 NA
ATOM     22  C   UNL d   1      50.476  34.115  52.527  0.00  0.00     0.302 C 
ATOM     23  O   UNL d   1      50.557  33.788  51.761  0.00  0.00    -0.263 OA
BRANCH  22  24
ATOM     24  C   UNL d   1      49.815  34.591  52.709  0.00  0.00     0.158 A 
ATOM     25  O   UNL d   1      49.690  35.025  53.411  0.00  0.00    -0.300 OA
ATOM     26  C   UNL d   1      48.963  35.414  53.349  0.00  0.00     0.123 A 
ATOM     27  C   UNL d   1      48.626  35.227  52.608  0.00  0.00     0.029 A 
ATOM     28  C   UNL d   1      49.143  34.725  52.214  0.00  0.00     0.032 A 
ENDBRANCH  22  24
ENDBRANCH   2  21
TORSDOF 4
ENDMDL
MODEL 4
REMARK VINA RESULT:      -5.3      1.477      4.364
REMARK  4 active torsions:
REMARK  status: ('A' for Active; 'I' for Inactive)
REMARK    1  A    between atoms: C_4  and  C_1 
REMARK    2  A    between atoms: N_5  and  C_2 
REMARK       I    between atoms: N_9  and  C_4 
REMARK       I    between atoms: C_7  and  N_5 
REMARK    3  A    between atoms: C_13  and  C_7 
REMARK    4  A    between atoms: C_11  and  N_9 
ROOT
ATOM      1  C   UNL d   1      53.473  32.266  53.118  0.00  0.00     0.175 A 
ATOM      2  C   UNL d   1      52.927  31.821  53.435  0.00  0.00     0.114 A 
ATOM      3  O   UNL d   1      53.121  32.808  52.697  0.00  0.00    -0.301 OA
ATOM      4  C   UNL d   1      52.238  32.086  53.212  0.00  0.00     0.043 A 
ATOM      5  C   UNL d   1      52.357  32.699  52.754  0.00  0.00     0.102 A 
ATOM      6  C   UNL d   1      51.523  31.855  53.362  0.00  0.00     0.004 A 
ATOM      7  C   UNL d   1      51.764  33.075  52.450  0.00  0.00     0.025 A 
ATOM      8  C   UNL d   1      50.923  32.235  53.055  0.00  0.00     0.000 A 
ATOM      9  C   UNL d   1      51.045  32.842  52.601  0.00  0.00     0.002 A 
ENDROOT
BRANCH   1  10
ATOM     10  C   UNL d   1      54.227  32.187  53.204  0.00  0.00     0.303 C 
ATOM     11  N   UNL d   1      54.870  33.171  54.127  0.00  0.00    -0.206 NA
ATOM     12  O   UNL d   1      54.683  31.665  52.874  0.00  0.00    -0.263 OA
BRANCH  11  13
ATOM     13  C   UNL d   1      54.407  33.748  54.500  0.00  0.00     0.085 A 
ATOM     14  C   UNL d   1      54.236  34.458  54.109  0.00  0.00     0.019 A 
ATOM     15  C   UNL d   1      53.773  35.036  54.482  0.00  0.00     0.002 A 
ATOM     16  C   UNL d   1      53.599  35.748  54.092  0.00  0.00     0.000 C 
ATOM     17  C   UNL d   1      53.475  34.911  55.252  0.00  0.00     0.000 A 
ATOM     18  C   UNL d   1      53.650  34.191  55.647  0.00  0.00     0.002 A 
ATOM     19  C   UNL d   1      53.015  35.485  55.624  0.00  0.00     0.000 C 
ATOM     20  C   UNL d   1      54.121  33.610  55.261  0.00  0.00     0.019 A 
ENDBRANCH  11  13
ENDBRANCH   1  10
BRANCH   2  21
ATOM     21  N   UNL d   1      53.054  31.216  53.896  0.00  0.00    -0.204 NA
ATOM     22  C   UNL d   1      53.051  30.447  53.586  0.00  0.00     0.302 C 
ATOM     23  O   UNL d   1      52.910  30.325  52.770  0.00  0.00    -0.263 OA
BRANCH  22  24
ATOM     24  C   UNL d   1      53.189  29.794  54.087  0.00  0.00     0.158 A 
ATOM     25  O   UNL d   1      53.197  29.797  54.921  0.00  0.00    -0.300 OA
ATOM     26  C   UNL d   1      53.355  29.029  55.182  0.00  0.00     0.123 A 
ATOM     27  C   UNL d   1      53.448  28.538  54.514  0.00  0.00     0.029 A 
ATOM     28  C   UNL d   1      53.348  29.000  53.843  0.00  0.00     0.032 A 
ENDBRANCH  22  24
ENDBRANCH   2  21
TORSDOF 4
ENDMDL
