MODEL 1
REMARK VINA RESULT:      56.3      0.000      0.000
REMARK  3 active torsions:
REMARK  status: ('A' for Active; 'I' for Inactive)
REMARK    1  A    between atoms: C_2  and  C_4 
REMARK    2  A    between atoms: N_3  and  C_2 
REMARK    3  A    between atoms: C_5  and  N_3 
ROOT
ATOM      1  C   UNL d   1     -51.125  25.936  33.643  0.00  0.00     0.153 C 
ATOM      2  S   UNL d   1     -51.796  26.359  33.421  0.00  0.00    -0.056 SA
ENDROOT
BRANCH   1   3
ATOM      3  C   UNL d   1     -50.415  26.333  33.778  0.00  0.00     0.109 A 
ATOM      4  N   UNL d   1     -50.411  27.035  34.232  0.00  0.00    -0.243 NA
ATOM      5  C   UNL d   1     -49.697  27.433  34.366  0.00  0.00     0.081 A 
ATOM      6  C   UNL d   1     -48.992  27.133  34.050  0.00  0.00     0.018 A 
ATOM      7  C   UNL d   1     -49.688  28.124  34.813  0.00  0.00     0.019 A 
ATOM      8  C   UNL d   1     -48.996  26.439  33.601  0.00  0.00     0.003 A 
ATOM      9  C   UNL d   1     -48.286  27.531  34.186  0.00  0.00     0.002 A 
ATOM     10  C   UNL d   1     -49.706  26.041  33.466  0.00  0.00     0.021 A 
ATOM     11  C   UNL d   1     -48.273  28.219  34.630  0.00  0.00     0.000 A 
ATOM     12  C   UNL d   1     -48.974  28.516  34.943  0.00  0.00     0.002 A 
ENDBRANCH   1   3
BRANCH   1  13
ATOM     13  N   UNL d   1     -51.160  25.117  33.731  0.00  0.00    -0.233 NA
BRANCH  13  14
ATOM     14  C   UNL d   1     -51.881  24.723  33.625  0.00  0.00     0.082 A 
ATOM     15  C   UNL d   1     -51.877  23.920  33.412  0.00  0.00     0.018 A 
ATOM     16  C   UNL d   1     -52.601  23.533  33.308  0.00  0.00     0.002 A 
ATOM     17  C   UNL d   1     -51.167  23.519  33.306  0.00  0.00     0.002 C 
ATOM     18  C   UNL d   1     -53.311  23.934  33.413  0.00  0.00     0.000 A 
ATOM     19  C   UNL d   1     -53.307  24.733  33.626  0.00  0.00     0.002 A 
ATOM     20  C   UNL d   1     -54.031  23.539  33.307  0.00  0.00     0.000 C 
ATOM     21  C   UNL d   1     -52.590  25.128  33.732  0.00  0.00     0.019 A 
ENDBRANCH  13  14
ENDBRANCH   1  13
TORSDOF 3
ENDMDL
MODEL 2
REMARK VINA RESULT:      57.2      1.027      1.805
REMARK  3 active torsions:
REMARK  status: ('A' for Active; 'I' for Inactive)
REMARK    1  A    between atoms: C_2  and  C_4 
REMARK    2  A    between atoms: N_3  and  C_2 
REMARK    3  A    between atoms: C_5  and  N_3 
ROOT
ATOM      1  C   UNL d   1     -50.111  26.657  33.501  0.00  0.00     0.153 C 
ATOM      2  S   UNL d   1     -49.580  26.049  33.335  0.00  0.00    -0.056 SA
ENDROOT
BRANCH   1   3
ATOM      3  C   UNL d   1     -49.829  27.394  33.739  0.00  0.00     0.109 A 
ATOM      4  N   UNL d   1     -49.211  27.442  34.301  0.00  0.00    -0.243 NA
ATOM      5  C   UNL d   1     -48.930  28.184  34.539  0.00  0.00     0.081 A 
ATOM      6  C   UNL d   1     -49.261  28.873  34.219  0.00  0.00     0.018 A 
ATOM      7  C   UNL d   1     -48.322  28.235  35.092  0.00  0.00     0.019 A 
ATOM      8  C   UNL d   1     -49.872  28.825  33.663  0.00  0.00     0.003 A 
ATOM      9  C   UNL d   1     -48.978  29.607  34.458  0.00  0.00     0.002 A 
ATOM     10  C   UNL d   1     -50.154  28.088  33.425  0.00  0.00     0.021 A 
ATOM     11  C   UNL d   1     -48.374  29.662  35.008  0.00  0.00     0.000 A 
ATOM     12  C   UNL d   1     -48.046  28.977  35.325  0.00  0.00     0.002 A 
ENDBRANCH   1   3
BRANCH   1  13
ATOM     13  N   UNL d   1     -50.922  26.531  33.429  0.00  0.00    -0.233 NA
BRANCH  13  14
ATOM     14  C   UNL d   1     -51.216  25.757  33.399  0.00  0.00     0.082 A 
ATOM     15  C   UNL d   1     -52.037  25.638  33.339  0.00  0.00     0.018 A 
ATOM     16  C   UNL d   1     -52.324  24.862  33.309  0.00  0.00     0.002 A 
ATOM     17  C   UNL d   1     -52.552  26.278  33.309  0.00  0.00     0.002 C 
ATOM     18  C   UNL d   1     -51.809  24.222  33.339  0.00  0.00     0.000 A 
ATOM     19  C   UNL d   1     -50.994  24.349  33.399  0.00  0.00     0.002 A 
ATOM     20  C   UNL d   1     -52.105  23.449  33.309  0.00  0.00     0.000 C 
ATOM     21  C   UNL d   1     -50.697  25.118  33.429  0.00  0.00     0.019 A 
ENDBRANCH  13  14
ENDBRANCH   1  13
TORSDOF 3
ENDMDL
