MODEL 1
REMARK VINA RESULT:      -9.4      0.000      0.000
REMARK  3 active torsions:
REMARK  status: ('A' for Active; 'I' for Inactive)
REMARK    1  A    between atoms: C_9  and  C_1 
REMARK    2  A    between atoms: C_11  and  N_5 
REMARK    3  A    between atoms: N_8  and  C_9 
ROOT
ATOM      1  N   UNL d   1      49.835  34.507  52.403  0.00  0.00    -0.301 N 
ATOM      2  N   UNL d   1      51.254  33.675  52.587  0.00  0.00    -0.300 N 
ATOM      3  C   UNL d   1      49.964  34.047  53.083  0.00  0.00     0.100 A 
ATOM      4  C   UNL d   1      50.420  34.549  51.817  0.00  0.00     0.100 A 
ATOM      5  C   UNL d   1      50.680  33.626  53.178  0.00  0.00     0.100 A 
ATOM      6  C   UNL d   1      51.117  34.135  51.917  0.00  0.00     0.100 A 
ENDROOT
BRANCH   2   7
ATOM      7  C   UNL d   1      51.966  33.262  52.673  0.00  0.00     0.084 C 
BRANCH   7   8
ATOM      8  C   UNL d   1      52.500  33.514  53.242  0.00  0.00     0.059 A 
ATOM      9  C   UNL d   1      52.953  32.946  53.640  0.00  0.00     0.214 A 
ATOM     10  C   UNL d   1      53.498  33.194  54.221  0.00  0.00     0.121 A 
ATOM     11  O   UNL d   1      52.873  32.150  53.474  0.00  0.00    -0.285 OA
ATOM     12  N   UNL d   1      53.950  32.626  54.619  0.00  0.00    -0.241 NA
ATOM     13  C   UNL d   1      53.584  33.996  54.395  0.00  0.00     0.032 A 
ATOM     14  C   UNL d   1      54.492  32.876  55.196  0.00  0.00     0.099 A 
ATOM     15  C   UNL d   1      54.578  33.678  55.370  0.00  0.00     0.021 A 
ATOM     16  C   UNL d   1      54.122  34.230  54.966  0.00  0.00     0.004 A 
ATOM     17  C   UNL d   1      53.131  34.548  53.994  0.00  0.00     0.059 A 
ATOM     18  C   UNL d   1      52.587  34.316  53.416  0.00  0.00     0.016 A 
ATOM     19 CL   UNL d   1      53.218  35.357  54.169  0.00  0.00    -0.082 Cl
ENDBRANCH   7   8
ENDBRANCH   2   7
BRANCH   1  20
ATOM     20  C   UNL d   1      49.134  34.916  52.317  0.00  0.00     0.064 A 
ATOM     21  C   UNL d   1      48.877  35.414  52.921  0.00  0.00     0.020 A 
ATOM     22  C   UNL d   1      48.165  35.832  52.840  0.00  0.00     0.031 A 
ATOM     23  C   UNL d   1      47.710  35.748  52.147  0.00  0.00     0.140 A 
ATOM     24  C   UNL d   1      47.977  35.247  51.548  0.00  0.00     0.031 A 
ATOM     25  F   UNL d   1      47.008  36.163  52.071  0.00  0.00    -0.204 F 
ATOM     26  C   UNL d   1      48.687  34.833  51.634  0.00  0.00     0.020 A 
ENDBRANCH   1  20
TORSDOF 3
ENDMDL
MODEL 2
REMARK VINA RESULT:      -8.8      2.321      5.344
REMARK  3 active torsions:
REMARK  status: ('A' for Active; 'I' for Inactive)
REMARK    1  A    between atoms: C_9  and  C_1 
REMARK    2  A    between atoms: C_11  and  N_5 
REMARK    3  A    between atoms: N_8  and  C_9 
ROOT
ATOM      1  N   UNL d   1      52.108  33.780  53.413  0.00  0.00    -0.301 N 
ATOM      2  N   UNL d   1      50.783  33.990  52.442  0.00  0.00    -0.300 N 
ATOM      3  C   UNL d   1      51.437  33.300  53.512  0.00  0.00     0.100 A 
ATOM      4  C   UNL d   1      52.112  34.366  52.826  0.00  0.00     0.100 A 
ATOM      5  C   UNL d   1      50.767  33.404  53.023  0.00  0.00     0.100 A 
ATOM      6  C   UNL d   1      51.454  34.461  52.352  0.00  0.00     0.100 A 
ENDROOT
BRANCH   2   7
ATOM      7  C   UNL d   1      50.125  34.101  51.953  0.00  0.00     0.084 C 
BRANCH   7   8
ATOM      8  C   UNL d   1      49.533  34.611  52.202  0.00  0.00     0.059 A 
ATOM      9  C   UNL d   1      48.914  34.785  51.679  0.00  0.00     0.214 A 
ATOM     10  C   UNL d   1      48.309  35.304  51.925  0.00  0.00     0.121 A 
ATOM     11  O   UNL d   1      48.889  34.457  50.931  0.00  0.00    -0.285 OA
ATOM     12  N   UNL d   1      47.691  35.477  51.402  0.00  0.00    -0.241 NA
ATOM     13  C   UNL d   1      48.328  35.638  52.678  0.00  0.00     0.032 A 
ATOM     14  C   UNL d   1      47.089  35.994  51.648  0.00  0.00     0.099 A 
ATOM     15  C   UNL d   1      47.107  36.328  52.402  0.00  0.00     0.021 A 
ATOM     16  C   UNL d   1      47.728  36.147  52.910  0.00  0.00     0.004 A 
ATOM     17  C   UNL d   1      48.945  35.458  53.185  0.00  0.00     0.059 A 
ATOM     18  C   UNL d   1      49.552  34.946  52.955  0.00  0.00     0.016 A 
ATOM     19 CL   UNL d   1      48.964  35.796  53.946  0.00  0.00    -0.082 Cl
ENDBRANCH   7   8
ENDBRANCH   2   7
BRANCH   1  20
ATOM     20  C   UNL d   1      52.759  33.673  53.894  0.00  0.00     0.064 A 
ATOM     21  C   UNL d   1      53.231  33.005  53.795  0.00  0.00     0.020 A 
ATOM     22  C   UNL d   1      53.894  32.889  54.281  0.00  0.00     0.031 A 
ATOM     23  C   UNL d   1      54.081  33.450  54.867  0.00  0.00     0.140 A 
ATOM     24  C   UNL d   1      53.602  34.116  54.958  0.00  0.00     0.031 A 
ATOM     25  F   UNL d   1      54.737  33.331  55.344  0.00  0.00    -0.204 F 
ATOM     26  C   UNL d   1      52.943  34.225  54.471  0.00  0.00     0.020 A 
ENDBRANCH   1  20
TORSDOF 3
ENDMDL
MODEL 3
REMARK VINA RESULT:      -7.8      2.631      5.399
REMARK  3 active torsions:
REMARK  status: ('A' for Active; 'I' for Inactive)
REMARK    1  A    between atoms: C_9  and  C_1 
REMARK    2  A    between atoms: C_11  and  N_5 
REMARK    3  A    between atoms: N_8  and  C_9 
ROOT
ATOM      1  N   UNL d   1      52.194  32.709  53.226  0.00  0.00    -0.301 N 
ATOM      2  N   UNL d   1      51.261  34.076  53.217  0.00  0.00    -0.300 N 
ATOM      3  C   UNL d   1      52.513  33.430  52.964  0.00  0.00     0.100 A 
ATOM      4  C   UNL d   1      51.407  32.676  53.483  0.00  0.00     0.100 A 
ATOM      5  C   UNL d   1      52.043  34.122  52.958  0.00  0.00     0.100 A 
ATOM      6  C   UNL d   1      50.954  33.356  53.475  0.00  0.00     0.100 A 
ENDROOT
BRANCH   2   7
ATOM      7  C   UNL d   1      50.788  34.756  53.215  0.00  0.00     0.084 C 
BRANCH   7   8
ATOM      8  C   UNL d   1      50.154  34.792  52.695  0.00  0.00     0.059 A 
ATOM      9  C   UNL d   1      49.460  35.168  52.943  0.00  0.00     0.214 A 
ATOM     10  C   UNL d   1      48.811  35.208  52.421  0.00  0.00     0.121 A 
ATOM     11  O   UNL d   1      49.402  35.499  53.688  0.00  0.00    -0.285 OA
ATOM     12  N   UNL d   1      48.117  35.585  52.669  0.00  0.00    -0.241 NA
ATOM     13  C   UNL d   1      48.862  34.877  51.667  0.00  0.00     0.032 A 
ATOM     14  C   UNL d   1      47.471  35.624  52.148  0.00  0.00     0.099 A 
ATOM     15  C   UNL d   1      47.522  35.292  51.394  0.00  0.00     0.021 A 
ATOM     16  C   UNL d   1      48.218  34.922  51.162  0.00  0.00     0.004 A 
ATOM     17  C   UNL d   1      49.554  34.507  51.435  0.00  0.00     0.059 A 
ATOM     18  C   UNL d   1      50.205  34.460  51.942  0.00  0.00     0.016 A 
ATOM     19 CL   UNL d   1      49.606  34.172  50.674  0.00  0.00    -0.082 Cl
ENDBRANCH   7   8
ENDBRANCH   2   7
BRANCH   1  20
ATOM     20  C   UNL d   1      52.658  32.038  53.229  0.00  0.00     0.064 A 
ATOM     21  C   UNL d   1      53.413  32.067  53.557  0.00  0.00     0.020 A 
ATOM     22  C   UNL d   1      53.891  31.389  53.564  0.00  0.00     0.031 A 
ATOM     23  C   UNL d   1      53.605  30.677  53.238  0.00  0.00     0.140 A 
ATOM     24  C   UNL d   1      52.847  30.659  52.911  0.00  0.00     0.031 A 
ATOM     25  F   UNL d   1      54.080  30.010  53.246  0.00  0.00    -0.204 F 
ATOM     26  C   UNL d   1      52.377  31.338  52.908  0.00  0.00     0.020 A 
ENDBRANCH   1  20
TORSDOF 3
ENDMDL
MODEL 4
REMARK VINA RESULT:      -7.2      1.436      1.909
REMARK  3 active torsions:
REMARK  status: ('A' for Active; 'I' for Inactive)
REMARK    1  A    between atoms: C_9  and  C_1 
REMARK    2  A    between atoms: C_11  and  N_5 
REMARK    3  A    between atoms: N_8  and  C_9 
ROOT
ATOM      1  N   UNL d   1      49.873  34.595  52.136  0.00  0.00    -0.301 N 
ATOM      2  N   UNL d   1      51.322  34.273  52.869  0.00  0.00    -0.300 N 
ATOM      3  C   UNL d   1      50.556  34.481  51.677  0.00  0.00     0.100 A 
ATOM      4  C   UNL d   1      49.918  34.547  52.962  0.00  0.00     0.100 A 
ATOM      5  C   UNL d   1      51.289  34.318  52.046  0.00  0.00     0.100 A 
ATOM      6  C   UNL d   1      50.638  34.387  53.315  0.00  0.00     0.100 A 
ENDROOT
BRANCH   2   7
ATOM      7  C   UNL d   1      52.043  34.112  53.242  0.00  0.00     0.084 C 
BRANCH   7   8
ATOM      8  C   UNL d   1      52.310  33.337  53.262  0.00  0.00     0.059 A 
ATOM      9  C   UNL d   1      53.120  33.199  53.371  0.00  0.00     0.214 A 
ATOM     10  C   UNL d   1      53.399  32.413  53.392  0.00  0.00     0.121 A 
ATOM     11  O   UNL d   1      53.645  33.819  53.457  0.00  0.00    -0.285 OA
ATOM     12  N   UNL d   1      54.208  32.276  53.501  0.00  0.00    -0.241 NA
ATOM     13  C   UNL d   1      52.874  31.783  53.305  0.00  0.00     0.032 A 
ATOM     14  C   UNL d   1      54.484  31.493  53.522  0.00  0.00     0.099 A 
ATOM     15  C   UNL d   1      53.959  30.862  53.435  0.00  0.00     0.021 A 
ATOM     16  C   UNL d   1      53.159  31.015  53.328  0.00  0.00     0.004 A 
ATOM     17  C   UNL d   1      52.076  31.932  53.198  0.00  0.00     0.059 A 
ATOM     18  C   UNL d   1      51.786  32.706  53.175  0.00  0.00     0.016 A 
ATOM     19 CL   UNL d   1      51.547  31.295  53.111  0.00  0.00    -0.082 Cl
ENDBRANCH   7   8
ENDBRANCH   2   7
BRANCH   1  20
ATOM     20  C   UNL d   1      49.161  34.754  51.770  0.00  0.00     0.064 A 
ATOM     21  C   UNL d   1      48.620  35.256  52.136  0.00  0.00     0.020 A 
ATOM     22  C   UNL d   1      47.893  35.422  51.770  0.00  0.00     0.031 A 
ATOM     23  C   UNL d   1      47.713  35.080  51.032  0.00  0.00     0.140 A 
ATOM     24  C   UNL d   1      48.262  34.578  50.675  0.00  0.00     0.031 A 
ATOM     25  F   UNL d   1      46.995  35.246  50.674  0.00  0.00    -0.204 F 
ATOM     26  C   UNL d   1      48.983  34.416  51.044  0.00  0.00     0.020 A 
ENDBRANCH   1  20
TORSDOF 3
ENDMDL
