MODEL 1
REMARK VINA RESULT:       0.8      0.000      0.000
REMARK  4 active torsions:
REMARK  status: ('A' for Active; 'I' for Inactive)
REMARK    1  A    between atoms: C_4  and  N_1 
REMARK    2  A    between atoms: C_8  and  C_2 
REMARK    3  A    between atoms: C_17  and  C_6 
REMARK    4  A    between atoms: C_7  and  C_8 
ROOT
ATOM      1  N   UNL d   1      58.611  -2.104  29.783  0.00  0.00    -0.255 N 
ATOM      2  C   UNL d   1      57.984  -1.028  30.253  0.00  0.00     0.101 A 
ATOM      3  C   UNL d   1      57.938  -2.363  30.201  0.00  0.00     0.305 A 
ATOM      4  C   UNL d   1      57.551  -1.700  30.491  0.00  0.00     0.256 A 
ATOM      5  C   UNL d   1      58.629  -1.289  29.821  0.00  0.00     0.075 A 
ATOM      6  O   UNL d   1      57.701  -3.146  30.306  0.00  0.00    -0.263 OA
ATOM      7  O   UNL d   1      56.858  -1.701  30.938  0.00  0.00    -0.281 OA
ENDROOT
BRANCH   2   8
ATOM      8  C   UNL d   1      57.792  -0.243  30.425  0.00  0.00     0.223 C 
ATOM      9  O   UNL d   1      57.896   0.340  29.863  0.00  0.00    -0.284 OA
BRANCH   8  10
ATOM     10  C   UNL d   1      57.494  -0.045  31.169  0.00  0.00     0.139 A 
ATOM     11  O   UNL d   1      56.697  -0.059  31.390  0.00  0.00    -0.304 OA
ATOM     12  C   UNL d   1      56.654   0.179  32.175  0.00  0.00     0.100 A 
ATOM     13  C   UNL d   1      56.014   0.270  32.687  0.00  0.00     0.025 A 
ATOM     14  C   UNL d   1      57.412   0.340  32.444  0.00  0.00     0.025 A 
ATOM     15  C   UNL d   1      56.132   0.519  33.452  0.00  0.00     0.002 A 
ATOM     16  C   UNL d   1      56.900   0.681  33.720  0.00  0.00     0.000 A 
ATOM     17  C   UNL d   1      57.534   0.591  33.216  0.00  0.00     0.002 A 
ATOM     18  C   UNL d   1      57.933   0.202  31.822  0.00  0.00     0.030 A 
ENDBRANCH   8  10
ENDBRANCH   2   8
BRANCH   5  19
ATOM     19  C   UNL d   1      59.203  -0.795  29.481  0.00  0.00     0.017 A 
ATOM     20  C   UNL d   1      59.954  -0.747  29.814  0.00  0.00     0.001 A 
ATOM     21  C   UNL d   1      60.525  -0.255  29.476  0.00  0.00     0.000 A 
ATOM     22  C   UNL d   1      60.338   0.187  28.804  0.00  0.00     0.000 A 
ATOM     23  C   UNL d   1      59.581   0.138  28.470  0.00  0.00     0.000 A 
ATOM     24  C   UNL d   1      60.908   0.682  28.462  0.00  0.00     0.000 C 
ATOM     25  C   UNL d   1      59.013  -0.359  28.816  0.00  0.00     0.001 A 
ENDBRANCH   5  19
BRANCH   1  26
ATOM     26  C   UNL d   1      59.162  -2.592  29.398  0.00  0.00     0.179 A 
ATOM     27  N   UNL d   1      59.148  -2.790  28.604  0.00  0.00    -0.108 NA
ATOM     28  O   UNL d   1      59.798  -3.284  28.459  0.00  0.00    -0.210 OA
ATOM     29  C   UNL d   1      60.205  -3.387  29.164  0.00  0.00     0.128 A 
ATOM     30  C   UNL d   1      59.808  -2.953  29.758  0.00  0.00     0.067 A 
ATOM     31  C   UNL d   1      60.886  -3.835  29.283  0.00  0.00     0.029 C 
ENDBRANCH   1  26
TORSDOF 4
ENDMDL
