MODEL 1
REMARK VINA RESULT:      39.0      0.000      0.000
REMARK  5 active torsions:
REMARK  status: ('A' for Active; 'I' for Inactive)
REMARK    1  A    between atoms: C_2  and  N_1 
REMARK    2  A    between atoms: O_4  and  N_1 
REMARK    3  A    between atoms: C_8  and  C_2 
REMARK    4  A    between atoms: C_3  and  O_4 
REMARK    5  A    between atoms: C_5  and  C_3 
ROOT
ATOM      1  O   UNL d   1      59.613  49.423  50.759  0.00  0.00    -0.168 OA
ENDROOT
BRANCH   1   2
ATOM      2  C   UNL d   1      58.772  49.560  51.084  0.00  0.00     0.319 C 
ATOM      3  O   UNL d   1      58.638  49.704  51.961  0.00  0.00    -0.257 OA
BRANCH   2   4
ATOM      4  C   UNL d   1      58.121  49.552  50.568  0.00  0.00     0.065 A 
ATOM      5  C   UNL d   1      58.221  49.707  49.767  0.00  0.00     0.006 A 
ATOM      6  C   UNL d   1      57.583  49.697  49.273  0.00  0.00     0.007 A 
ATOM      7  C   UNL d   1      56.821  49.534  49.546  0.00  0.00     0.035 A 
ATOM      8  C   UNL d   1      56.721  49.378  50.349  0.00  0.00     0.007 A 
ATOM      9 BR   UNL d   1      56.169  49.524  49.038  0.00  0.00    -0.049 Br
ATOM     10  C   UNL d   1      57.366  49.384  50.875  0.00  0.00     0.006 A 
ENDBRANCH   2   4
ENDBRANCH   1   2
BRANCH   1  11
ATOM     11  N   UNL d   1      60.246  49.309  51.260  0.00  0.00    -0.102 NA
BRANCH  11  12
ATOM     12  C   UNL d   1      60.966  49.027  50.984  0.00  0.00     0.210 C 
ATOM     13  N   UNL d   1      61.575  49.563  50.834  0.00  0.00    -0.125 N 
BRANCH  12  14
ATOM     14  C   UNL d   1      61.094  48.229  50.855  0.00  0.00     0.043 A 
ATOM     15  C   UNL d   1      60.907  47.671  51.420  0.00  0.00     0.024 A 
ATOM     16  C   UNL d   1      61.035  46.870  51.291  0.00  0.00     0.099 A 
ATOM     17  N   UNL d   1      61.362  46.638  50.568  0.00  0.00    -0.242 NA
ATOM     18  C   UNL d   1      61.557  47.183  49.989  0.00  0.00     0.099 A 
ATOM     19  C   UNL d   1      61.421  47.983  50.136  0.00  0.00     0.024 A 
ENDBRANCH  12  14
ENDBRANCH  11  12
ENDBRANCH   1  11
TORSDOF 5
ENDMDL
