MODEL 1
REMARK VINA RESULT:      37.6      0.000      0.000
REMARK  2 active torsions:
REMARK  status: ('A' for Active; 'I' for Inactive)
REMARK    1  A    between atoms: C_6  and  C_1 
REMARK    2  A    between atoms: C_8  and  N_3 
REMARK       I    between atoms: N_7  and  C_6 
ROOT
ATOM      1  C   UNL d   1      15.152  13.527  -0.573  0.00  0.00     0.124 A 
ATOM      2  C   UNL d   1      14.865  13.480  -1.360  0.00  0.00     0.181 A 
ATOM      3  N   UNL d   1      14.357  12.813  -1.403  0.00  0.00    -0.276 N 
ATOM      4  C   UNL d   1      14.330  12.456  -0.660  0.00  0.00     0.152 A 
ATOM      5  S   UNL d   1      14.819  12.889  -0.134  0.00  0.00    -0.051 SA
ATOM      6  S   UNL d   1      13.898  11.790  -0.463  0.00  0.00    -0.052 SA
ATOM      7  N   UNL d   1      15.102  14.039  -1.916  0.00  0.00    -0.128 N 
ENDROOT
BRANCH   1   8
ATOM      8  C   UNL d   1      15.667  14.123  -0.342  0.00  0.00     0.274 C 
ATOM      9  N   UNL d   1      15.438  14.909  -0.417  0.00  0.00    -0.267 N 
ATOM     10  C   UNL d   1      14.684  15.111  -0.726  0.00  0.00     0.110 A 
ATOM     11  C   UNL d   1      15.958  15.525  -0.184  0.00  0.00     0.110 A 
ATOM     12  C   UNL d   1      14.462  15.912  -0.797  0.00  0.00     0.142 A 
ATOM     13  O   UNL d   1      14.985  16.506  -0.564  0.00  0.00    -0.300 OA
ATOM     14  C   UNL d   1      15.729  16.311  -0.259  0.00  0.00     0.142 A 
ATOM     15  O   UNL d   1      16.405  13.938  -0.040  0.00  0.00    -0.266 OA
ENDBRANCH   1   8
BRANCH   3  16
ATOM     16  C   UNL d   1      13.952  12.564  -2.090  0.00  0.00     0.067 A 
ATOM     17  C   UNL d   1      13.229  12.186  -2.028  0.00  0.00     0.018 A 
ATOM     18  C   UNL d   1      12.831  11.940  -2.723  0.00  0.00     0.002 A 
ATOM     19  C   UNL d   1      13.164  12.078  -3.455  0.00  0.00     0.000 A 
ATOM     20  C   UNL d   1      13.898  12.462  -3.512  0.00  0.00     0.002 A 
ATOM     21  C   UNL d   1      12.769  11.834  -4.137  0.00  0.00     0.000 C 
ATOM     22  C   UNL d   1      14.294  12.706  -2.834  0.00  0.00     0.018 A 
ENDBRANCH   3  16
TORSDOF 2
ENDMDL
