MODEL 1
REMARK VINA RESULT:      30.0      0.000      0.000
REMARK  1 active torsions:
REMARK  status: ('A' for Active; 'I' for Inactive)
REMARK    1  A    between atoms: C_2  and  N_1 
ROOT
ATOM      1  C   UNL d   1      46.230 -18.683  43.422  0.00  0.00     0.169 A 
ATOM      2  C   UNL d   1      46.319 -19.117  42.749  0.00  0.00     0.060 A 
ATOM      3  C   UNL d   1      46.312 -19.964  42.795  0.00  0.00     0.115 A 
ATOM      4  S   UNL d   1      46.413 -20.260  42.041  0.00  0.00    -0.068 SA
ATOM      5  C   UNL d   1      46.425 -18.934  41.956  0.00  0.00     0.011 A 
ATOM      6  N   UNL d   1      46.133 -19.027  44.144  0.00  0.00    -0.208 NA
ATOM      7  N   UNL d   1      46.217 -20.324  43.509  0.00  0.00    -0.220 NA
ATOM      8  C   UNL d   1      46.482 -19.642  41.523  0.00  0.00     0.031 A 
ATOM      9  C   UNL d   1      46.122 -19.881  44.222  0.00  0.00     0.165 A 
ATOM     10  C   UNL d   1      46.479 -18.206  41.559  0.00  0.00     0.001 A 
ATOM     11  C   UNL d   1      46.591 -19.620  40.710  0.00  0.00     0.006 A 
ATOM     12  C   UNL d   1      46.024 -20.257  44.954  0.00  0.00     0.042 C 
ATOM     13  C   UNL d   1      46.588 -18.206  40.741  0.00  0.00     0.000 A 
ATOM     14  C   UNL d   1      46.646 -18.924  40.300  0.00  0.00     0.001 A 
ENDROOT
BRANCH   1  15
ATOM     15  N   UNL d   1      46.235 -17.855  43.388  0.00  0.00    -0.193 N 
ATOM     16  N   UNL d   1      46.631 -17.416  42.825  0.00  0.00    -0.058 NA
ATOM     17  N   UNL d   1      46.500 -16.603  42.981  0.00  0.00    -0.129 NA
ATOM     18  C   UNL d   1      46.016 -16.550  43.650  0.00  0.00     0.122 A 
ATOM     19  C   UNL d   1      45.849 -17.302  43.906  0.00  0.00     0.105 A 
ATOM     20  C   UNL d   1      45.723 -15.913  44.036  0.00  0.00     0.022 A 
ATOM     21  C   UNL d   1      45.394 -17.445  44.541  0.00  0.00     0.021 A 
ATOM     22  C   UNL d   1      45.081 -16.803  44.955  0.00  0.00     0.002 A 
ATOM     23  C   UNL d   1      45.252 -16.029  44.693  0.00  0.00     0.002 A 
ENDBRANCH   1  15
TORSDOF 1
ENDMDL
