MODEL 1
REMARK VINA RESULT:      -8.3      0.000      0.000
REMARK  3 active torsions:
REMARK  status: ('A' for Active; 'I' for Inactive)
REMARK    1  A    between atoms: S_3  and  N_1 
REMARK    2  A    between atoms: C_8  and  C_4 
REMARK    3  A    between atoms: C_7  and  C_5 
ROOT
ATOM      1  N   UNL d   1     -49.201  12.968  22.415  0.00  0.00    -0.155 N 
ATOM      2  N   UNL d   1     -48.605  12.383  22.429  0.00  0.00    -0.155 NA
ATOM      3  C   UNL d   1     -48.997  13.544  22.946  0.00  0.00     0.096 A 
ATOM      4  C   UNL d   1     -48.044  12.624  22.979  0.00  0.00     0.110 A 
ATOM      5  C   UNL d   1     -48.287  13.360  23.310  0.00  0.00     0.041 A 
ENDROOT
BRANCH   3   6
ATOM      6  C   UNL d   1     -49.440  14.222  23.101  0.00  0.00     0.018 A 
ATOM      7  C   UNL d   1     -49.142  14.960  22.916  0.00  0.00     0.002 A 
ATOM      8  C   UNL d   1     -48.396  15.024  22.572  0.00  0.00     0.000 C 
ATOM      9  C   UNL d   1     -49.585  15.638  23.071  0.00  0.00     0.000 A 
ATOM     10  C   UNL d   1     -50.326  15.579  23.411  0.00  0.00     0.000 A 
ATOM     11  C   UNL d   1     -50.633  14.833  23.601  0.00  0.00     0.000 A 
ATOM     12  C   UNL d   1     -50.190  14.154  23.446  0.00  0.00     0.002 A 
ENDBRANCH   3   6
BRANCH   1  13
ATOM     13  S   UNL d   1     -49.858  12.942  21.945  0.00  0.00     0.266 S 
ATOM     14  O   UNL d   1     -50.265  12.571  22.542  0.00  0.00    -0.203 OA
ATOM     15  O   UNL d   1     -49.451  13.325  21.315  0.00  0.00    -0.203 OA
ATOM     16  C   UNL d   1     -50.554  12.918  21.437  0.00  0.00     0.165 C 
ENDBRANCH   1  13
BRANCH   4  17
ATOM     17  C   UNL d   1     -47.353  12.224  23.184  0.00  0.00     0.049 A 
ATOM     18  S   UNL d   1     -47.340  11.528  23.609  0.00  0.00    -0.085 SA
ATOM     19  C   UNL d   1     -46.548  11.312  23.698  0.00  0.00     0.035 A 
ATOM     20  C   UNL d   1     -46.069  11.877  23.325  0.00  0.00     0.007 A 
ATOM     21  C   UNL d   1     -46.566  12.428  23.016  0.00  0.00     0.009 A 
ENDBRANCH   4  17
TORSDOF 3
ENDMDL
MODEL 2
REMARK VINA RESULT:      -8.1      1.447      2.086
REMARK  3 active torsions:
REMARK  status: ('A' for Active; 'I' for Inactive)
REMARK    1  A    between atoms: S_3  and  N_1 
REMARK    2  A    between atoms: C_8  and  C_4 
REMARK    3  A    between atoms: C_7  and  C_5 
ROOT
ATOM      1  N   UNL d   1     -48.613  14.254  22.832  0.00  0.00    -0.155 N 
ATOM      2  N   UNL d   1     -47.785  14.334  22.762  0.00  0.00    -0.155 NA
ATOM      3  C   UNL d   1     -48.787  13.464  22.833  0.00  0.00     0.096 A 
ATOM      4  C   UNL d   1     -47.471  13.577  22.722  0.00  0.00     0.110 A 
ATOM      5  C   UNL d   1     -48.102  13.019  22.767  0.00  0.00     0.041 A 
ENDROOT
BRANCH   3   6
ATOM      6  C   UNL d   1     -49.546  13.146  22.893  0.00  0.00     0.018 A 
ATOM      7  C   UNL d   1     -49.868  12.728  22.271  0.00  0.00     0.002 A 
ATOM      8  C   UNL d   1     -49.431  12.623  21.580  0.00  0.00     0.000 C 
ATOM      9  C   UNL d   1     -50.628  12.411  22.331  0.00  0.00     0.000 A 
ATOM     10  C   UNL d   1     -51.064  12.512  23.014  0.00  0.00     0.000 A 
ATOM     11  C   UNL d   1     -50.742  12.936  23.649  0.00  0.00     0.000 A 
ATOM     12  C   UNL d   1     -49.983  13.253  23.589  0.00  0.00     0.002 A 
ENDBRANCH   3   6
BRANCH   1  13
ATOM     13  S   UNL d   1     -49.131  14.872  22.887  0.00  0.00     0.266 S 
ATOM     14  O   UNL d   1     -49.103  14.818  23.696  0.00  0.00    -0.203 OA
ATOM     15  O   UNL d   1     -49.171  14.943  22.048  0.00  0.00    -0.203 OA
ATOM     16  C   UNL d   1     -49.683  15.532  22.936  0.00  0.00     0.165 C 
ENDBRANCH   1  13
BRANCH   4  17
ATOM     17  C   UNL d   1     -46.675  13.375  22.650  0.00  0.00     0.049 A 
ATOM     18  S   UNL d   1     -46.290  12.859  23.150  0.00  0.00    -0.085 SA
ATOM     19  C   UNL d   1     -45.507  12.808  22.892  0.00  0.00     0.035 A 
ATOM     20  C   UNL d   1     -45.407  13.295  22.229  0.00  0.00     0.007 A 
ATOM     21  C   UNL d   1     -46.122  13.637  22.088  0.00  0.00     0.009 A 
ENDBRANCH   4  17
TORSDOF 3
ENDMDL
MODEL 3
REMARK VINA RESULT:      -7.6      1.473      3.795
REMARK  3 active torsions:
REMARK  status: ('A' for Active; 'I' for Inactive)
REMARK    1  A    between atoms: S_3  and  N_1 
REMARK    2  A    between atoms: C_8  and  C_4 
REMARK    3  A    between atoms: C_7  and  C_5 
ROOT
ATOM      1  N   UNL d   1     -47.695  13.855  22.783  0.00  0.00    -0.155 N 
ATOM      2  N   UNL d   1     -48.153  14.553  22.776  0.00  0.00    -0.155 NA
ATOM      3  C   UNL d   1     -48.163  13.253  23.052  0.00  0.00     0.096 A 
ATOM      4  C   UNL d   1     -48.902  14.352  23.047  0.00  0.00     0.110 A 
ATOM      5  C   UNL d   1     -48.915  13.528  23.224  0.00  0.00     0.041 A 
ENDROOT
BRANCH   3   6
ATOM      6  C   UNL d   1     -47.921  12.469  23.143  0.00  0.00     0.018 A 
ATOM      7  C   UNL d   1     -48.331  11.866  22.776  0.00  0.00     0.002 A 
ATOM      8  C   UNL d   1     -48.990  12.042  22.314  0.00  0.00     0.000 C 
ATOM      9  C   UNL d   1     -48.088  11.083  22.866  0.00  0.00     0.000 A 
ATOM     10  C   UNL d   1     -47.435  10.903  23.323  0.00  0.00     0.000 A 
ATOM     11  C   UNL d   1     -47.015  11.511  23.698  0.00  0.00     0.000 A 
ATOM     12  C   UNL d   1     -47.257  12.294  23.608  0.00  0.00     0.002 A 
ENDBRANCH   3   6
BRANCH   1  13
ATOM     13  S   UNL d   1     -46.921  13.813  22.555  0.00  0.00     0.266 S 
ATOM     14  O   UNL d   1     -47.157  13.626  21.801  0.00  0.00    -0.203 OA
ATOM     15  O   UNL d   1     -46.658  14.006  23.332  0.00  0.00    -0.203 OA
ATOM     16  C   UNL d   1     -46.092  13.770  22.321  0.00  0.00     0.165 C 
ENDBRANCH   1  13
BRANCH   4  17
ATOM     17  C   UNL d   1     -49.546  14.859  23.138  0.00  0.00     0.049 A 
ATOM     18  S   UNL d   1     -50.219  14.824  22.679  0.00  0.00    -0.085 SA
ATOM     19  C   UNL d   1     -50.726  15.421  22.943  0.00  0.00     0.035 A 
ATOM     20  C   UNL d   1     -50.363  15.827  23.568  0.00  0.00     0.007 A 
ATOM     21  C   UNL d   1     -49.646  15.480  23.681  0.00  0.00     0.009 A 
ENDBRANCH   4  17
TORSDOF 3
ENDMDL
MODEL 4
REMARK VINA RESULT:      -6.8      1.319      3.537
REMARK  3 active torsions:
REMARK  status: ('A' for Active; 'I' for Inactive)
REMARK    1  A    between atoms: S_3  and  N_1 
REMARK    2  A    between atoms: C_8  and  C_4 
REMARK    3  A    between atoms: C_7  and  C_5 
ROOT
ATOM      1  N   UNL d   1     -48.432  12.904  22.824  0.00  0.00    -0.155 N 
ATOM      2  N   UNL d   1     -49.187  13.233  22.960  0.00  0.00    -0.155 NA
ATOM      3  C   UNL d   1     -47.943  13.499  22.572  0.00  0.00     0.096 A 
ATOM      4  C   UNL d   1     -49.137  14.033  22.784  0.00  0.00     0.110 A 
ATOM      5  C   UNL d   1     -48.350  14.209  22.537  0.00  0.00     0.041 A 
ENDROOT
BRANCH   3   6
ATOM      6  C   UNL d   1     -47.147  13.406  22.376  0.00  0.00     0.018 A 
ATOM      7  C   UNL d   1     -46.573  13.824  22.778  0.00  0.00     0.002 A 
ATOM      8  C   UNL d   1     -46.791  14.341  23.382  0.00  0.00     0.000 C 
ATOM      9  C   UNL d   1     -45.777  13.731  22.583  0.00  0.00     0.000 A 
ATOM     10  C   UNL d   1     -45.555  13.220  21.986  0.00  0.00     0.000 A 
ATOM     11  C   UNL d   1     -46.134  12.793  21.574  0.00  0.00     0.000 A 
ATOM     12  C   UNL d   1     -46.930  12.885  21.769  0.00  0.00     0.002 A 
ENDBRANCH   3   6
BRANCH   1  13
ATOM     13  S   UNL d   1     -48.244  12.125  22.932  0.00  0.00     0.266 S 
ATOM     14  O   UNL d   1     -48.031  12.287  23.698  0.00  0.00    -0.203 OA
ATOM     15  O   UNL d   1     -48.461  11.940  22.139  0.00  0.00    -0.203 OA
ATOM     16  C   UNL d   1     -48.047  11.293  23.037  0.00  0.00     0.165 C 
ENDBRANCH   1  13
BRANCH   4  17
ATOM     17  C   UNL d   1     -49.744  14.588  22.835  0.00  0.00     0.049 A 
ATOM     18  S   UNL d   1     -50.478  14.491  22.492  0.00  0.00    -0.085 SA
ATOM     19  C   UNL d   1     -50.922  15.164  22.670  0.00  0.00     0.035 A 
ATOM     20  C   UNL d   1     -50.460  15.680  23.126  0.00  0.00     0.007 A 
ATOM     21  C   UNL d   1     -49.746  15.323  23.222  0.00  0.00     0.009 A 
ENDBRANCH   4  17
TORSDOF 3
ENDMDL
MODEL 5
REMARK VINA RESULT:      -6.6      9.218     10.735
REMARK  3 active torsions:
REMARK  status: ('A' for Active; 'I' for Inactive)
REMARK    1  A    between atoms: S_3  and  N_1 
REMARK    2  A    between atoms: C_8  and  C_4 
REMARK    3  A    between atoms: C_7  and  C_5 
ROOT
ATOM      1  N   UNL d   1     -40.255  15.014  17.986  0.00  0.00    -0.155 N 
ATOM      2  N   UNL d   1     -40.512  15.142  18.770  0.00  0.00    -0.155 NA
ATOM      3  C   UNL d   1     -39.513  14.690  18.017  0.00  0.00     0.096 A 
ATOM      4  C   UNL d   1     -39.909  14.888  19.266  0.00  0.00     0.110 A 
ATOM      5  C   UNL d   1     -39.272  14.600  18.794  0.00  0.00     0.041 A 
ENDROOT
BRANCH   3   6
ATOM      6  C   UNL d   1     -39.062  14.480  17.359  0.00  0.00     0.018 A 
ATOM      7  C   UNL d   1     -38.843  13.702  17.242  0.00  0.00     0.002 A 
ATOM      8  C   UNL d   1     -39.075  13.126  17.784  0.00  0.00     0.000 C 
ATOM      9  C   UNL d   1     -38.391  13.492  16.585  0.00  0.00     0.000 A 
ATOM     10  C   UNL d   1     -38.158  14.059  16.045  0.00  0.00     0.000 A 
ATOM     11  C   UNL d   1     -38.377  14.850  16.159  0.00  0.00     0.000 A 
ATOM     12  C   UNL d   1     -38.829  15.061  16.816  0.00  0.00     0.002 A 
ENDBRANCH   3   6
BRANCH   1  13
ATOM     13  S   UNL d   1     -40.688  15.190  17.327  0.00  0.00     0.266 S 
ATOM     14  O   UNL d   1     -40.338  15.922  17.297  0.00  0.00    -0.203 OA
ATOM     15  O   UNL d   1     -41.061  14.435  17.342  0.00  0.00    -0.203 OA
ATOM     16  C   UNL d   1     -41.154  15.370  16.624  0.00  0.00     0.165 C 
ENDBRANCH   1  13
BRANCH   4  17
ATOM     17  C   UNL d   1     -39.909  14.904  20.090  0.00  0.00     0.049 A 
ATOM     18  S   UNL d   1     -39.473  15.433  20.534  0.00  0.00    -0.085 SA
ATOM     19  C   UNL d   1     -39.625  15.267  21.329  0.00  0.00     0.035 A 
ATOM     20  C   UNL d   1     -40.157  14.632  21.376  0.00  0.00     0.007 A 
ATOM     21  C   UNL d   1     -40.324  14.417  20.619  0.00  0.00     0.009 A 
ENDBRANCH   4  17
TORSDOF 3
ENDMDL
