MODEL 1
REMARK VINA RESULT:      -4.4      0.000      0.000
REMARK  8 active torsions:
REMARK  status: ('A' for Active; 'I' for Inactive)
REMARK    1  A    between atoms: N_6  and  C_1 
REMARK    2  A    between atoms: N_2  and  C_3 
REMARK       I    between atoms: C_4  and  N_2 
REMARK    3  A    between atoms: C_3  and  N_6 
REMARK    4  A    between atoms: C_10  and  C_4 
REMARK    5  A    between atoms: C_9  and  C_7 
REMARK    6  A    between atoms: C_12  and  C_9 
REMARK    7  A    between atoms: O_17  and  C_12 
REMARK    8  A    between atoms: C_21  and  O_17 
ROOT
ATOM      1  C   UNL d   1      57.644   0.392  31.109  0.00  0.00     0.225 C 
ATOM      2  S   UNL d   1      58.409   0.611  31.332  0.00  0.00    -0.037 SA
ENDROOT
BRANCH   1   3
ATOM      3  N   UNL d   1      56.996   0.456  31.666  0.00  0.00    -0.179 NA
ATOM      4  C   UNL d   1      56.923  -0.118  32.274  0.00  0.00     0.281 C 
ATOM      5  O   UNL d   1      57.494  -0.752  32.325  0.00  0.00    -0.265 OA
BRANCH   4   6
ATOM      6  C   UNL d   1      56.324  -0.094  32.821  0.00  0.00     0.058 A 
ATOM      7  C   UNL d   1      55.827  -0.718  32.937  0.00  0.00     0.005 A 
ATOM      8  C   UNL d   1      55.928  -1.401  32.488  0.00  0.00     0.000 C 
ATOM      9  C   UNL d   1      55.234  -0.673  33.490  0.00  0.00     0.000 A 
ATOM     10  C   UNL d   1      55.137   0.022  33.942  0.00  0.00     0.000 A 
ATOM     11  C   UNL d   1      55.633   0.682  33.845  0.00  0.00     0.000 A 
ATOM     12  C   UNL d   1      56.245   0.635  33.274  0.00  0.00     0.005 A 
ENDBRANCH   4   6
ENDBRANCH   1   3
BRANCH   1  13
ATOM     13  N   UNL d   1      57.471   0.108  30.354  0.00  0.00    -0.192 NA
BRANCH  13  14
ATOM     14  C   UNL d   1      58.105   0.018  29.819  0.00  0.00     0.196 A 
ATOM     15  N   UNL d   1      58.546  -0.660  29.598  0.00  0.00    -0.220 NA
ATOM     16  C   UNL d   1      59.103  -0.433  29.053  0.00  0.00     0.095 A 
ATOM     17  C   UNL d   1      59.029   0.398  28.913  0.00  0.00     0.058 A 
ATOM     18  S   UNL d   1      58.409   0.657  29.395  0.00  0.00    -0.046 SA
BRANCH  16  19
ATOM     19  C   UNL d   1      59.661  -0.915  28.681  0.00  0.00     0.088 C 
BRANCH  19  20
ATOM     20  C   UNL d   1      60.130  -1.432  29.100  0.00  0.00     0.302 C 
ATOM     21  O   UNL d   1      60.751  -1.169  29.563  0.00  0.00    -0.259 OA
BRANCH  20  22
ATOM     22  O   UNL d   1      59.984  -2.250  29.063  0.00  0.00    -0.271 OA
BRANCH  22  23
ATOM     23  C   UNL d   1      60.618  -2.750  28.751  0.00  0.00     0.126 C 
ATOM     24  C   UNL d   1      60.541  -3.456  28.802  0.00  0.00     0.029 C 
ENDBRANCH  22  23
ENDBRANCH  20  22
ENDBRANCH  19  20
ENDBRANCH  16  19
ENDBRANCH  13  14
ENDBRANCH   1  13
TORSDOF 8
ENDMDL
MODEL 2
REMARK VINA RESULT:      -3.0      1.177      5.491
REMARK  8 active torsions:
REMARK  status: ('A' for Active; 'I' for Inactive)
REMARK    1  A    between atoms: N_6  and  C_1 
REMARK    2  A    between atoms: N_2  and  C_3 
REMARK       I    between atoms: C_4  and  N_2 
REMARK    3  A    between atoms: C_3  and  N_6 
REMARK    4  A    between atoms: C_10  and  C_4 
REMARK    5  A    between atoms: C_9  and  C_7 
REMARK    6  A    between atoms: C_12  and  C_9 
REMARK    7  A    between atoms: O_17  and  C_12 
REMARK    8  A    between atoms: C_21  and  O_17 
ROOT
ATOM      1  C   UNL d   1      58.228   0.100  30.257  0.00  0.00     0.225 C 
ATOM      2  S   UNL d   1      57.832   0.612  29.744  0.00  0.00    -0.037 SA
ENDROOT
BRANCH   1   3
ATOM      3  N   UNL d   1      58.629  -0.594  29.953  0.00  0.00    -0.179 NA
ATOM      4  C   UNL d   1      59.284  -0.494  29.440  0.00  0.00     0.281 C 
ATOM      5  O   UNL d   1      59.538   0.295  29.230  0.00  0.00    -0.265 OA
BRANCH   4   6
ATOM      6  C   UNL d   1      59.691  -1.124  29.130  0.00  0.00     0.058 A 
ATOM      7  C   UNL d   1      60.495  -1.123  29.067  0.00  0.00     0.005 A 
ATOM      8  C   UNL d   1      60.918  -0.465  29.323  0.00  0.00     0.000 C 
ATOM      9  C   UNL d   1      60.882  -1.765  28.754  0.00  0.00     0.000 A 
ATOM     10  C   UNL d   1      60.447  -2.430  28.495  0.00  0.00     0.000 A 
ATOM     11  C   UNL d   1      59.619  -2.460  28.547  0.00  0.00     0.000 A 
ATOM     12  C   UNL d   1      59.219  -1.797  28.871  0.00  0.00     0.005 A 
ENDBRANCH   4   6
ENDBRANCH   1   3
BRANCH   1  13
ATOM     13  N   UNL d   1      58.256   0.229  31.072  0.00  0.00    -0.192 NA
BRANCH  13  14
ATOM     14  C   UNL d   1      57.530   0.261  31.484  0.00  0.00     0.196 A 
ATOM     15  N   UNL d   1      57.298  -0.079  32.214  0.00  0.00    -0.220 NA
ATOM     16  C   UNL d   1      56.526   0.129  32.356  0.00  0.00     0.095 A 
ATOM     17  C   UNL d   1      56.248   0.609  31.717  0.00  0.00     0.058 A 
ATOM     18  S   UNL d   1      56.882   0.678  31.190  0.00  0.00    -0.046 SA
BRANCH  16  19
ATOM     19  C   UNL d   1      56.066  -0.080  33.008  0.00  0.00     0.088 C 
BRANCH  19  20
ATOM     20  C   UNL d   1      56.211   0.220  33.751  0.00  0.00     0.302 C 
ATOM     21  O   UNL d   1      56.946   0.155  34.104  0.00  0.00    -0.259 OA
BRANCH  20  22
ATOM     22  O   UNL d   1      55.605   0.605  34.171  0.00  0.00    -0.271 OA
BRANCH  22  23
ATOM     23  C   UNL d   1      55.346   0.242  34.912  0.00  0.00     0.126 C 
ATOM     24  C   UNL d   1      55.294   0.657  35.487  0.00  0.00     0.029 C 
ENDBRANCH  22  23
ENDBRANCH  20  22
ENDBRANCH  19  20
ENDBRANCH  16  19
ENDBRANCH  13  14
ENDBRANCH   1  13
TORSDOF 8
ENDMDL
MODEL 3
REMARK VINA RESULT:      -2.7      0.948      5.190
REMARK  8 active torsions:
REMARK  status: ('A' for Active; 'I' for Inactive)
REMARK    1  A    between atoms: N_6  and  C_1 
REMARK    2  A    between atoms: N_2  and  C_3 
REMARK       I    between atoms: C_4  and  N_2 
REMARK    3  A    between atoms: C_3  and  N_6 
REMARK    4  A    between atoms: C_10  and  C_4 
REMARK    5  A    between atoms: C_9  and  C_7 
REMARK    6  A    between atoms: C_12  and  C_9 
REMARK    7  A    between atoms: O_17  and  C_12 
REMARK    8  A    between atoms: C_21  and  O_17 
ROOT
ATOM      1  C   UNL d   1      59.623  -0.564  29.540  0.00  0.00     0.225 C 
ATOM      2  S   UNL d   1      60.238  -0.183  29.938  0.00  0.00    -0.037 SA
ENDROOT
BRANCH   1   3
ATOM      3  N   UNL d   1      59.641  -1.413  29.427  0.00  0.00    -0.179 NA
ATOM      4  C   UNL d   1      60.211  -1.744  28.910  0.00  0.00     0.281 C 
ATOM      5  O   UNL d   1      60.762  -1.230  28.506  0.00  0.00    -0.265 OA
BRANCH   4   6
ATOM      6  C   UNL d   1      60.261  -2.544  28.775  0.00  0.00     0.058 A 
ATOM      7  C   UNL d   1      59.605  -3.004  28.695  0.00  0.00     0.005 A 
ATOM      8  C   UNL d   1      58.860  -2.657  28.750  0.00  0.00     0.000 C 
ATOM      9  C   UNL d   1      59.678  -3.802  28.561  0.00  0.00     0.000 A 
ATOM     10  C   UNL d   1      60.435  -4.148  28.506  0.00  0.00     0.000 A 
ATOM     11  C   UNL d   1      61.130  -3.700  28.584  0.00  0.00     0.000 A 
ATOM     12  C   UNL d   1      61.055  -2.876  28.723  0.00  0.00     0.005 A 
ENDBRANCH   4   6
ENDBRANCH   1   3
BRANCH   1  13
ATOM     13  N   UNL d   1      58.975  -0.153  29.238  0.00  0.00    -0.192 NA
BRANCH  13  14
ATOM     14  C   UNL d   1      58.385   0.091  29.777  0.00  0.00     0.196 A 
ATOM     15  N   UNL d   1      58.317  -0.024  30.605  0.00  0.00    -0.220 NA
ATOM     16  C   UNL d   1      57.630   0.331  30.854  0.00  0.00     0.095 A 
ATOM     17  C   UNL d   1      57.244   0.681  30.187  0.00  0.00     0.058 A 
ATOM     18  S   UNL d   1      57.726   0.522  29.534  0.00  0.00    -0.046 SA
BRANCH  16  19
ATOM     19  C   UNL d   1      57.336   0.360  31.624  0.00  0.00     0.088 C 
BRANCH  19  20
ATOM     20  C   UNL d   1      56.809  -0.194  31.904  0.00  0.00     0.302 C 
ATOM     21  O   UNL d   1      56.940  -0.996  31.810  0.00  0.00    -0.259 OA
BRANCH  20  22
ATOM     22  O   UNL d   1      56.117   0.049  32.298  0.00  0.00    -0.271 OA
BRANCH  22  23
ATOM     23  C   UNL d   1      55.997  -0.245  33.102  0.00  0.00     0.126 C 
ATOM     24  C   UNL d   1      55.337  -0.427  33.295  0.00  0.00     0.029 C 
ENDBRANCH  22  23
ENDBRANCH  20  22
ENDBRANCH  19  20
ENDBRANCH  16  19
ENDBRANCH  13  14
ENDBRANCH   1  13
TORSDOF 8
ENDMDL
MODEL 4
REMARK VINA RESULT:      -2.0      1.015      1.219
REMARK  8 active torsions:
REMARK  status: ('A' for Active; 'I' for Inactive)
REMARK    1  A    between atoms: N_6  and  C_1 
REMARK    2  A    between atoms: N_2  and  C_3 
REMARK       I    between atoms: C_4  and  N_2 
REMARK    3  A    between atoms: C_3  and  N_6 
REMARK    4  A    between atoms: C_10  and  C_4 
REMARK    5  A    between atoms: C_9  and  C_7 
REMARK    6  A    between atoms: C_12  and  C_9 
REMARK    7  A    between atoms: O_17  and  C_12 
REMARK    8  A    between atoms: C_21  and  O_17 
ROOT
ATOM      1  C   UNL d   1      57.776  -0.241  30.972  0.00  0.00     0.225 C 
ATOM      2  S   UNL d   1      58.407   0.157  31.326  0.00  0.00    -0.037 SA
ENDROOT
BRANCH   1   3
ATOM      3  N   UNL d   1      57.118  -0.518  31.446  0.00  0.00    -0.179 NA
ATOM      4  C   UNL d   1      56.903  -0.091  32.134  0.00  0.00     0.281 C 
ATOM      5  O   UNL d   1      57.342   0.610  32.350  0.00  0.00    -0.265 OA
BRANCH   4   6
ATOM      6  C   UNL d   1      56.286  -0.320  32.610  0.00  0.00     0.058 A 
ATOM      7  C   UNL d   1      56.040  -1.087  32.649  0.00  0.00     0.005 A 
ATOM      8  C   UNL d   1      56.424  -1.657  32.195  0.00  0.00     0.000 C 
ATOM      9  C   UNL d   1      55.420  -1.294  33.133  0.00  0.00     0.000 A 
ATOM     10  C   UNL d   1      55.035  -0.712  33.590  0.00  0.00     0.000 A 
ATOM     11  C   UNL d   1      55.266   0.086  33.571  0.00  0.00     0.000 A 
ATOM     12  C   UNL d   1      55.906   0.300  33.072  0.00  0.00     0.005 A 
ENDBRANCH   4   6
ENDBRANCH   1   3
BRANCH   1  13
ATOM     13  N   UNL d   1      57.750  -0.388  30.161  0.00  0.00    -0.192 NA
BRANCH  13  14
ATOM     14  C   UNL d   1      58.417  -0.748  29.810  0.00  0.00     0.196 A 
ATOM     15  N   UNL d   1      58.566  -1.548  29.607  0.00  0.00    -0.220 NA
ATOM     16  C   UNL d   1      59.307  -1.592  29.279  0.00  0.00     0.095 A 
ATOM     17  C   UNL d   1      59.649  -0.818  29.266  0.00  0.00     0.058 A 
ATOM     18  S   UNL d   1      59.084  -0.312  29.598  0.00  0.00    -0.046 SA
BRANCH  16  19
ATOM     19  C   UNL d   1      59.688  -2.268  28.998  0.00  0.00     0.088 C 
BRANCH  19  20
ATOM     20  C   UNL d   1      59.548  -3.004  29.315  0.00  0.00     0.302 C 
ATOM     21  O   UNL d   1      60.058  -3.341  29.859  0.00  0.00    -0.259 OA
BRANCH  20  22
ATOM     22  O   UNL d   1      58.872  -3.434  29.089  0.00  0.00    -0.271 OA
BRANCH  22  23
ATOM     23  C   UNL d   1      58.974  -4.035  28.475  0.00  0.00     0.126 C 
ATOM     24  C   UNL d   1      58.535  -4.595  28.480  0.00  0.00     0.029 C 
ENDBRANCH  22  23
ENDBRANCH  20  22
ENDBRANCH  19  20
ENDBRANCH  16  19
ENDBRANCH  13  14
ENDBRANCH   1  13
TORSDOF 8
ENDMDL
