MODEL 1
REMARK VINA RESULT:      -6.0      0.000      0.000
REMARK  5 active torsions:
REMARK  status: ('A' for Active; 'I' for Inactive)
REMARK    1  A    between atoms: C_10  and  N_3 
REMARK    2  A    between atoms: C_12  and  N_6 
REMARK    3  A    between atoms: C_11  and  C_10 
REMARK    4  A    between atoms: O_18  and  C_11 
REMARK    5  A    between atoms: C_23  and  O_18 
ROOT
ATOM      1  C   UNL d   1     -39.644  14.520  18.866  0.00  0.00     0.172 A 
ATOM      2  C   UNL d   1     -40.324  14.510  19.333  0.00  0.00     0.113 A 
ATOM      3  N   UNL d   1     -39.589  15.082  20.414  0.00  0.00    -0.252 N 
ATOM      4  C   UNL d   1     -40.299  14.789  20.103  0.00  0.00     0.271 A 
ATOM      5  N   UNL d   1     -38.939  14.810  19.169  0.00  0.00    -0.206 NA
ATOM      6  N   UNL d   1     -39.847  14.206  18.125  0.00  0.00    -0.212 N 
ATOM      7  N   UNL d   1     -40.641  14.009  18.147  0.00  0.00    -0.162 NA
ATOM      8  C   UNL d   1     -38.910  15.092  19.947  0.00  0.00     0.187 A 
ATOM      9  C   UNL d   1     -40.935  14.190  18.872  0.00  0.00     0.129 A 
ATOM     10  O   UNL d   1     -40.978  14.779  20.571  0.00  0.00    -0.266 OA
ENDROOT
BRANCH   3  11
ATOM     11  C   UNL d   1     -39.555  15.368  21.198  0.00  0.00     0.132 C 
ATOM     12  C   UNL d   1     -40.110  15.922  21.454  0.00  0.00     0.025 C 
BRANCH  11  13
ATOM     13  C   UNL d   1     -38.965  15.095  21.715  0.00  0.00     0.317 C 
ATOM     14  O   UNL d   1     -38.248  15.484  21.755  0.00  0.00    -0.257 OA
BRANCH  13  15
ATOM     15  O   UNL d   1     -39.117  14.431  22.181  0.00  0.00    -0.270 OA
BRANCH  15  16
ATOM     16  C   UNL d   1     -38.590  14.240  22.795  0.00  0.00     0.126 C 
ATOM     17  C   UNL d   1     -38.709  13.547  23.214  0.00  0.00     0.029 C 
ENDBRANCH  15  16
ENDBRANCH  13  15
ENDBRANCH  11  13
ENDBRANCH   3  11
BRANCH   6  18
ATOM     18  C   UNL d   1     -39.376  14.096  17.471  0.00  0.00     0.085 A 
ATOM     19  C   UNL d   1     -39.335  14.681  16.887  0.00  0.00     0.020 A 
ATOM     20  C   UNL d   1     -38.858  14.567  16.227  0.00  0.00     0.013 A 
ATOM     21  C   UNL d   1     -38.421  13.888  16.135  0.00  0.00     0.058 A 
ATOM     22  C   UNL d   1     -38.461  13.292  16.728  0.00  0.00     0.013 A 
ATOM     23 CL   UNL d   1     -37.940  13.791  15.454  0.00  0.00    -0.082 Cl
ATOM     24  C   UNL d   1     -38.933  13.395  17.388  0.00  0.00     0.020 A 
ENDBRANCH   6  18
TORSDOF 5
ENDMDL
MODEL 2
REMARK VINA RESULT:      -6.0      8.111      9.445
REMARK  5 active torsions:
REMARK  status: ('A' for Active; 'I' for Inactive)
REMARK    1  A    between atoms: C_10  and  N_3 
REMARK    2  A    between atoms: C_12  and  N_6 
REMARK    3  A    between atoms: C_11  and  C_10 
REMARK    4  A    between atoms: O_18  and  C_11 
REMARK    5  A    between atoms: C_23  and  O_18 
ROOT
ATOM      1  C   UNL d   1     -47.134  13.509  22.302  0.00  0.00     0.172 A 
ATOM      2  C   UNL d   1     -47.611  14.129  22.564  0.00  0.00     0.113 A 
ATOM      3  N   UNL d   1     -48.747  13.508  21.963  0.00  0.00    -0.252 N 
ATOM      4  C   UNL d   1     -48.414  14.130  22.396  0.00  0.00     0.271 A 
ATOM      5  N   UNL d   1     -47.460  12.890  21.873  0.00  0.00    -0.206 NA
ATOM      6  N   UNL d   1     -46.360  13.667  22.557  0.00  0.00    -0.212 N 
ATOM      7  N   UNL d   1     -46.372  14.375  22.967  0.00  0.00    -0.162 NA
ATOM      8  C   UNL d   1     -48.270  12.888  21.702  0.00  0.00     0.187 A 
ATOM      9  C   UNL d   1     -47.123  14.659  22.975  0.00  0.00     0.129 A 
ATOM     10  O   UNL d   1     -48.891  14.751  22.658  0.00  0.00    -0.266 OA
ENDROOT
BRANCH   3  11
ATOM     11  C   UNL d   1     -49.563  13.502  21.789  0.00  0.00     0.132 C 
ATOM     12  C   UNL d   1     -49.902  14.148  21.402  0.00  0.00     0.025 C 
BRANCH  11  13
ATOM     13  C   UNL d   1     -50.030  12.849  22.004  0.00  0.00     0.317 C 
ATOM     14  O   UNL d   1     -50.149  12.242  21.470  0.00  0.00    -0.257 OA
BRANCH  13  15
ATOM     15  O   UNL d   1     -50.366  12.828  22.757  0.00  0.00    -0.270 OA
BRANCH  15  16
ATOM     16  C   UNL d   1     -50.951  12.261  22.922  0.00  0.00     0.126 C 
ATOM     17  C   UNL d   1     -51.064  12.026  23.697  0.00  0.00     0.029 C 
ENDBRANCH  15  16
ENDBRANCH  13  15
ENDBRANCH  11  13
ENDBRANCH   3  11
BRANCH   6  18
ATOM     18  C   UNL d   1     -45.685  13.226  22.441  0.00  0.00     0.085 A 
ATOM     19  C   UNL d   1     -45.553  12.547  22.893  0.00  0.00     0.020 A 
ATOM     20  C   UNL d   1     -44.870  12.104  22.774  0.00  0.00     0.013 A 
ATOM     21  C   UNL d   1     -44.318  12.320  22.218  0.00  0.00     0.058 A 
ATOM     22  C   UNL d   1     -44.451  13.012  21.757  0.00  0.00     0.013 A 
ATOM     23 CL   UNL d   1     -43.628  11.855  22.112  0.00  0.00    -0.082 Cl
ATOM     24  C   UNL d   1     -45.127  13.459  21.868  0.00  0.00     0.020 A 
ENDBRANCH   6  18
TORSDOF 5
ENDMDL
MODEL 3
REMARK VINA RESULT:      -6.0      2.373      4.520
REMARK  5 active torsions:
REMARK  status: ('A' for Active; 'I' for Inactive)
REMARK    1  A    between atoms: C_10  and  N_3 
REMARK    2  A    between atoms: C_12  and  N_6 
REMARK    3  A    between atoms: C_11  and  C_10 
REMARK    4  A    between atoms: O_18  and  C_11 
REMARK    5  A    between atoms: C_23  and  O_18 
ROOT
ATOM      1  C   UNL d   1     -39.946  14.877  19.663  0.00  0.00     0.172 A 
ATOM      2  C   UNL d   1     -40.489  14.480  19.186  0.00  0.00     0.113 A 
ATOM      3  N   UNL d   1     -39.877  15.038  18.024  0.00  0.00    -0.252 N 
ATOM      4  C   UNL d   1     -40.456  14.559  18.370  0.00  0.00     0.271 A 
ATOM      5  N   UNL d   1     -39.369  15.353  19.325  0.00  0.00    -0.206 NA
ATOM      6  N   UNL d   1     -40.122  14.687  20.451  0.00  0.00    -0.212 N 
ATOM      7  N   UNL d   1     -40.765  14.181  20.448  0.00  0.00    -0.162 NA
ATOM      8  C   UNL d   1     -39.333  15.435  18.501  0.00  0.00     0.187 A 
ATOM      9  C   UNL d   1     -40.992  14.052  19.688  0.00  0.00     0.129 A 
ATOM     10  O   UNL d   1     -41.000  14.162  17.893  0.00  0.00    -0.266 OA
ENDROOT
BRANCH   3  11
ATOM     11  C   UNL d   1     -39.837  15.124  17.195  0.00  0.00     0.132 C 
ATOM     12  C   UNL d   1     -40.526  15.274  16.767  0.00  0.00     0.025 C 
BRANCH  11  13
ATOM     13  C   UNL d   1     -39.106  15.058  16.804  0.00  0.00     0.317 C 
ATOM     14  O   UNL d   1     -38.595  15.695  16.788  0.00  0.00    -0.257 OA
BRANCH  13  15
ATOM     15  O   UNL d   1     -38.911  14.344  16.438  0.00  0.00    -0.270 OA
BRANCH  15  16
ATOM     16  C   UNL d   1     -38.248  14.316  15.938  0.00  0.00     0.126 C 
ATOM     17  C   UNL d   1     -38.057  13.607  15.579  0.00  0.00     0.029 C 
ENDBRANCH  15  16
ENDBRANCH  13  15
ENDBRANCH  11  13
ENDBRANCH   3  11
BRANCH   6  18
ATOM     18  C   UNL d   1     -39.750  14.936  21.131  0.00  0.00     0.085 A 
ATOM     19  C   UNL d   1     -39.932  15.673  21.456  0.00  0.00     0.020 A 
ATOM     20  C   UNL d   1     -39.555  15.922  22.144  0.00  0.00     0.013 A 
ATOM     21  C   UNL d   1     -39.002  15.455  22.514  0.00  0.00     0.058 A 
ATOM     22  C   UNL d   1     -38.815  14.703  22.184  0.00  0.00     0.013 A 
ATOM     23 CL   UNL d   1     -38.628  15.726  23.214  0.00  0.00    -0.082 Cl
ATOM     24  C   UNL d   1     -39.185  14.447  21.501  0.00  0.00     0.020 A 
ENDBRANCH   6  18
TORSDOF 5
ENDMDL
MODEL 4
REMARK VINA RESULT:      -5.6      8.495      9.747
REMARK  5 active torsions:
REMARK  status: ('A' for Active; 'I' for Inactive)
REMARK    1  A    between atoms: C_10  and  N_3 
REMARK    2  A    between atoms: C_12  and  N_6 
REMARK    3  A    between atoms: C_11  and  C_10 
REMARK    4  A    between atoms: O_18  and  C_11 
REMARK    5  A    between atoms: C_23  and  O_18 
ROOT
ATOM      1  C   UNL d   1     -48.109  12.843  23.033  0.00  0.00     0.172 A 
ATOM      2  C   UNL d   1     -47.838  12.127  23.341  0.00  0.00     0.113 A 
ATOM      3  N   UNL d   1     -46.500  12.484  22.997  0.00  0.00    -0.252 N 
ATOM      4  C   UNL d   1     -47.039  11.946  23.324  0.00  0.00     0.271 A 
ATOM      5  N   UNL d   1     -47.580  13.378  22.708  0.00  0.00    -0.206 NA
ATOM      6  N   UNL d   1     -48.933  12.860  23.132  0.00  0.00    -0.212 N 
ATOM      7  N   UNL d   1     -49.155  12.161  23.495  0.00  0.00    -0.162 NA
ATOM      8  C   UNL d   1     -46.771  13.200  22.689  0.00  0.00     0.187 A 
ATOM      9  C   UNL d   1     -48.500  11.714  23.625  0.00  0.00     0.129 A 
ATOM     10  O   UNL d   1     -46.768  11.230  23.632  0.00  0.00    -0.266 OA
ENDROOT
BRANCH   3  11
ATOM     11  C   UNL d   1     -45.685  12.308  22.975  0.00  0.00     0.132 C 
ATOM     12  C   UNL d   1     -45.402  11.640  23.368  0.00  0.00     0.025 C 
BRANCH  11  13
ATOM     13  C   UNL d   1     -45.163  12.804  22.561  0.00  0.00     0.317 C 
ATOM     14  O   UNL d   1     -45.201  13.613  22.667  0.00  0.00    -0.257 OA
BRANCH  13  15
ATOM     15  O   UNL d   1     -44.613  12.466  22.046  0.00  0.00    -0.270 OA
BRANCH  15  16
ATOM     16  C   UNL d   1     -44.052  12.956  21.678  0.00  0.00     0.126 C 
ATOM     17  C   UNL d   1     -43.356  12.622  21.406  0.00  0.00     0.029 C 
ENDBRANCH  15  16
ENDBRANCH  13  15
ENDBRANCH  11  13
ENDBRANCH   3  11
BRANCH   6  18
ATOM     18  C   UNL d   1     -49.460  13.443  22.921  0.00  0.00     0.085 A 
ATOM     19  C   UNL d   1     -49.523  14.129  23.378  0.00  0.00     0.020 A 
ATOM     20  C   UNL d   1     -50.056  14.716  23.162  0.00  0.00     0.013 A 
ATOM     21  C   UNL d   1     -50.526  14.638  22.504  0.00  0.00     0.058 A 
ATOM     22  C   UNL d   1     -50.464  13.940  22.037  0.00  0.00     0.013 A 
ATOM     23 CL   UNL d   1     -51.064  15.249  22.300  0.00  0.00    -0.082 Cl
ATOM     24  C   UNL d   1     -49.936  13.350  22.243  0.00  0.00     0.020 A 
ENDBRANCH   6  18
TORSDOF 5
ENDMDL
MODEL 5
REMARK VINA RESULT:      -4.8      6.920      8.215
REMARK  5 active torsions:
REMARK  status: ('A' for Active; 'I' for Inactive)
REMARK    1  A    between atoms: C_10  and  N_3 
REMARK    2  A    between atoms: C_12  and  N_6 
REMARK    3  A    between atoms: C_11  and  C_10 
REMARK    4  A    between atoms: O_18  and  C_11 
REMARK    5  A    between atoms: C_23  and  O_18 
ROOT
ATOM      1  C   UNL d   1     -46.339  12.981  22.640  0.00  0.00     0.172 A 
ATOM      2  C   UNL d   1     -45.995  12.347  23.041  0.00  0.00     0.113 A 
ATOM      3  N   UNL d   1     -44.789  12.534  22.301  0.00  0.00    -0.252 N 
ATOM      4  C   UNL d   1     -45.224  12.123  22.874  0.00  0.00     0.271 A 
ATOM      5  N   UNL d   1     -45.912  13.391  22.072  0.00  0.00    -0.206 NA
ATOM      6  N   UNL d   1     -47.112  13.068  22.930  0.00  0.00    -0.212 N 
ATOM      7  N   UNL d   1     -47.231  12.493  23.499  0.00  0.00    -0.162 NA
ATOM      8  C   UNL d   1     -45.133  13.168  21.901  0.00  0.00     0.187 A 
ATOM      9  C   UNL d   1     -46.562  12.054  23.571  0.00  0.00     0.129 A 
ATOM     10  O   UNL d   1     -44.880  11.490  23.274  0.00  0.00    -0.266 OA
ENDROOT
BRANCH   3  11
ATOM     11  C   UNL d   1     -44.004  12.312  22.125  0.00  0.00     0.132 C 
ATOM     12  C   UNL d   1     -43.638  11.722  22.570  0.00  0.00     0.025 C 
BRANCH  11  13
ATOM     13  C   UNL d   1     -43.595  12.685  21.505  0.00  0.00     0.317 C 
ATOM     14  O   UNL d   1     -43.834  12.568  20.733  0.00  0.00    -0.257 OA
BRANCH  13  15
ATOM     15  O   UNL d   1     -42.952  13.169  21.684  0.00  0.00    -0.270 OA
BRANCH  15  16
ATOM     16  C   UNL d   1     -42.401  13.345  21.087  0.00  0.00     0.126 C 
ATOM     17  C   UNL d   1     -41.774  13.840  21.263  0.00  0.00     0.029 C 
ENDBRANCH  15  16
ENDBRANCH  13  15
ENDBRANCH  11  13
ENDBRANCH   3  11
BRANCH   6  18
ATOM     18  C   UNL d   1     -47.679  13.612  22.716  0.00  0.00     0.085 A 
ATOM     19  C   UNL d   1     -47.663  14.374  23.036  0.00  0.00     0.020 A 
ATOM     20  C   UNL d   1     -48.237  14.921  22.817  0.00  0.00     0.013 A 
ATOM     21  C   UNL d   1     -48.824  14.728  22.290  0.00  0.00     0.058 A 
ATOM     22  C   UNL d   1     -48.842  13.952  21.963  0.00  0.00     0.013 A 
ATOM     23 CL   UNL d   1     -49.401  15.300  22.080  0.00  0.00    -0.082 Cl
ATOM     24  C   UNL d   1     -48.276  13.401  22.174  0.00  0.00     0.020 A 
ENDBRANCH   6  18
TORSDOF 5
ENDMDL
MODEL 6
REMARK VINA RESULT:      -4.8      1.372      2.029
REMARK  5 active torsions:
REMARK  status: ('A' for Active; 'I' for Inactive)
REMARK    1  A    between atoms: C_10  and  N_3 
REMARK    2  A    between atoms: C_12  and  N_6 
REMARK    3  A    between atoms: C_11  and  C_10 
REMARK    4  A    between atoms: O_18  and  C_11 
REMARK    5  A    between atoms: C_23  and  O_18 
ROOT
ATOM      1  C   UNL d   1     -39.271  14.955  18.575  0.00  0.00     0.172 A 
ATOM      2  C   UNL d   1     -39.104  15.422  19.235  0.00  0.00     0.113 A 
ATOM      3  N   UNL d   1     -40.337  15.020  19.831  0.00  0.00    -0.252 N 
ATOM      4  C   UNL d   1     -39.633  15.455  19.860  0.00  0.00     0.271 A 
ATOM      5  N   UNL d   1     -39.967  14.522  18.541  0.00  0.00    -0.206 NA
ATOM      6  N   UNL d   1     -38.637  15.038  18.046  0.00  0.00    -0.212 N 
ATOM      7  N   UNL d   1     -38.095  15.549  18.384  0.00  0.00    -0.162 NA
ATOM      8  C   UNL d   1     -40.503  14.553  19.171  0.00  0.00     0.187 A 
ATOM      9  C   UNL d   1     -38.370  15.785  19.101  0.00  0.00     0.129 A 
ATOM     10  O   UNL d   1     -39.466  15.922  20.520  0.00  0.00    -0.266 OA
ENDROOT
BRANCH   3  11
ATOM     11  C   UNL d   1     -40.880  15.049  20.464  0.00  0.00     0.132 C 
ATOM     12  C   UNL d   1     -41.237  15.766  20.662  0.00  0.00     0.025 C 
BRANCH  11  13
ATOM     13  C   UNL d   1     -41.060  14.358  20.889  0.00  0.00     0.317 C 
ATOM     14  O   UNL d   1     -40.508  14.041  21.401  0.00  0.00    -0.257 OA
BRANCH  13  15
ATOM     15  O   UNL d   1     -41.798  14.004  20.785  0.00  0.00    -0.270 OA
BRANCH  15  16
ATOM     16  C   UNL d   1     -42.026  13.389  21.296  0.00  0.00     0.126 C 
ATOM     17  C   UNL d   1     -42.757  13.038  21.186  0.00  0.00     0.029 C 
ENDBRANCH  15  16
ENDBRANCH  13  15
ENDBRANCH  11  13
ENDBRANCH   3  11
BRANCH   6  18
ATOM     18  C   UNL d   1     -38.534  14.693  17.316  0.00  0.00     0.085 A 
ATOM     19  C   UNL d   1     -38.792  15.082  16.634  0.00  0.00     0.020 A 
ATOM     20  C   UNL d   1     -38.686  14.731  15.898  0.00  0.00     0.013 A 
ATOM     21  C   UNL d   1     -38.331  14.004  15.825  0.00  0.00     0.058 A 
ATOM     22  C   UNL d   1     -38.067  13.605  16.518  0.00  0.00     0.013 A 
ATOM     23 CL   UNL d   1     -38.232  13.661  15.065  0.00  0.00    -0.082 Cl
ATOM     24  C   UNL d   1     -38.168  13.946  17.255  0.00  0.00     0.020 A 
ENDBRANCH   6  18
TORSDOF 5
ENDMDL
MODEL 7
REMARK VINA RESULT:      -4.1      7.401      8.594
REMARK  5 active torsions:
REMARK  status: ('A' for Active; 'I' for Inactive)
REMARK    1  A    between atoms: C_10  and  N_3 
REMARK    2  A    between atoms: C_12  and  N_6 
REMARK    3  A    between atoms: C_11  and  C_10 
REMARK    4  A    between atoms: O_18  and  C_11 
REMARK    5  A    between atoms: C_23  and  O_18 
ROOT
ATOM      1  C   UNL d   1     -46.220  12.622  22.633  0.00  0.00     0.172 A 
ATOM      2  C   UNL d   1     -46.745  12.245  23.146  0.00  0.00     0.113 A 
ATOM      3  N   UNL d   1     -47.794  13.107  22.707  0.00  0.00    -0.252 N 
ATOM      4  C   UNL d   1     -47.528  12.485  23.184  0.00  0.00     0.271 A 
ATOM      5  N   UNL d   1     -46.479  13.238  22.157  0.00  0.00    -0.206 NA
ATOM      6  N   UNL d   1     -45.480  12.256  22.722  0.00  0.00    -0.212 N 
ATOM      7  N   UNL d   1     -45.560  11.667  23.284  0.00  0.00    -0.162 NA
ATOM      8  C   UNL d   1     -47.269  13.483  22.193  0.00  0.00     0.187 A 
ATOM      9  C   UNL d   1     -46.320  11.654  23.544  0.00  0.00     0.129 A 
ATOM     10  O   UNL d   1     -48.052  12.109  23.698  0.00  0.00    -0.266 OA
ENDROOT
BRANCH   3  11
ATOM     11  C   UNL d   1     -48.589  13.357  22.739  0.00  0.00     0.132 C 
ATOM     12  C   UNL d   1     -49.174  12.826  22.976  0.00  0.00     0.025 C 
BRANCH  11  13
ATOM     13  C   UNL d   1     -48.789  14.138  22.535  0.00  0.00     0.317 C 
ATOM     14  O   UNL d   1     -48.778  14.367  21.751  0.00  0.00    -0.257 OA
BRANCH  13  15
ATOM     15  O   UNL d   1     -48.995  14.668  23.132  0.00  0.00    -0.270 OA
BRANCH  15  16
ATOM     16  C   UNL d   1     -49.441  15.342  22.937  0.00  0.00     0.126 C 
ATOM     17  C   UNL d   1     -49.763  15.789  23.542  0.00  0.00     0.029 C 
ENDBRANCH  15  16
ENDBRANCH  13  15
ENDBRANCH  11  13
ENDBRANCH   3  11
BRANCH   6  18
ATOM     18  C   UNL d   1     -44.780  12.423  22.342  0.00  0.00     0.085 A 
ATOM     19  C   UNL d   1     -44.730  13.071  21.832  0.00  0.00     0.020 A 
ATOM     20  C   UNL d   1     -44.021  13.237  21.450  0.00  0.00     0.013 A 
ATOM     21  C   UNL d   1     -43.363  12.774  21.562  0.00  0.00     0.058 A 
ATOM     22  C   UNL d   1     -43.412  12.113  22.081  0.00  0.00     0.013 A 
ATOM     23 CL   UNL d   1     -42.649  12.959  21.162  0.00  0.00    -0.082 Cl
ATOM     24  C   UNL d   1     -44.112  11.940  22.466  0.00  0.00     0.020 A 
ENDBRANCH   6  18
TORSDOF 5
ENDMDL
