MODEL 1
REMARK VINA RESULT:      -9.2      0.000      0.000
REMARK  7 active torsions:
REMARK  status: ('A' for Active; 'I' for Inactive)
REMARK    1  A    between atoms: C_8  and  N_2 
REMARK    2  A    between atoms: C_13  and  C_8 
REMARK    3  A    between atoms: O_17  and  C_13 
REMARK    4  A    between atoms: O_18  and  C_15 
REMARK    5  A    between atoms: C_21  and  O_17 
REMARK    6  A    between atoms: C_23  and  C_21 
REMARK    7  A    between atoms: C_24  and  C_23 
ROOT
ATOM      1  C   UNL d   1      52.784  32.337  53.241  0.00  0.00     0.166 A 
ATOM      2  N   UNL d   1      52.610  33.132  53.157  0.00  0.00    -0.285 N 
ATOM      3  C   UNL d   1      53.356  32.263  53.834  0.00  0.00     0.117 A 
ATOM      4  C   UNL d   1      53.535  33.016  54.113  0.00  0.00     0.039 A 
ATOM      5  C   UNL d   1      53.073  33.558  53.695  0.00  0.00     0.067 A 
ATOM      6  N   UNL d   1      52.498  31.670  52.860  0.00  0.00    -0.225 NA
ATOM      7  N   UNL d   1      53.647  31.515  54.047  0.00  0.00    -0.241 NA
ATOM      8  C   UNL d   1      52.784  30.916  53.068  0.00  0.00     0.101 A 
ATOM      9  C   UNL d   1      53.356  30.842  53.660  0.00  0.00     0.099 A 
ATOM     10  C   UNL d   1      53.133  34.365  53.856  0.00  0.00     0.020 A 
ATOM     11  C   UNL d   1      54.057  33.281  54.693  0.00  0.00     0.027 A 
ATOM     12  C   UNL d   1      54.117  34.088  54.855  0.00  0.00     0.094 A 
ATOM     13  C   UNL d   1      53.656  34.630  54.437  0.00  0.00     0.026 A 
ATOM     14  C   UNL d   1      53.639  30.099  53.866  0.00  0.00     0.021 A 
ATOM     15  C   UNL d   1      52.494  30.251  52.683  0.00  0.00     0.021 A 
ATOM     16  C   UNL d   1      53.349  29.431  53.480  0.00  0.00     0.002 A 
ATOM     17  C   UNL d   1      52.775  29.501  52.886  0.00  0.00     0.002 A 
ENDROOT
BRANCH   2  18
ATOM     18  C   UNL d   1      52.069  33.457  52.628  0.00  0.00     0.151 C 
BRANCH  18  19
ATOM     19  C   UNL d   1      51.310  33.641  52.891  0.00  0.00     0.318 C 
ATOM     20  O   UNL d   1      50.964  33.218  53.505  0.00  0.00    -0.257 OA
BRANCH  19  21
ATOM     21  O   UNL d   1      50.895  34.256  52.535  0.00  0.00    -0.270 OA
BRANCH  21  22
ATOM     22  C   UNL d   1      50.083  34.194  52.429  0.00  0.00     0.126 C 
BRANCH  22  23
ATOM     23  C   UNL d   1      49.726  34.580  51.796  0.00  0.00     0.027 C 
BRANCH  23  24
ATOM     24  C   UNL d   1      48.922  34.763  51.826  0.00  0.00     0.002 C 
ATOM     25  C   UNL d   1      48.480  34.805  51.132  0.00  0.00     0.000 C 
ENDBRANCH  23  24
ENDBRANCH  22  23
ENDBRANCH  21  22
ENDBRANCH  19  21
ENDBRANCH  18  19
ENDBRANCH   2  18
BRANCH  12  26
ATOM     26  O   UNL d   1      54.638  34.350  55.434  0.00  0.00    -0.328 OA
ATOM     27  C   UNL d   1      55.442  34.250  55.337  0.00  0.00     0.181 C 
ENDBRANCH  12  26
TORSDOF 7
ENDMDL
MODEL 2
REMARK VINA RESULT:      -8.8      1.129      3.157
REMARK  7 active torsions:
REMARK  status: ('A' for Active; 'I' for Inactive)
REMARK    1  A    between atoms: C_8  and  N_2 
REMARK    2  A    between atoms: C_13  and  C_8 
REMARK    3  A    between atoms: O_17  and  C_13 
REMARK    4  A    between atoms: O_18  and  C_15 
REMARK    5  A    between atoms: C_21  and  O_17 
REMARK    6  A    between atoms: C_23  and  C_21 
REMARK    7  A    between atoms: C_24  and  C_23 
ROOT
ATOM      1  C   UNL d   1      53.206  32.674  53.651  0.00  0.00     0.166 A 
ATOM      2  N   UNL d   1      52.680  32.302  53.147  0.00  0.00    -0.285 N 
ATOM      3  C   UNL d   1      53.643  32.089  54.040  0.00  0.00     0.117 A 
ATOM      4  C   UNL d   1      53.383  31.355  53.774  0.00  0.00     0.039 A 
ATOM      5  C   UNL d   1      52.786  31.484  53.219  0.00  0.00     0.067 A 
ATOM      6  N   UNL d   1      53.347  33.466  53.808  0.00  0.00    -0.225 NA
ATOM      7  N   UNL d   1      54.226  32.297  54.593  0.00  0.00    -0.241 NA
ATOM      8  C   UNL d   1      53.930  33.683  54.361  0.00  0.00     0.101 A 
ATOM      9  C   UNL d   1      54.367  33.099  54.751  0.00  0.00     0.099 A 
ATOM     10  C   UNL d   1      52.416  30.843  52.852  0.00  0.00     0.020 A 
ATOM     11  C   UNL d   1      53.612  30.586  53.963  0.00  0.00     0.027 A 
ATOM     12  C   UNL d   1      53.242  29.946  53.596  0.00  0.00     0.094 A 
ATOM     13  C   UNL d   1      52.645  30.073  53.041  0.00  0.00     0.026 A 
ATOM     14  C   UNL d   1      54.942  33.313  55.296  0.00  0.00     0.021 A 
ATOM     15  C   UNL d   1      54.068  34.478  54.516  0.00  0.00     0.021 A 
ATOM     16  C   UNL d   1      55.081  34.111  55.452  0.00  0.00     0.002 A 
ATOM     17  C   UNL d   1      54.646  34.699  55.064  0.00  0.00     0.002 A 
ENDROOT
BRANCH   2  18
ATOM     18  C   UNL d   1      52.138  32.673  52.651  0.00  0.00     0.151 C 
BRANCH  18  19
ATOM     19  C   UNL d   1      51.445  32.982  52.972  0.00  0.00     0.318 C 
ATOM     20  O   UNL d   1      51.008  32.553  53.520  0.00  0.00    -0.257 OA
BRANCH  19  21
ATOM     21  O   UNL d   1      51.189  33.729  52.741  0.00  0.00    -0.270 OA
BRANCH  21  22
ATOM     22  C   UNL d   1      50.385  33.902  52.736  0.00  0.00     0.126 C 
BRANCH  22  23
ATOM     23  C   UNL d   1      50.117  34.566  52.330  0.00  0.00     0.027 C 
BRANCH  23  24
ATOM     24  C   UNL d   1      49.370  34.875  52.496  0.00  0.00     0.002 C 
ATOM     25  C   UNL d   1      48.819  34.974  51.893  0.00  0.00     0.000 C 
ENDBRANCH  23  24
ENDBRANCH  22  23
ENDBRANCH  21  22
ENDBRANCH  19  21
ENDBRANCH  18  19
ENDBRANCH   2  18
BRANCH  12  26
ATOM     26  O   UNL d   1      53.472  29.180  53.786  0.00  0.00    -0.328 OA
ATOM     27  C   UNL d   1      53.270  28.858  54.508  0.00  0.00     0.181 C 
ENDBRANCH  12  26
TORSDOF 7
ENDMDL
MODEL 3
REMARK VINA RESULT:      -8.7      1.247      4.295
REMARK  7 active torsions:
REMARK  status: ('A' for Active; 'I' for Inactive)
REMARK    1  A    between atoms: C_8  and  N_2 
REMARK    2  A    between atoms: C_13  and  C_8 
REMARK    3  A    between atoms: O_17  and  C_13 
REMARK    4  A    between atoms: O_18  and  C_15 
REMARK    5  A    between atoms: C_21  and  O_17 
REMARK    6  A    between atoms: C_23  and  C_21 
REMARK    7  A    between atoms: C_24  and  C_23 
ROOT
ATOM      1  C   UNL d   1      52.997  33.089  53.527  0.00  0.00     0.166 A 
ATOM      2  N   UNL d   1      52.499  32.726  52.989  0.00  0.00    -0.285 N 
ATOM      3  C   UNL d   1      52.644  33.801  53.760  0.00  0.00     0.117 A 
ATOM      4  C   UNL d   1      51.928  33.875  53.362  0.00  0.00     0.039 A 
ATOM      5  C   UNL d   1      51.835  33.209  52.883  0.00  0.00     0.067 A 
ATOM      6  N   UNL d   1      53.723  32.868  53.837  0.00  0.00    -0.225 NA
ATOM      7  N   UNL d   1      53.022  34.297  54.308  0.00  0.00    -0.241 NA
ATOM      8  C   UNL d   1      54.107  33.361  54.388  0.00  0.00     0.101 A 
ATOM      9  C   UNL d   1      53.755  34.072  54.621  0.00  0.00     0.099 A 
ATOM     10  C   UNL d   1      51.160  33.128  52.413  0.00  0.00     0.020 A 
ATOM     11  C   UNL d   1      51.347  34.459  53.372  0.00  0.00     0.027 A 
ATOM     12  C   UNL d   1      50.674  34.378  52.903  0.00  0.00     0.094 A 
ATOM     13  C   UNL d   1      50.580  33.713  52.424  0.00  0.00     0.026 A 
ATOM     14  C   UNL d   1      54.134  34.558  55.163  0.00  0.00     0.021 A 
ATOM     15  C   UNL d   1      54.834  33.136  54.696  0.00  0.00     0.021 A 
ATOM     16  C   UNL d   1      54.865  34.333  55.473  0.00  0.00     0.002 A 
ATOM     17  C   UNL d   1      55.220  33.621  55.243  0.00  0.00     0.002 A 
ENDROOT
BRANCH   2  18
ATOM     18  C   UNL d   1      52.632  32.005  52.615  0.00  0.00     0.151 C 
BRANCH  18  19
ATOM     19  C   UNL d   1      52.425  31.307  53.000  0.00  0.00     0.318 C 
ATOM     20  O   UNL d   1      51.651  31.175  53.240  0.00  0.00    -0.257 OA
BRANCH  19  21
ATOM     21  O   UNL d   1      53.001  30.737  53.145  0.00  0.00    -0.270 OA
BRANCH  21  22
ATOM     22  C   UNL d   1      52.784  30.008  53.457  0.00  0.00     0.126 C 
BRANCH  22  23
ATOM     23  C   UNL d   1      53.362  29.517  53.777  0.00  0.00     0.027 C 
BRANCH  23  24
ATOM     24  C   UNL d   1      53.242  29.167  54.514  0.00  0.00     0.002 C 
ATOM     25  C   UNL d   1      53.619  28.460  54.704  0.00  0.00     0.000 C 
ENDBRANCH  23  24
ENDBRANCH  22  23
ENDBRANCH  21  22
ENDBRANCH  19  21
ENDBRANCH  18  19
ENDBRANCH   2  18
BRANCH  12  26
ATOM     26  O   UNL d   1      50.096  34.963  52.916  0.00  0.00    -0.328 OA
ATOM     27  C   UNL d   1      49.378  34.838  52.549  0.00  0.00     0.181 C 
ENDBRANCH  12  26
TORSDOF 7
ENDMDL
MODEL 4
REMARK VINA RESULT:      -8.4      1.134      4.004
REMARK  7 active torsions:
REMARK  status: ('A' for Active; 'I' for Inactive)
REMARK    1  A    between atoms: C_8  and  N_2 
REMARK    2  A    between atoms: C_13  and  C_8 
REMARK    3  A    between atoms: O_17  and  C_13 
REMARK    4  A    between atoms: O_18  and  C_15 
REMARK    5  A    between atoms: C_21  and  O_17 
REMARK    6  A    between atoms: C_23  and  C_21 
REMARK    7  A    between atoms: C_24  and  C_23 
ROOT
ATOM      1  C   UNL d   1      52.337  33.064  53.088  0.00  0.00     0.166 A 
ATOM      2  N   UNL d   1      52.966  32.545  53.152  0.00  0.00    -0.285 N 
ATOM      3  C   UNL d   1      52.480  33.701  53.597  0.00  0.00     0.117 A 
ATOM      4  C   UNL d   1      53.200  33.571  53.974  0.00  0.00     0.039 A 
ATOM      5  C   UNL d   1      53.504  32.855  53.699  0.00  0.00     0.067 A 
ATOM      6  N   UNL d   1      51.653  33.044  52.636  0.00  0.00    -0.225 NA
ATOM      7  N   UNL d   1      51.933  34.324  53.655  0.00  0.00    -0.241 NA
ATOM      8  C   UNL d   1      51.100  33.664  52.689  0.00  0.00     0.101 A 
ATOM      9  C   UNL d   1      51.243  34.301  53.197  0.00  0.00     0.099 A 
ATOM     10  C   UNL d   1      54.228  32.577  53.982  0.00  0.00     0.020 A 
ATOM     11  C   UNL d   1      53.619  34.011  54.531  0.00  0.00     0.027 A 
ATOM     12  C   UNL d   1      54.343  33.734  54.813  0.00  0.00     0.094 A 
ATOM     13  C   UNL d   1      54.648  33.017  54.539  0.00  0.00     0.026 A 
ATOM     14  C   UNL d   1      50.698  34.914  53.249  0.00  0.00     0.021 A 
ATOM     15  C   UNL d   1      50.417  33.640  52.234  0.00  0.00     0.021 A 
ATOM     16  C   UNL d   1      50.012  34.889  52.793  0.00  0.00     0.002 A 
ATOM     17  C   UNL d   1      49.865  34.254  52.283  0.00  0.00     0.002 A 
ENDROOT
BRANCH   2  18
ATOM     18  C   UNL d   1      53.053  31.836  52.743  0.00  0.00     0.151 C 
BRANCH  18  19
ATOM     19  C   UNL d   1      52.747  31.143  53.068  0.00  0.00     0.318 C 
ATOM     20  O   UNL d   1      51.936  31.015  53.094  0.00  0.00    -0.257 OA
BRANCH  19  21
ATOM     21  O   UNL d   1      53.260  30.575  53.369  0.00  0.00    -0.270 OA
BRANCH  21  22
ATOM     22  C   UNL d   1      52.971  29.839  53.590  0.00  0.00     0.126 C 
BRANCH  22  23
ATOM     23  C   UNL d   1      53.468  29.306  53.974  0.00  0.00     0.027 C 
BRANCH  23  24
ATOM     24  C   UNL d   1      53.229  28.960  54.684  0.00  0.00     0.002 C 
ATOM     25  C   UNL d   1      53.609  28.285  54.963  0.00  0.00     0.000 C 
ENDBRANCH  23  24
ENDBRANCH  22  23
ENDBRANCH  21  22
ENDBRANCH  19  21
ENDBRANCH  18  19
ENDBRANCH   2  18
BRANCH  12  26
ATOM     26  O   UNL d   1      54.758  34.174  55.368  0.00  0.00    -0.328 OA
ATOM     27  C   UNL d   1      55.573  34.132  55.399  0.00  0.00     0.181 C 
ENDBRANCH  12  26
TORSDOF 7
ENDMDL
