MODEL 1
REMARK VINA RESULT:      -5.3      0.000      0.000
REMARK  1 active torsions:
REMARK  status: ('A' for Active; 'I' for Inactive)
REMARK    1  A    between atoms: C_2  and  C_1 
ROOT
ATOM      1  C   UNL d   1      54.364  33.164  54.675  0.00  0.00     0.169 A 
ATOM      2  N   UNL d   1      53.937  32.554  55.007  0.00  0.00    -0.142 NA
ATOM      3  N   UNL d   1      53.799  31.980  54.428  0.00  0.00    -0.146 NA
ATOM      4  C   UNL d   1      54.502  32.983  53.881  0.00  0.00     0.050 A 
ATOM      5  C   UNL d   1      54.153  32.252  53.729  0.00  0.00     0.124 A 
ENDROOT
BRANCH   1   6
ATOM      6  C   UNL d   1      54.619  33.850  55.061  0.00  0.00     0.231 C 
ATOM      7  O   UNL d   1      54.097  34.480  55.163  0.00  0.00    -0.643 OA
ATOM      8  O   UNL d   1      55.390  33.903  55.342  0.00  0.00    -0.643 OA
ENDBRANCH   1   6
TORSDOF 1
ENDMDL
MODEL 2
REMARK VINA RESULT:      -5.2      1.744      2.181
REMARK  1 active torsions:
REMARK  status: ('A' for Active; 'I' for Inactive)
REMARK    1  A    between atoms: C_2  and  C_1 
ROOT
ATOM      1  C   UNL d   1      53.525  31.910  53.450  0.00  0.00     0.169 A 
ATOM      2  N   UNL d   1      53.023  32.178  52.866  0.00  0.00    -0.142 NA
ATOM      3  N   UNL d   1      52.601  31.536  52.562  0.00  0.00    -0.146 NA
ATOM      4  C   UNL d   1      53.426  31.094  53.523  0.00  0.00     0.050 A 
ATOM      5  C   UNL d   1      52.856  30.863  52.975  0.00  0.00     0.124 A 
ENDROOT
BRANCH   1   6
ATOM      6  C   UNL d   1      54.046  32.372  53.897  0.00  0.00     0.231 C 
ATOM      7  O   UNL d   1      54.694  32.728  53.532  0.00  0.00    -0.643 OA
ATOM      8  O   UNL d   1      53.918  32.476  54.702  0.00  0.00    -0.643 OA
ENDBRANCH   1   6
TORSDOF 1
ENDMDL
MODEL 3
REMARK VINA RESULT:      -5.1      3.046      3.567
REMARK  1 active torsions:
REMARK  status: ('A' for Active; 'I' for Inactive)
REMARK    1  A    between atoms: C_2  and  C_1 
ROOT
ATOM      1  C   UNL d   1      53.044  30.918  53.214  0.00  0.00     0.169 A 
ATOM      2  N   UNL d   1      52.613  31.279  52.623  0.00  0.00    -0.142 NA
ATOM      3  N   UNL d   1      52.771  32.090  52.636  0.00  0.00    -0.146 NA
ATOM      4  C   UNL d   1      53.480  31.497  53.608  0.00  0.00     0.050 A 
ATOM      5  C   UNL d   1      53.312  32.221  53.251  0.00  0.00     0.124 A 
ENDROOT
BRANCH   1   6
ATOM      6  C   UNL d   1      53.048  30.110  53.392  0.00  0.00     0.231 C 
ATOM      7  O   UNL d   1      53.748  29.748  53.634  0.00  0.00    -0.643 OA
ATOM      8  O   UNL d   1      52.357  29.670  53.328  0.00  0.00    -0.643 OA
ENDBRANCH   1   6
TORSDOF 1
ENDMDL
MODEL 4
REMARK VINA RESULT:      -5.1      2.009      2.439
REMARK  1 active torsions:
REMARK  status: ('A' for Active; 'I' for Inactive)
REMARK    1  A    between atoms: C_2  and  C_1 
ROOT
ATOM      1  C   UNL d   1      53.939  32.377  53.870  0.00  0.00     0.169 A 
ATOM      2  N   UNL d   1      54.615  32.781  53.655  0.00  0.00    -0.142 NA
ATOM      3  N   UNL d   1      54.892  33.202  54.310  0.00  0.00    -0.146 NA
ATOM      4  C   UNL d   1      53.781  32.539  54.663  0.00  0.00     0.050 A 
ATOM      5  C   UNL d   1      54.369  33.049  54.935  0.00  0.00     0.124 A 
ENDROOT
BRANCH   1   6
ATOM      6  C   UNL d   1      53.486  31.888  53.381  0.00  0.00     0.231 C 
ATOM      7  O   UNL d   1      53.460  31.076  53.523  0.00  0.00    -0.643 OA
ATOM      8  O   UNL d   1      53.062  32.210  52.754  0.00  0.00    -0.643 OA
ENDBRANCH   1   6
TORSDOF 1
ENDMDL
MODEL 5
REMARK VINA RESULT:      -5.0      1.698      2.000
REMARK  1 active torsions:
REMARK  status: ('A' for Active; 'I' for Inactive)
REMARK    1  A    between atoms: C_2  and  C_1 
ROOT
ATOM      1  C   UNL d   1      53.845  34.010  54.826  0.00  0.00     0.169 A 
ATOM      2  N   UNL d   1      53.735  34.733  55.187  0.00  0.00    -0.142 NA
ATOM      3  N   UNL d   1      53.193  35.172  54.744  0.00  0.00    -0.146 NA
ATOM      4  C   UNL d   1      53.374  33.984  54.149  0.00  0.00     0.050 A 
ATOM      5  C   UNL d   1      52.971  34.701  54.098  0.00  0.00     0.124 A 
ENDROOT
BRANCH   1   6
ATOM      6  C   UNL d   1      54.342  33.404  55.088  0.00  0.00     0.231 C 
ATOM      7  O   UNL d   1      55.143  33.556  55.214  0.00  0.00    -0.643 OA
ATOM      8  O   UNL d   1      54.040  32.651  55.223  0.00  0.00    -0.643 OA
ENDBRANCH   1   6
TORSDOF 1
ENDMDL
MODEL 6
REMARK VINA RESULT:      -4.8      2.464      2.767
REMARK  1 active torsions:
REMARK  status: ('A' for Active; 'I' for Inactive)
REMARK    1  A    between atoms: C_2  and  C_1 
ROOT
ATOM      1  C   UNL d   1      53.065  31.553  53.092  0.00  0.00     0.169 A 
ATOM      2  N   UNL d   1      52.668  30.995  52.648  0.00  0.00    -0.142 NA
ATOM      3  N   UNL d   1      52.873  30.242  52.922  0.00  0.00    -0.146 NA
ATOM      4  C   UNL d   1      53.526  31.159  53.652  0.00  0.00     0.050 A 
ATOM      5  C   UNL d   1      53.407  30.350  53.548  0.00  0.00     0.124 A 
ENDROOT
BRANCH   1   6
ATOM      6  C   UNL d   1      53.018  32.373  53.001  0.00  0.00     0.231 C 
ATOM      7  O   UNL d   1      52.424  32.700  52.532  0.00  0.00    -0.643 OA
ATOM      8  O   UNL d   1      53.563  32.862  53.375  0.00  0.00    -0.643 OA
ENDBRANCH   1   6
TORSDOF 1
ENDMDL
MODEL 7
REMARK VINA RESULT:      -4.6      2.187      2.296
REMARK  1 active torsions:
REMARK  status: ('A' for Active; 'I' for Inactive)
REMARK    1  A    between atoms: C_2  and  C_1 
ROOT
ATOM      1  C   UNL d   1      52.750  34.579  54.025  0.00  0.00     0.169 A 
ATOM      2  N   UNL d   1      52.601  33.789  54.164  0.00  0.00    -0.142 NA
ATOM      3  N   UNL d   1      52.212  33.472  53.508  0.00  0.00    -0.146 NA
ATOM      4  C   UNL d   1      52.455  34.770  53.277  0.00  0.00     0.050 A 
ATOM      5  C   UNL d   1      52.124  34.087  52.959  0.00  0.00     0.124 A 
ENDROOT
BRANCH   1   6
ATOM      6  C   UNL d   1      53.129  35.104  54.539  0.00  0.00     0.231 C 
ATOM      7  O   UNL d   1      52.967  35.911  54.494  0.00  0.00    -0.643 OA
ATOM      8  O   UNL d   1      53.667  34.821  55.094  0.00  0.00    -0.643 OA
ENDBRANCH   1   6
TORSDOF 1
ENDMDL
MODEL 8
REMARK VINA RESULT:      -4.4      2.713      2.969
REMARK  1 active torsions:
REMARK  status: ('A' for Active; 'I' for Inactive)
REMARK    1  A    between atoms: C_2  and  C_1 
ROOT
ATOM      1  C   UNL d   1      52.648  33.283  53.176  0.00  0.00     0.169 A 
ATOM      2  N   UNL d   1      53.068  33.935  53.430  0.00  0.00    -0.142 NA
ATOM      3  N   UNL d   1      52.587  34.604  53.363  0.00  0.00    -0.146 NA
ATOM      4  C   UNL d   1      51.896  33.533  52.945  0.00  0.00     0.050 A 
ATOM      5  C   UNL d   1      51.858  34.348  53.061  0.00  0.00     0.124 A 
ENDROOT
BRANCH   1   6
ATOM      6  C   UNL d   1      52.923  32.504  53.151  0.00  0.00     0.231 C 
ATOM      7  O   UNL d   1      52.708  32.013  52.523  0.00  0.00    -0.643 OA
ATOM      8  O   UNL d   1      53.409  32.218  53.749  0.00  0.00    -0.643 OA
ENDBRANCH   1   6
TORSDOF 1
ENDMDL
MODEL 9
REMARK VINA RESULT:      -3.5     14.711     14.899
REMARK  1 active torsions:
REMARK  status: ('A' for Active; 'I' for Inactive)
REMARK    1  A    between atoms: C_2  and  C_1 
ROOT
ATOM      1  C   UNL d   1      49.343  27.995  67.629  0.00  0.00     0.169 A 
ATOM      2  N   UNL d   1      48.718  28.474  67.843  0.00  0.00    -0.142 NA
ATOM      3  N   UNL d   1      48.041  28.008  67.921  0.00  0.00    -0.146 NA
ATOM      4  C   UNL d   1      49.067  27.220  67.570  0.00  0.00     0.050 A 
ATOM      5  C   UNL d   1      48.263  27.228  67.750  0.00  0.00     0.124 A 
ENDROOT
BRANCH   1   6
ATOM      6  C   UNL d   1      50.122  28.239  67.493  0.00  0.00     0.231 C 
ATOM      7  O   UNL d   1      50.675  27.700  67.203  0.00  0.00    -0.643 OA
ATOM      8  O   UNL d   1      50.344  29.015  67.647  0.00  0.00    -0.643 OA
ENDBRANCH   1   6
TORSDOF 1
ENDMDL
