MODEL 1
REMARK VINA RESULT:      -8.5      0.000      0.000
REMARK  5 active torsions:
REMARK  status: ('A' for Active; 'I' for Inactive)
REMARK    1  A    between atoms: C_10  and  N_1 
REMARK    2  A    between atoms: C_7  and  C_4 
REMARK    3  A    between atoms: O_16  and  C_9 
REMARK    4  A    between atoms: C_15  and  C_10 
REMARK    5  A    between atoms: O_17  and  C_11 
ROOT
ATOM      1  N   UNL d   1      53.200  33.792  54.421  0.00  0.00    -0.193 N 
ATOM      2  N   UNL d   1      53.074  32.980  54.329  0.00  0.00    -0.163 NA
ATOM      3  C   UNL d   1      53.939  34.056  54.648  0.00  0.00     0.281 A 
ATOM      4  C   UNL d   1      53.690  32.449  54.466  0.00  0.00     0.102 A 
ATOM      5  C   UNL d   1      54.557  33.540  54.787  0.00  0.00     0.064 A 
ATOM      6  C   UNL d   1      54.431  32.728  54.695  0.00  0.00     0.026 A 
ATOM      7  O   UNL d   1      54.065  34.867  54.740  0.00  0.00    -0.265 OA
ENDROOT
BRANCH   4   8
ATOM      8  C   UNL d   1      53.566  31.649  54.376  0.00  0.00     0.021 A 
ATOM      9  C   UNL d   1      53.500  31.316  53.611  0.00  0.00     0.028 A 
ATOM     10  C   UNL d   1      53.376  30.512  53.528  0.00  0.00     0.116 A 
ATOM     11  C   UNL d   1      53.314  30.025  54.192  0.00  0.00     0.116 A 
ATOM     12  C   UNL d   1      53.380  30.353  54.960  0.00  0.00     0.026 A 
ATOM     13  C   UNL d   1      53.505  31.162  55.039  0.00  0.00     0.004 A 
BRANCH  10  14
ATOM     14  O   UNL d   1      53.311  30.186  52.777  0.00  0.00    -0.326 OA
ATOM     15  C   UNL d   1      52.939  30.600  52.171  0.00  0.00     0.181 C 
ENDBRANCH  10  14
BRANCH  11  16
ATOM     16  O   UNL d   1      53.189  29.212  54.112  0.00  0.00    -0.326 OA
ATOM     17  C   UNL d   1      53.313  28.719  54.762  0.00  0.00     0.181 C 
ENDBRANCH  11  16
ENDBRANCH   4   8
BRANCH   1  18
ATOM     18  C   UNL d   1      52.583  34.316  54.283  0.00  0.00     0.104 C 
BRANCH  18  19
ATOM     19  C   UNL d   1      52.149  34.255  53.592  0.00  0.00     0.019 A 
ATOM     20  C   UNL d   1      52.469  34.519  52.878  0.00  0.00     0.002 A 
ATOM     21  C   UNL d   1      52.033  34.458  52.184  0.00  0.00     0.000 A 
ATOM     22  C   UNL d   1      51.269  34.129  52.213  0.00  0.00     0.000 A 
ATOM     23  C   UNL d   1      50.952  33.867  52.924  0.00  0.00     0.000 A 
ATOM     24  C   UNL d   1      51.398  33.932  53.618  0.00  0.00     0.002 A 
ENDBRANCH  18  19
ENDBRANCH   1  18
TORSDOF 5
ENDMDL
MODEL 2
REMARK VINA RESULT:      -8.1      1.465      4.017
REMARK  5 active torsions:
REMARK  status: ('A' for Active; 'I' for Inactive)
REMARK    1  A    between atoms: C_10  and  N_1 
REMARK    2  A    between atoms: C_7  and  C_4 
REMARK    3  A    between atoms: O_16  and  C_9 
REMARK    4  A    between atoms: C_15  and  C_10 
REMARK    5  A    between atoms: O_17  and  C_11 
ROOT
ATOM      1  N   UNL d   1      53.409  31.645  53.937  0.00  0.00    -0.193 N 
ATOM      2  N   UNL d   1      52.895  32.277  53.791  0.00  0.00    -0.163 NA
ATOM      3  C   UNL d   1      53.334  30.962  53.494  0.00  0.00     0.281 A 
ATOM      4  C   UNL d   1      52.317  32.213  53.206  0.00  0.00     0.102 A 
ATOM      5  C   UNL d   1      52.766  30.886  52.912  0.00  0.00     0.064 A 
ATOM      6  C   UNL d   1      52.252  31.518  52.766  0.00  0.00     0.026 A 
ATOM      7  O   UNL d   1      53.847  30.331  53.639  0.00  0.00    -0.265 OA
ENDROOT
BRANCH   4   8
ATOM      8  C   UNL d   1      51.812  32.835  53.063  0.00  0.00     0.021 A 
ATOM      9  C   UNL d   1      52.059  33.479  52.591  0.00  0.00     0.028 A 
ATOM     10  C   UNL d   1      51.546  34.101  52.452  0.00  0.00     0.116 A 
ATOM     11  C   UNL d   1      50.785  34.098  52.772  0.00  0.00     0.116 A 
ATOM     12  C   UNL d   1      50.533  33.455  53.245  0.00  0.00     0.026 A 
ATOM     13  C   UNL d   1      51.051  32.832  53.383  0.00  0.00     0.004 A 
BRANCH  10  14
ATOM     14  O   UNL d   1      51.790  34.734  51.988  0.00  0.00    -0.326 OA
ATOM     15  C   UNL d   1      52.589  34.863  51.844  0.00  0.00     0.181 C 
ENDBRANCH  10  14
BRANCH  11  16
ATOM     16  O   UNL d   1      50.264  34.724  52.633  0.00  0.00    -0.326 OA
ATOM     17  C   UNL d   1      49.495  34.682  52.930  0.00  0.00     0.181 C 
ENDBRANCH  11  16
ENDBRANCH   4   8
BRANCH   1  18
ATOM     18  C   UNL d   1      53.982  31.715  54.521  0.00  0.00     0.104 C 
BRANCH  18  19
ATOM     19  C   UNL d   1      54.326  32.443  54.663  0.00  0.00     0.019 A 
ATOM     20  C   UNL d   1      54.876  32.751  54.130  0.00  0.00     0.002 A 
ATOM     21  C   UNL d   1      55.222  33.483  54.273  0.00  0.00     0.000 A 
ATOM     22  C   UNL d   1      55.011  33.904  54.959  0.00  0.00     0.000 A 
ATOM     23  C   UNL d   1      54.464  33.596  55.488  0.00  0.00     0.000 A 
ATOM     24  C   UNL d   1      54.120  32.859  55.337  0.00  0.00     0.002 A 
ENDBRANCH  18  19
ENDBRANCH   1  18
TORSDOF 5
ENDMDL
MODEL 3
REMARK VINA RESULT:      -7.6      1.596      3.949
REMARK  5 active torsions:
REMARK  status: ('A' for Active; 'I' for Inactive)
REMARK    1  A    between atoms: C_10  and  N_1 
REMARK    2  A    between atoms: C_7  and  C_4 
REMARK    3  A    between atoms: O_16  and  C_9 
REMARK    4  A    between atoms: C_15  and  C_10 
REMARK    5  A    between atoms: O_17  and  C_11 
ROOT
ATOM      1  N   UNL d   1      53.711  32.643  53.859  0.00  0.00    -0.193 N 
ATOM      2  N   UNL d   1      52.995  32.874  53.517  0.00  0.00    -0.163 NA
ATOM      3  C   UNL d   1      54.031  33.099  54.457  0.00  0.00     0.281 A 
ATOM      4  C   UNL d   1      52.612  33.556  53.779  0.00  0.00     0.102 A 
ATOM      5  C   UNL d   1      53.662  33.776  54.726  0.00  0.00     0.064 A 
ATOM      6  C   UNL d   1      52.945  34.007  54.384  0.00  0.00     0.026 A 
ATOM      7  O   UNL d   1      54.746  32.868  54.799  0.00  0.00    -0.265 OA
ENDROOT
BRANCH   4   8
ATOM      8  C   UNL d   1      51.907  33.783  53.442  0.00  0.00     0.021 A 
ATOM      9  C   UNL d   1      51.878  34.015  52.639  0.00  0.00     0.028 A 
ATOM     10  C   UNL d   1      51.166  34.242  52.308  0.00  0.00     0.116 A 
ATOM     11  C   UNL d   1      50.474  34.245  52.758  0.00  0.00     0.116 A 
ATOM     12  C   UNL d   1      50.497  34.013  53.562  0.00  0.00     0.026 A 
ATOM     13  C   UNL d   1      51.215  33.785  53.892  0.00  0.00     0.004 A 
BRANCH  10  14
ATOM     14  O   UNL d   1      51.139  34.470  51.519  0.00  0.00    -0.326 OA
ATOM     15  C   UNL d   1      51.821  34.472  51.060  0.00  0.00     0.181 C 
ENDBRANCH  10  14
BRANCH  11  16
ATOM     16  O   UNL d   1      49.753  34.473  52.426  0.00  0.00    -0.326 OA
ATOM     17  C   UNL d   1      49.199  34.866  52.896  0.00  0.00     0.181 C 
ENDBRANCH  11  16
ENDBRANCH   4   8
BRANCH   1  18
ATOM     18  C   UNL d   1      54.087  31.963  53.593  0.00  0.00     0.104 C 
BRANCH  18  19
ATOM     19  C   UNL d   1      53.664  31.265  53.534  0.00  0.00     0.019 A 
ATOM     20  C   UNL d   1      53.555  30.790  54.200  0.00  0.00     0.002 A 
ATOM     21  C   UNL d   1      53.130  30.088  54.141  0.00  0.00     0.000 A 
ATOM     22  C   UNL d   1      52.814  29.867  53.404  0.00  0.00     0.000 A 
ATOM     23  C   UNL d   1      52.923  30.341  52.742  0.00  0.00     0.000 A 
ATOM     24  C   UNL d   1      53.352  31.045  52.810  0.00  0.00     0.002 A 
ENDBRANCH  18  19
ENDBRANCH   1  18
TORSDOF 5
ENDMDL
MODEL 4
REMARK VINA RESULT:      -6.5      1.183      2.436
REMARK  5 active torsions:
REMARK  status: ('A' for Active; 'I' for Inactive)
REMARK    1  A    between atoms: C_10  and  N_1 
REMARK    2  A    between atoms: C_7  and  C_4 
REMARK    3  A    between atoms: O_16  and  C_9 
REMARK    4  A    between atoms: C_15  and  C_10 
REMARK    5  A    between atoms: O_17  and  C_11 
ROOT
ATOM      1  N   UNL d   1      52.881  33.554  53.745  0.00  0.00    -0.193 N 
ATOM      2  N   UNL d   1      52.966  32.738  53.847  0.00  0.00    -0.163 NA
ATOM      3  C   UNL d   1      52.538  33.835  53.059  0.00  0.00     0.281 A 
ATOM      4  C   UNL d   1      52.707  32.219  53.260  0.00  0.00     0.102 A 
ATOM      5  C   UNL d   1      52.277  33.332  52.471  0.00  0.00     0.064 A 
ATOM      6  C   UNL d   1      52.362  32.516  52.572  0.00  0.00     0.026 A 
ATOM      7  O   UNL d   1      52.452  34.650  52.958  0.00  0.00    -0.265 OA
ENDROOT
BRANCH   4   8
ATOM      8  C   UNL d   1      52.791  31.416  53.360  0.00  0.00     0.021 A 
ATOM      9  C   UNL d   1      52.118  30.931  53.466  0.00  0.00     0.028 A 
ATOM     10  C   UNL d   1      52.211  30.124  53.566  0.00  0.00     0.116 A 
ATOM     11  C   UNL d   1      52.962  29.783  53.563  0.00  0.00     0.116 A 
ATOM     12  C   UNL d   1      53.640  30.265  53.457  0.00  0.00     0.026 A 
ATOM     13  C   UNL d   1      53.543  31.075  53.357  0.00  0.00     0.004 A 
BRANCH  10  14
ATOM     14  O   UNL d   1      51.549  29.648  53.670  0.00  0.00    -0.326 OA
ATOM     15  C   UNL d   1      50.795  29.977  53.677  0.00  0.00     0.181 C 
ENDBRANCH  10  14
BRANCH  11  16
ATOM     16  O   UNL d   1      53.060  28.969  53.663  0.00  0.00    -0.326 OA
ATOM     17  C   UNL d   1      53.608  28.693  54.215  0.00  0.00     0.181 C 
ENDBRANCH  11  16
ENDBRANCH   4   8
BRANCH   1  18
ATOM     18  C   UNL d   1      53.141  34.065  54.333  0.00  0.00     0.104 C 
BRANCH  18  19
ATOM     19  C   UNL d   1      53.878  33.951  54.670  0.00  0.00     0.019 A 
ATOM     20  C   UNL d   1      54.559  34.172  54.260  0.00  0.00     0.002 A 
ATOM     21  C   UNL d   1      55.299  34.058  54.599  0.00  0.00     0.000 A 
ATOM     22  C   UNL d   1      55.350  33.717  55.356  0.00  0.00     0.000 A 
ATOM     23  C   UNL d   1      54.671  33.496  55.763  0.00  0.00     0.000 A 
ATOM     24  C   UNL d   1      53.930  33.615  55.415  0.00  0.00     0.002 A 
ENDBRANCH  18  19
ENDBRANCH   1  18
TORSDOF 5
ENDMDL
MODEL 5
REMARK VINA RESULT:      -5.8      2.478      4.793
REMARK  5 active torsions:
REMARK  status: ('A' for Active; 'I' for Inactive)
REMARK    1  A    between atoms: C_10  and  N_1 
REMARK    2  A    between atoms: C_7  and  C_4 
REMARK    3  A    between atoms: O_16  and  C_9 
REMARK    4  A    between atoms: C_15  and  C_10 
REMARK    5  A    between atoms: O_17  and  C_11 
ROOT
ATOM      1  N   UNL d   1      52.271  33.618  53.067  0.00  0.00    -0.193 N 
ATOM      2  N   UNL d   1      51.606  34.107  53.006  0.00  0.00    -0.163 NA
ATOM      3  C   UNL d   1      52.173  32.808  53.026  0.00  0.00     0.281 A 
ATOM      4  C   UNL d   1      50.858  33.776  52.907  0.00  0.00     0.102 A 
ATOM      5  C   UNL d   1      51.437  32.468  52.927  0.00  0.00     0.064 A 
ATOM      6  C   UNL d   1      50.772  32.957  52.867  0.00  0.00     0.026 A 
ATOM      7  O   UNL d   1      52.836  32.320  53.086  0.00  0.00    -0.265 OA
ENDROOT
BRANCH   4   8
ATOM      8  C   UNL d   1      50.204  34.257  52.847  0.00  0.00     0.021 A 
ATOM      9  C   UNL d   1      49.757  34.277  52.141  0.00  0.00     0.028 A 
ATOM     10  C   UNL d   1      49.101  34.763  52.089  0.00  0.00     0.116 A 
ATOM     11  C   UNL d   1      48.875  35.235  52.727  0.00  0.00     0.116 A 
ATOM     12  C   UNL d   1      49.319  35.219  53.437  0.00  0.00     0.026 A 
ATOM     13  C   UNL d   1      49.978  34.729  53.486  0.00  0.00     0.004 A 
BRANCH  10  14
ATOM     14  O   UNL d   1      48.662  34.782  51.394  0.00  0.00    -0.326 OA
ATOM     15  C   UNL d   1      49.016  34.611  50.672  0.00  0.00     0.181 C 
ENDBRANCH  10  14
BRANCH  11  16
ATOM     16  O   UNL d   1      48.213  35.727  52.678  0.00  0.00    -0.326 OA
ATOM     17  C   UNL d   1      48.030  36.221  53.314  0.00  0.00     0.181 C 
ENDBRANCH  11  16
ENDBRANCH   4   8
BRANCH   1  18
ATOM     18  C   UNL d   1      53.013  33.954  53.166  0.00  0.00     0.104 C 
BRANCH  18  19
ATOM     19  C   UNL d   1      53.174  34.385  53.843  0.00  0.00     0.019 A 
ATOM     20  C   UNL d   1      53.107  35.207  53.836  0.00  0.00     0.002 A 
ATOM     21  C   UNL d   1      53.269  35.640  54.516  0.00  0.00     0.000 A 
ATOM     22  C   UNL d   1      53.500  35.237  55.207  0.00  0.00     0.000 A 
ATOM     23  C   UNL d   1      53.567  34.418  55.212  0.00  0.00     0.000 A 
ATOM     24  C   UNL d   1      53.402  33.991  54.523  0.00  0.00     0.002 A 
ENDBRANCH  18  19
ENDBRANCH   1  18
TORSDOF 5
ENDMDL
