MODEL 1
REMARK VINA RESULT:      -5.7      0.000      0.000
REMARK  5 active torsions:
REMARK  status: ('A' for Active; 'I' for Inactive)
REMARK    1  A    between atoms: C_2  and  C_1 
REMARK       I    between atoms: N_5  and  C_1 
REMARK    2  A    between atoms: C_3  and  C_14 
REMARK    3  A    between atoms: C_12  and  N_5 
REMARK    4  A    between atoms: O_13  and  C_9 
REMARK    5  A    between atoms: C_14  and  C_12 
ROOT
ATOM      1  C   UNL d   1     -41.548-122.310 -51.196  0.00  0.00     0.279 C 
ATOM      2  O   UNL d   1     -41.230-121.560 -51.239  0.00  0.00    -0.265 OA
ATOM      3  N   UNL d   1     -41.698-122.754 -51.870  0.00  0.00    -0.206 NA
ENDROOT
BRANCH   1   4
ATOM      4  C   UNL d   1     -41.723-122.632 -50.456  0.00  0.00     0.058 A 
ATOM      5  C   UNL d   1     -41.186-123.112 -50.090  0.00  0.00     0.007 A 
ATOM      6  C   UNL d   1     -41.375-123.433 -49.340  0.00  0.00     0.024 A 
ATOM      7  C   UNL d   1     -42.068-123.271 -48.993  0.00  0.00     0.094 A 
ATOM      8  C   UNL d   1     -42.621-122.780 -49.366  0.00  0.00     0.024 A 
ATOM      9  C   UNL d   1     -42.450-122.456 -50.104  0.00  0.00     0.007 A 
BRANCH   7  10
ATOM     10  O   UNL d   1     -42.243-123.585 -48.270  0.00  0.00    -0.328 OA
ATOM     11  C   UNL d   1     -42.205-123.109 -47.591  0.00  0.00     0.181 C 
ENDBRANCH   7  10
ENDBRANCH   1   4
BRANCH   3  12
ATOM     12  C   UNL d   1     -41.518-122.420 -52.606  0.00  0.00     0.102 C 
BRANCH  12  13
ATOM     13  C   UNL d   1     -41.497-122.870 -53.267  0.00  0.00     0.021 C 
BRANCH  13  14
ATOM     14  C   UNL d   1     -41.667-122.548 -54.000  0.00  0.00     0.002 A 
ATOM     15  C   UNL d   1     -41.126-122.598 -54.613  0.00  0.00     0.000 A 
ATOM     16  C   UNL d   1     -41.297-122.273 -55.353  0.00  0.00     0.000 A 
ATOM     17  C   UNL d   1     -42.013-121.891 -55.495  0.00  0.00     0.000 A 
ATOM     18  C   UNL d   1     -42.561-121.841 -54.870  0.00  0.00     0.000 A 
ATOM     19  C   UNL d   1     -42.379-122.172 -54.125  0.00  0.00     0.000 A 
ENDBRANCH  13  14
ENDBRANCH  12  13
ENDBRANCH   3  12
TORSDOF 5
ENDMDL
MODEL 2
REMARK VINA RESULT:      -5.5      1.134      5.059
REMARK  5 active torsions:
REMARK  status: ('A' for Active; 'I' for Inactive)
REMARK    1  A    between atoms: C_2  and  C_1 
REMARK       I    between atoms: N_5  and  C_1 
REMARK    2  A    between atoms: C_3  and  C_14 
REMARK    3  A    between atoms: C_12  and  N_5 
REMARK    4  A    between atoms: O_13  and  C_9 
REMARK    5  A    between atoms: C_14  and  C_12 
ROOT
ATOM      1  C   UNL d   1     -41.472-122.330 -52.079  0.00  0.00     0.279 C 
ATOM      2  O   UNL d   1     -41.124-121.680 -51.731  0.00  0.00    -0.265 OA
ATOM      3  N   UNL d   1     -41.767-122.953 -51.632  0.00  0.00    -0.206 NA
ENDROOT
BRANCH   1   4
ATOM      4  C   UNL d   1     -41.530-122.365 -52.902  0.00  0.00     0.058 A 
ATOM      5  C   UNL d   1     -41.982-121.822 -53.295  0.00  0.00     0.007 A 
ATOM      6  C   UNL d   1     -42.034-121.868 -54.130  0.00  0.00     0.024 A 
ATOM      7  C   UNL d   1     -41.647-122.431 -54.530  0.00  0.00     0.094 A 
ATOM      8  C   UNL d   1     -41.183-122.989 -54.130  0.00  0.00     0.024 A 
ATOM      9  C   UNL d   1     -41.123-122.957 -53.308  0.00  0.00     0.007 A 
BRANCH   7  10
ATOM     10  O   UNL d   1     -41.702-122.468 -55.334  0.00  0.00    -0.328 OA
ATOM     11  C   UNL d   1     -42.330-122.091 -55.725  0.00  0.00     0.181 C 
ENDBRANCH   7  10
ENDBRANCH   1   4
BRANCH   3  12
ATOM     12  C   UNL d   1     -41.702-122.907 -50.808  0.00  0.00     0.102 C 
BRANCH  12  13
ATOM     13  C   UNL d   1     -41.996-123.485 -50.340  0.00  0.00     0.021 C 
BRANCH  13  14
ATOM     14  C   UNL d   1     -42.059-123.380 -49.531  0.00  0.00     0.002 A 
ATOM     15  C   UNL d   1     -42.761-123.123 -49.197  0.00  0.00     0.000 A 
ATOM     16  C   UNL d   1     -42.824-123.016 -48.380  0.00  0.00     0.000 A 
ATOM     17  C   UNL d   1     -42.187-123.165 -47.881  0.00  0.00     0.000 A 
ATOM     18  C   UNL d   1     -41.474-123.427 -48.222  0.00  0.00     0.000 A 
ATOM     19  C   UNL d   1     -41.419-123.532 -49.049  0.00  0.00     0.000 A 
ENDBRANCH  13  14
ENDBRANCH  12  13
ENDBRANCH   3  12
TORSDOF 5
ENDMDL
MODEL 3
REMARK VINA RESULT:      -2.7      1.503      5.190
REMARK  5 active torsions:
REMARK  status: ('A' for Active; 'I' for Inactive)
REMARK    1  A    between atoms: C_2  and  C_1 
REMARK       I    between atoms: N_5  and  C_1 
REMARK    2  A    between atoms: C_3  and  C_14 
REMARK    3  A    between atoms: C_12  and  N_5 
REMARK    4  A    between atoms: O_13  and  C_9 
REMARK    5  A    between atoms: C_14  and  C_12 
ROOT
ATOM      1  C   UNL d   1     -41.735-122.939 -53.443  0.00  0.00     0.279 C 
ATOM      2  O   UNL d   1     -41.558-123.730 -53.352  0.00  0.00    -0.265 OA
ATOM      3  N   UNL d   1     -41.795-122.434 -52.799  0.00  0.00    -0.206 NA
ENDROOT
BRANCH   1   4
ATOM      4  C   UNL d   1     -41.857-122.638 -54.202  0.00  0.00     0.058 A 
ATOM      5  C   UNL d   1     -41.235-122.329 -54.616  0.00  0.00     0.007 A 
ATOM      6  C   UNL d   1     -41.371-122.027 -55.385  0.00  0.00     0.024 A 
ATOM      7  C   UNL d   1     -42.095-122.041 -55.704  0.00  0.00     0.094 A 
ATOM      8  C   UNL d   1     -42.735-122.356 -55.282  0.00  0.00     0.024 A 
ATOM      9  C   UNL d   1     -42.617-122.658 -54.524  0.00  0.00     0.007 A 
BRANCH   7  10
ATOM     10  O   UNL d   1     -42.218-121.747 -56.446  0.00  0.00    -0.328 OA
ATOM     11  C   UNL d   1     -41.715-121.161 -56.748  0.00  0.00     0.181 C 
ENDBRANCH   7  10
ENDBRANCH   1   4
BRANCH   3  12
ATOM     12  C   UNL d   1     -41.671-122.748 -52.043  0.00  0.00     0.102 C 
BRANCH  12  13
ATOM     13  C   UNL d   1     -41.521-122.269 -51.419  0.00  0.00     0.021 C 
BRANCH  13  14
ATOM     14  C   UNL d   1     -41.707-122.502 -50.657  0.00  0.00     0.002 A 
ATOM     15  C   UNL d   1     -42.472-122.428 -50.374  0.00  0.00     0.000 A 
ATOM     16  C   UNL d   1     -42.660-122.662 -49.605  0.00  0.00     0.000 A 
ATOM     17  C   UNL d   1     -42.087-122.976 -49.103  0.00  0.00     0.000 A 
ATOM     18  C   UNL d   1     -41.311-123.050 -49.393  0.00  0.00     0.000 A 
ATOM     19  C   UNL d   1     -41.129-122.811 -50.172  0.00  0.00     0.000 A 
ENDBRANCH  13  14
ENDBRANCH  12  13
ENDBRANCH   3  12
TORSDOF 5
ENDMDL
