MODEL 1
REMARK VINA RESULT:       1.3      0.000      0.000
REMARK  4 active torsions:
REMARK  status: ('A' for Active; 'I' for Inactive)
REMARK    1  A    between atoms: C_10  and  C_4 
REMARK       I    between atoms: N_11  and  C_10 
REMARK    2  A    between atoms: C_12  and  C_19 
REMARK    3  A    between atoms: O_26  and  C_12 
REMARK    4  A    between atoms: C_27  and  O_26 
ROOT
ATOM      1  C   UNL d   1     -41.927-121.753 -53.068  0.00  0.00     0.154 A 
ATOM      2  C   UNL d   1     -41.597-122.486 -52.890  0.00  0.00     0.093 A 
ATOM      3  N   UNL d   1     -42.226-121.607 -53.832  0.00  0.00    -0.211 NA
ATOM      4  C   UNL d   1     -41.529-121.726 -51.794  0.00  0.00     0.122 A 
ATOM      5  N   UNL d   1     -41.885-121.285 -52.394  0.00  0.00    -0.285 N 
ATOM      6  C   UNL d   1     -41.561-123.079 -53.468  0.00  0.00     0.269 A 
ATOM      7  N   UNL d   1     -41.855-122.939 -54.222  0.00  0.00    -0.259 N 
ATOM      8  C   UNL d   1     -42.191-122.197 -54.410  0.00  0.00     0.140 A 
ATOM      9  C   UNL d   1     -41.352-122.469 -52.108  0.00  0.00     0.030 A 
ATOM     10  C   UNL d   1     -41.821-123.527 -54.800  0.00  0.00     0.084 A 
ATOM     11  O   UNL d   1     -41.229-123.815 -53.286  0.00  0.00    -0.266 OA
ATOM     12  C   UNL d   1     -42.484-122.053 -55.156  0.00  0.00     0.064 A 
ATOM     13  C   UNL d   1     -42.117-123.378 -55.552  0.00  0.00     0.018 A 
ATOM     14  C   UNL d   1     -42.452-122.634 -55.732  0.00  0.00    -0.008 A 
ATOM     15  C   UNL d   1     -42.155-120.504 -52.330  0.00  0.00     0.101 C 
ENDROOT
BRANCH   4  16
ATOM     16  C   UNL d   1     -41.376-121.470 -51.022  0.00  0.00     0.281 C 
ATOM     17  N   UNL d   1     -41.480-121.990 -50.391  0.00  0.00    -0.271 N 
ATOM     18  C   UNL d   1     -41.734-122.762 -50.524  0.00  0.00     0.083 A 
ATOM     19  C   UNL d   1     -41.327-121.735 -49.618  0.00  0.00     0.083 A 
ATOM     20  C   UNL d   1     -41.835-123.276 -49.892  0.00  0.00     0.025 A 
ATOM     21  C   UNL d   1     -41.682-123.021 -49.119  0.00  0.00     0.067 A 
ATOM     22  C   UNL d   1     -41.430-122.253 -48.984  0.00  0.00     0.025 A 
ATOM     23  O   UNL d   1     -41.123-120.699 -50.888  0.00  0.00    -0.265 OA
BRANCH  21  24
ATOM     24  C   UNL d   1     -41.785-123.539 -48.484  0.00  0.00     0.300 C 
ATOM     25  O   UNL d   1     -41.123-123.817 -48.071  0.00  0.00    -0.259 OA
BRANCH  24  26
ATOM     26  O   UNL d   1     -42.541-123.777 -48.263  0.00  0.00    -0.271 OA
BRANCH  26  27
ATOM     27  C   UNL d   1     -42.772-123.717 -47.477  0.00  0.00     0.126 C 
ATOM     28  C   UNL d   1     -43.574-123.779 -47.281  0.00  0.00     0.029 C 
ENDBRANCH  26  27
ENDBRANCH  24  26
ENDBRANCH  21  24
ENDBRANCH   4  16
TORSDOF 4
ENDMDL
MODEL 2
REMARK VINA RESULT:       2.5      1.124      5.157
REMARK  4 active torsions:
REMARK  status: ('A' for Active; 'I' for Inactive)
REMARK    1  A    between atoms: C_10  and  C_4 
REMARK       I    between atoms: N_11  and  C_10 
REMARK    2  A    between atoms: C_12  and  C_19 
REMARK    3  A    between atoms: O_26  and  C_12 
REMARK    4  A    between atoms: C_27  and  O_26 
ROOT
ATOM      1  C   UNL d   1     -41.989-122.086 -49.607  0.00  0.00     0.154 A 
ATOM      2  C   UNL d   1     -42.391-122.657 -50.043  0.00  0.00     0.093 A 
ATOM      3  N   UNL d   1     -42.036-122.090 -48.775  0.00  0.00    -0.211 NA
ATOM      4  C   UNL d   1     -41.751-121.857 -50.900  0.00  0.00     0.122 A 
ATOM      5  N   UNL d   1     -41.595-121.594 -50.134  0.00  0.00    -0.285 N 
ATOM      6  C   UNL d   1     -42.842-123.235 -49.658  0.00  0.00     0.269 A 
ATOM      7  N   UNL d   1     -42.890-123.243 -48.837  0.00  0.00    -0.259 N 
ATOM      8  C   UNL d   1     -42.485-122.666 -48.388  0.00  0.00     0.140 A 
ATOM      9  C   UNL d   1     -42.244-122.516 -50.837  0.00  0.00     0.030 A 
ATOM     10  C   UNL d   1     -43.338-123.817 -48.451  0.00  0.00     0.084 A 
ATOM     11  O   UNL d   1     -43.245-123.808 -50.099  0.00  0.00    -0.266 OA
ATOM     12  C   UNL d   1     -42.530-122.669 -47.575  0.00  0.00     0.064 A 
ATOM     13  C   UNL d   1     -43.381-123.818 -47.630  0.00  0.00     0.018 A 
ATOM     14  C   UNL d   1     -42.973-123.237 -47.187  0.00  0.00    -0.008 A 
ATOM     15  C   UNL d   1     -41.123-120.944 -49.929  0.00  0.00     0.101 C 
ENDROOT
BRANCH   4  16
ATOM     16  C   UNL d   1     -41.465-121.523 -51.602  0.00  0.00     0.281 C 
ATOM     17  N   UNL d   1     -41.520-121.945 -52.307  0.00  0.00    -0.271 N 
ATOM     18  C   UNL d   1     -41.857-122.696 -52.320  0.00  0.00     0.083 A 
ATOM     19  C   UNL d   1     -41.235-121.611 -53.009  0.00  0.00     0.083 A 
ATOM     20  C   UNL d   1     -41.909-123.112 -53.026  0.00  0.00     0.025 A 
ATOM     21  C   UNL d   1     -41.623-122.778 -53.728  0.00  0.00     0.067 A 
ATOM     22  C   UNL d   1     -41.288-122.031 -53.718  0.00  0.00     0.025 A 
ATOM     23  O   UNL d   1     -41.129-120.772 -51.590  0.00  0.00    -0.265 OA
BRANCH  21  24
ATOM     24  C   UNL d   1     -41.677-123.198 -54.437  0.00  0.00     0.300 C 
ATOM     25  O   UNL d   1     -41.123-123.791 -54.605  0.00  0.00    -0.259 OA
BRANCH  24  26
ATOM     26  O   UNL d   1     -42.277-123.027 -54.974  0.00  0.00    -0.271 OA
BRANCH  26  27
ATOM     27  C   UNL d   1     -42.099-122.614 -55.662  0.00  0.00     0.126 C 
ATOM     28  C   UNL d   1     -42.712-122.281 -56.108  0.00  0.00     0.029 C 
ENDBRANCH  26  27
ENDBRANCH  24  26
ENDBRANCH  21  24
ENDBRANCH   4  16
TORSDOF 4
ENDMDL
MODEL 3
REMARK VINA RESULT:       3.0      1.094      1.550
REMARK  4 active torsions:
REMARK  status: ('A' for Active; 'I' for Inactive)
REMARK    1  A    between atoms: C_10  and  C_4 
REMARK       I    between atoms: N_11  and  C_10 
REMARK    2  A    between atoms: C_12  and  C_19 
REMARK    3  A    between atoms: O_26  and  C_12 
REMARK    4  A    between atoms: C_27  and  O_26 
ROOT
ATOM      1  C   UNL d   1     -41.681-122.533 -52.908  0.00  0.00     0.154 A 
ATOM      2  C   UNL d   1     -42.052-121.801 -52.978  0.00  0.00     0.093 A 
ATOM      3  N   UNL d   1     -41.557-123.000 -53.586  0.00  0.00    -0.211 NA
ATOM      4  C   UNL d   1     -41.757-121.995 -51.689  0.00  0.00     0.122 A 
ATOM      5  N   UNL d   1     -41.500-122.652 -52.115  0.00  0.00    -0.285 N 
ATOM      6  C   UNL d   1     -42.301-121.528 -53.719  0.00  0.00     0.269 A 
ATOM      7  N   UNL d   1     -42.180-121.986 -54.390  0.00  0.00    -0.259 N 
ATOM      8  C   UNL d   1     -41.804-122.730 -54.327  0.00  0.00     0.140 A 
ATOM      9  C   UNL d   1     -42.098-121.471 -52.228  0.00  0.00     0.030 A 
ATOM     10  C   UNL d   1     -42.426-121.717 -55.130  0.00  0.00     0.084 A 
ATOM     11  O   UNL d   1     -42.674-120.791 -53.785  0.00  0.00    -0.266 OA
ATOM     12  C   UNL d   1     -41.681-123.188 -54.989  0.00  0.00     0.064 A 
ATOM     13  C   UNL d   1     -42.301-122.182 -55.796  0.00  0.00     0.018 A 
ATOM     14  C   UNL d   1     -41.925-122.925 -55.725  0.00  0.00    -0.008 A 
ATOM     15  C   UNL d   1     -41.123-123.320 -51.801  0.00  0.00     0.101 C 
ENDROOT
BRANCH   4  16
ATOM     16  C   UNL d   1     -41.687-121.881 -50.872  0.00  0.00     0.281 C 
ATOM     17  N   UNL d   1     -42.181-122.293 -50.358  0.00  0.00    -0.271 N 
ATOM     18  C   UNL d   1     -42.745-122.817 -50.650  0.00  0.00     0.083 A 
ATOM     19  C   UNL d   1     -42.111-122.179 -49.540  0.00  0.00     0.083 A 
ATOM     20  C   UNL d   1     -43.235-123.225 -50.133  0.00  0.00     0.025 A 
ATOM     21  C   UNL d   1     -43.165-123.111 -49.316  0.00  0.00     0.067 A 
ATOM     22  C   UNL d   1     -42.604-122.590 -49.022  0.00  0.00     0.025 A 
ATOM     23  O   UNL d   1     -41.124-121.357 -50.579  0.00  0.00    -0.265 OA
BRANCH  21  24
ATOM     24  C   UNL d   1     -43.658-123.522 -48.796  0.00  0.00     0.300 C 
ATOM     25  O   UNL d   1     -44.455-123.636 -48.992  0.00  0.00    -0.259 OA
BRANCH  24  26
ATOM     26  O   UNL d   1     -43.359-123.816 -48.088  0.00  0.00    -0.271 OA
BRANCH  26  27
ATOM     27  C   UNL d   1     -43.828-123.805 -47.414  0.00  0.00     0.126 C 
ATOM     28  C   UNL d   1     -43.502-123.560 -46.693  0.00  0.00     0.029 C 
ENDBRANCH  26  27
ENDBRANCH  24  26
ENDBRANCH  21  24
ENDBRANCH   4  16
TORSDOF 4
ENDMDL
