MODEL 1
REMARK VINA RESULT:      80.8      0.000      0.000
REMARK  3 active torsions:
REMARK  status: ('A' for Active; 'I' for Inactive)
REMARK    1  A    between atoms: N_5  and  C_1 
REMARK    2  A    between atoms: C_7  and  N_2 
REMARK    3  A    between atoms: C_9  and  C_7 
ROOT
ATOM      1  C   UNL d   1      60.194  49.552  52.126  0.00  0.00     0.720 A 
ATOM      2  N   UNL d   1      59.670  49.635  51.490  0.00  0.00    -0.139 N 
ATOM      3  N   UNL d   1      60.958  49.500  51.818  0.00  0.00    -0.060 NA
ATOM      4  C   UNL d   1      60.116  49.634  50.791  0.00  0.00     0.100 A 
ATOM      5  C   UNL d   1      60.910  49.550  50.994  0.00  0.00     0.116 A 
ATOM      6  C   UNL d   1      59.889  49.699  49.999  0.00  0.00     0.020 A 
ATOM      7  C   UNL d   1      61.485  49.531  50.407  0.00  0.00     0.021 A 
ATOM      8  C   UNL d   1      60.464  49.680  49.413  0.00  0.00     0.002 A 
ATOM      9  C   UNL d   1      61.258  49.596  49.615  0.00  0.00     0.002 A 
ENDROOT
BRANCH   2  10
ATOM     10  C   UNL d   1      58.847  49.707  51.546  0.00  0.00     0.098 C 
BRANCH  10  11
ATOM     11  C   UNL d   1      58.363  49.212  51.092  0.00  0.00     0.018 A 
ATOM     12  C   UNL d   1      57.897  49.526  50.498  0.00  0.00     0.002 A 
ATOM     13  C   UNL d   1      57.416  49.030  50.047  0.00  0.00     0.000 A 
ATOM     14  C   UNL d   1      57.407  48.217  50.196  0.00  0.00     0.000 A 
ATOM     15  C   UNL d   1      57.883  47.907  50.801  0.00  0.00     0.000 A 
ATOM     16  C   UNL d   1      58.361  48.405  51.248  0.00  0.00     0.002 A 
ENDBRANCH  10  11
ENDBRANCH   2  10
BRANCH   1  17
ATOM     17  N   UNL d   1      59.980  49.526  52.921  0.00  0.00    -0.136 N 
ATOM     18  C   UNL d   1      59.208  49.706  53.153  0.00  0.00     0.119 A 
ATOM     19  C   UNL d   1      59.002  49.679  53.946  0.00  0.00     0.119 A 
ATOM     20  N   UNL d   1      59.563  49.472  54.514  0.00  0.00    -0.239 NA
ATOM     21  C   UNL d   1      60.334  49.292  54.282  0.00  0.00     0.119 A 
ATOM     22  C   UNL d   1      60.550  49.318  53.482  0.00  0.00     0.119 A 
ENDBRANCH   1  17
TORSDOF 3
ENDMDL
