MODEL 1
REMARK VINA RESULT:       5.5      0.000      0.000
REMARK  5 active torsions:
REMARK  status: ('A' for Active; 'I' for Inactive)
REMARK    1  A    between atoms: C_12  and  N_1 
REMARK    2  A    between atoms: S_9  and  C_2 
REMARK       I    between atoms: N_7  and  C_10 
REMARK    3  A    between atoms: C_19  and  N_8 
REMARK    4  A    between atoms: C_14  and  S_9 
REMARK    5  A    between atoms: C_10  and  C_14 
ROOT
ATOM      1  N   UNL d   1     -42.611-123.138 -48.701  0.00  0.00    -0.254 N 
ATOM      2  C   UNL d   1     -42.358-122.879 -49.443  0.00  0.00     0.182 A 
ATOM      3  C   UNL d   1     -43.366-123.461 -48.613  0.00  0.00     0.274 A 
ATOM      4  C   UNL d   1     -43.863-123.524 -49.264  0.00  0.00     0.104 A 
ATOM      5  N   UNL d   1     -42.859-122.944 -50.096  0.00  0.00    -0.222 NA
ATOM      6  C   UNL d   1     -43.609-123.265 -50.005  0.00  0.00     0.095 A 
ATOM      7  S   UNL d   1     -44.628-123.815 -49.347  0.00  0.00    -0.080 SA
ATOM      8  O   UNL d   1     -43.619-123.719 -47.872  0.00  0.00    -0.266 OA
ATOM      9  C   UNL d   1     -44.218-123.397 -50.546  0.00  0.00     0.027 A 
ATOM     10  C   UNL d   1     -44.843-123.734 -50.142  0.00  0.00     0.037 A 
ENDROOT
BRANCH   2  11
ATOM     11  S   UNL d   1     -41.596-122.552 -49.537  0.00  0.00    -0.044 SA
BRANCH  11  12
ATOM     12  C   UNL d   1     -41.224-122.592 -50.273  0.00  0.00     0.099 C 
BRANCH  12  13
ATOM     13  C   UNL d   1     -41.209-121.928 -50.765  0.00  0.00     0.272 C 
ATOM     14  N   UNL d   1     -41.278-122.018 -51.582  0.00  0.00    -0.269 N 
ATOM     15  C   UNL d   1     -41.362-122.772 -51.908  0.00  0.00     0.102 A 
ATOM     16  C   UNL d   1     -41.264-121.355 -52.072  0.00  0.00     0.102 A 
ATOM     17  C   UNL d   1     -41.430-122.852 -52.722  0.00  0.00     0.100 A 
ATOM     18  N   UNL d   1     -41.416-122.198 -53.211  0.00  0.00    -0.301 N 
ATOM     19  C   UNL d   1     -41.333-121.444 -52.885  0.00  0.00     0.100 A 
ATOM     20  O   UNL d   1     -41.125-121.175 -50.438  0.00  0.00    -0.266 OA
BRANCH  18  21
ATOM     21  C   UNL d   1     -41.485-122.288 -54.028  0.00  0.00     0.064 A 
ATOM     22  C   UNL d   1     -41.917-121.739 -54.469  0.00  0.00     0.018 A 
ATOM     23  C   UNL d   1     -41.987-121.829 -55.286  0.00  0.00     0.002 A 
ATOM     24  C   UNL d   1     -41.624-122.468 -55.663  0.00  0.00     0.000 A 
ATOM     25  C   UNL d   1     -41.192-123.016 -55.223  0.00  0.00     0.002 A 
ATOM     26  C   UNL d   1     -41.123-122.926 -54.406  0.00  0.00     0.018 A 
ENDBRANCH  18  21
ENDBRANCH  12  13
ENDBRANCH  11  12
ENDBRANCH   2  11
BRANCH   1  27
ATOM     27  C   UNL d   1     -42.118-123.076 -48.052  0.00  0.00     0.069 A 
ATOM     28  C   UNL d   1     -41.758-123.748 -47.738  0.00  0.00     0.018 A 
ATOM     29  C   UNL d   1     -41.260-123.682 -47.083  0.00  0.00     0.002 A 
ATOM     30  C   UNL d   1     -41.123-122.942 -46.742  0.00  0.00     0.000 A 
ATOM     31  C   UNL d   1     -41.484-122.270 -47.056  0.00  0.00     0.002 A 
ATOM     32  C   UNL d   1     -41.981-122.337 -47.711  0.00  0.00     0.018 A 
ENDBRANCH   1  27
TORSDOF 5
ENDMDL
MODEL 2
REMARK VINA RESULT:       7.4      1.702      5.826
REMARK  5 active torsions:
REMARK  status: ('A' for Active; 'I' for Inactive)
REMARK    1  A    between atoms: C_12  and  N_1 
REMARK    2  A    between atoms: S_9  and  C_2 
REMARK       I    between atoms: N_7  and  C_10 
REMARK    3  A    between atoms: C_19  and  N_8 
REMARK    4  A    between atoms: C_14  and  S_9 
REMARK    5  A    between atoms: C_10  and  C_14 
ROOT
ATOM      1  N   UNL d   1     -41.570-121.283 -53.530  0.00  0.00    -0.254 N 
ATOM      2  C   UNL d   1     -41.417-121.641 -52.803  0.00  0.00     0.182 A 
ATOM      3  C   UNL d   1     -41.567-120.460 -53.593  0.00  0.00     0.274 A 
ATOM      4  C   UNL d   1     -41.413-119.999 -52.932  0.00  0.00     0.104 A 
ATOM      5  N   UNL d   1     -41.261-121.176 -52.138  0.00  0.00    -0.222 NA
ATOM      6  C   UNL d   1     -41.260-120.357 -52.205  0.00  0.00     0.095 A 
ATOM      7  S   UNL d   1     -41.373-119.184 -52.825  0.00  0.00    -0.080 SA
ATOM      8  O   UNL d   1     -41.720-120.103 -54.321  0.00  0.00    -0.266 OA
ATOM      9  C   UNL d   1     -41.126-119.762 -51.649  0.00  0.00     0.027 A 
ATOM     10  C   UNL d   1     -41.196-119.043 -52.029  0.00  0.00     0.037 A 
ENDROOT
BRANCH   2  11
ATOM     11  S   UNL d   1     -41.417-122.472 -52.733  0.00  0.00    -0.044 SA
BRANCH  11  12
ATOM     12  C   UNL d   1     -41.241-122.821 -52.005  0.00  0.00     0.099 C 
BRANCH  12  13
ATOM     13  C   UNL d   1     -41.808-123.281 -51.620  0.00  0.00     0.272 C 
ATOM     14  N   UNL d   1     -41.817-123.319 -50.796  0.00  0.00    -0.269 N 
ATOM     15  C   UNL d   1     -41.260-122.897 -50.357  0.00  0.00     0.102 A 
ATOM     16  C   UNL d   1     -42.384-123.779 -50.411  0.00  0.00     0.102 A 
ATOM     17  C   UNL d   1     -41.277-122.940 -49.537  0.00  0.00     0.100 A 
ATOM     18  N   UNL d   1     -41.837-123.395 -49.152  0.00  0.00    -0.301 N 
ATOM     19  C   UNL d   1     -42.394-123.817 -49.591  0.00  0.00     0.100 A 
ATOM     20  O   UNL d   1     -42.365-123.703 -52.059  0.00  0.00    -0.266 OA
BRANCH  18  21
ATOM     21  C   UNL d   1     -41.846-123.433 -48.328  0.00  0.00     0.064 A 
ATOM     22  C   UNL d   1     -41.180-123.699 -47.919  0.00  0.00     0.018 A 
ATOM     23  C   UNL d   1     -41.190-123.737 -47.095  0.00  0.00     0.002 A 
ATOM     24  C   UNL d   1     -41.866-123.509 -46.680  0.00  0.00     0.000 A 
ATOM     25  C   UNL d   1     -42.532-123.244 -47.088  0.00  0.00     0.002 A 
ATOM     26  C   UNL d   1     -42.522-123.206 -47.912  0.00  0.00     0.018 A 
ENDBRANCH  18  21
ENDBRANCH  12  13
ENDBRANCH  11  12
ENDBRANCH   2  11
BRANCH   1  27
ATOM     27  C   UNL d   1     -41.724-121.741 -54.190  0.00  0.00     0.069 A 
ATOM     28  C   UNL d   1     -41.140-122.237 -54.497  0.00  0.00     0.018 A 
ATOM     29  C   UNL d   1     -41.299-122.697 -55.164  0.00  0.00     0.002 A 
ATOM     30  C   UNL d   1     -42.042-122.662 -55.522  0.00  0.00     0.000 A 
ATOM     31  C   UNL d   1     -42.625-122.166 -55.215  0.00  0.00     0.002 A 
ATOM     32  C   UNL d   1     -42.466-121.706 -54.549  0.00  0.00     0.018 A 
ENDBRANCH   1  27
TORSDOF 5
ENDMDL
