MODEL 1
REMARK VINA RESULT:      29.3      0.000      0.000
REMARK  1 active torsions:
REMARK  status: ('A' for Active; 'I' for Inactive)
REMARK    1  A    between atoms: C_9  and  C_1 
ROOT
ATOM      1  C   UNL d   1      13.908  13.155  -3.283  0.00  0.00     0.064 A 
ATOM      2  C   UNL d   1      14.223  12.645  -2.706  0.00  0.00     0.199 A 
ATOM      3  C   UNL d   1      14.592  12.974  -2.037  0.00  0.00     0.062 A 
ATOM      4  C   UNL d   1      13.961  13.970  -3.193  0.00  0.00     0.126 A 
ATOM      5  C   UNL d   1      14.645  13.790  -1.948  0.00  0.00     0.106 A 
ATOM      6  O   UNL d   1      14.329  14.292  -2.526  0.00  0.00    -0.305 OA
ATOM      7  C   UNL d   1      14.904  12.465  -1.467  0.00  0.00     0.009 A 
ATOM      8  C   UNL d   1      15.010  14.112  -1.287  0.00  0.00     0.067 A 
ATOM      9  O   UNL d   1      14.171  11.833  -2.795  0.00  0.00    -0.286 OA
ATOM     10  C   UNL d   1      15.325  13.610  -0.709  0.00  0.00     0.198 A 
ATOM     11  C   UNL d   1      15.273  12.795  -0.798  0.00  0.00     0.042 A 
ATOM     12  O   UNL d   1      15.703  13.929  -0.024  0.00  0.00    -0.286 OA
ENDROOT
BRANCH   1  13
ATOM     13  C   UNL d   1      13.541  12.825  -3.948  0.00  0.00     0.005 A 
ATOM     14  C   UNL d   1      13.138  12.115  -3.893  0.00  0.00     0.000 A 
ATOM     15  C   UNL d   1      12.770  11.786  -4.563  0.00  0.00     0.000 A 
ATOM     16  C   UNL d   1      12.821  12.189  -5.281  0.00  0.00     0.000 A 
ATOM     17  C   UNL d   1      13.224  12.899  -5.335  0.00  0.00     0.000 A 
ATOM     18  C   UNL d   1      13.590  13.229  -4.674  0.00  0.00     0.000 A 
ENDBRANCH   1  13
TORSDOF 1
ENDMDL
