MODEL 1
REMARK VINA RESULT:      32.3      0.000      0.000
REMARK  7 active torsions:
REMARK  status: ('A' for Active; 'I' for Inactive)
REMARK    1  A    between atoms: C_2  and  C_1 
REMARK       I    between atoms: N_8  and  C_1 
REMARK    2  A    between atoms: C_5  and  C_2 
REMARK    3  A    between atoms: C_6  and  C_2 
REMARK    4  A    between atoms: N_3  and  C_9 
REMARK    5  A    between atoms: C_13  and  N_8 
REMARK    6  A    between atoms: C_9  and  C_10 
REMARK    7  A    between atoms: C_10  and  C_13 
ROOT
ATOM      1  C   UNL d   1      13.472  12.847  -3.897  0.00  0.00     0.058 C 
ENDROOT
BRANCH   1   2
ATOM      2  C   UNL d   1      13.419  12.328  -3.239  0.00  0.00     0.279 C 
ATOM      3  O   UNL d   1      12.769  11.791  -3.204  0.00  0.00    -0.265 OA
ATOM      4  N   UNL d   1      13.996  12.343  -2.633  0.00  0.00    -0.206 NA
BRANCH   4   5
ATOM      5  C   UNL d   1      13.936  11.830  -1.993  0.00  0.00     0.104 C 
BRANCH   5   6
ATOM      6  C   UNL d   1      14.175  12.064  -1.244  0.00  0.00     0.040 C 
BRANCH   6   7
ATOM      7  C   UNL d   1      14.960  12.226  -1.099  0.00  0.00     0.082 C 
BRANCH   7   8
ATOM      8  N   UNL d   1      15.158  12.933  -0.752  0.00  0.00    -0.299 N 
ATOM      9  C   UNL d   1      15.951  13.157  -0.660  0.00  0.00     0.107 A 
ATOM     10  C   UNL d   1      16.144  13.880  -0.305  0.00  0.00     0.142 A 
ATOM     11  O   UNL d   1      15.529  14.387  -0.038  0.00  0.00    -0.300 OA
ATOM     12  C   UNL d   1      14.734  14.168  -0.128  0.00  0.00     0.142 A 
ATOM     13  C   UNL d   1      14.552  13.445  -0.483  0.00  0.00     0.107 A 
ENDBRANCH   7   8
ENDBRANCH   6   7
ENDBRANCH   5   6
ENDBRANCH   4   5
ENDBRANCH   1   2
BRANCH   1  14
ATOM     14  C   UNL d   1      13.506  13.660  -3.781  0.00  0.00     0.005 A 
ATOM     15  C   UNL d   1      12.843  14.108  -3.975  0.00  0.00     0.000 A 
ATOM     16  C   UNL d   1      12.856  14.924  -3.868  0.00  0.00     0.000 A 
ATOM     17  C   UNL d   1      13.580  15.294  -3.548  0.00  0.00     0.000 A 
ATOM     18  C   UNL d   1      14.232  14.816  -3.362  0.00  0.00     0.000 A 
ATOM     19  C   UNL d   1      14.203  14.000  -3.475  0.00  0.00     0.000 A 
ENDBRANCH   1  14
BRANCH   1  20
ATOM     20  C   UNL d   1      13.488  12.516  -4.652  0.00  0.00     0.005 A 
ATOM     21  C   UNL d   1      12.837  12.117  -4.942  0.00  0.00     0.000 A 
ATOM     22  C   UNL d   1      12.854  11.784  -5.702  0.00  0.00     0.000 A 
ATOM     23  C   UNL d   1      13.547  11.859  -6.170  0.00  0.00     0.000 A 
ATOM     24  C   UNL d   1      14.195  12.264  -5.864  0.00  0.00     0.000 A 
ATOM     25  C   UNL d   1      14.166  12.590  -5.111  0.00  0.00     0.000 A 
ENDBRANCH   1  20
TORSDOF 7
ENDMDL
