MODEL 1
REMARK VINA RESULT:      -9.9      0.000      0.000
REMARK  5 active torsions:
REMARK  status: ('A' for Active; 'I' for Inactive)
REMARK    1  A    between atoms: C_7  and  N_2 
REMARK    2  A    between atoms: C_14  and  C_7 
REMARK    3  A    between atoms: O_10  and  C_9 
REMARK    4  A    between atoms: C_11  and  O_10 
REMARK    5  A    between atoms: C_13  and  C_11 
ROOT
ATOM      1  C   UNL d   1      53.551  32.841  53.664  0.00  0.00     0.265 A 
ATOM      2  N   UNL d   1      53.320  32.130  53.314  0.00  0.00    -0.272 N 
ATOM      3  C   UNL d   1      53.062  33.499  53.616  0.00  0.00     0.059 A 
ATOM      4  C   UNL d   1      52.340  33.451  53.219  0.00  0.00     0.029 A 
ATOM      5  C   UNL d   1      52.108  32.745  52.869  0.00  0.00     0.021 A 
ATOM      6  C   UNL d   1      52.598  32.082  52.917  0.00  0.00     0.083 A 
ATOM      7  O   UNL d   1      54.272  32.890  54.061  0.00  0.00    -0.267 OA
ATOM      8  C   UNL d   1      51.850  34.113  53.171  0.00  0.00     0.100 A 
ATOM      9  C   UNL d   1      53.293  34.210  53.966  0.00  0.00     0.005 A 
ATOM     10  C   UNL d   1      52.803  34.872  53.919  0.00  0.00     0.002 A 
ATOM     11  C   UNL d   1      52.081  34.824  53.522  0.00  0.00     0.025 A 
ENDROOT
BRANCH   8  12
ATOM     12  O   UNL d   1      51.128  34.065  52.774  0.00  0.00    -0.305 OA
BRANCH  12  13
ATOM     13  C   UNL d   1      50.576  34.674  52.847  0.00  0.00     0.122 C 
BRANCH  13  14
ATOM     14  C   UNL d   1      49.905  34.681  52.367  0.00  0.00     0.025 A 
ATOM     15  C   UNL d   1      49.195  34.990  52.654  0.00  0.00     0.004 A 
ATOM     16  C   UNL d   1      48.524  34.997  52.174  0.00  0.00     0.030 A 
ATOM     17  C   UNL d   1      48.563  34.696  51.407  0.00  0.00     0.140 A 
ATOM     18  C   UNL d   1      49.272  34.387  51.119  0.00  0.00     0.030 A 
ATOM     19  F   UNL d   1      47.892  34.703  50.927  0.00  0.00    -0.204 F 
ATOM     20  C   UNL d   1      49.943  34.380  51.599  0.00  0.00     0.004 A 
ENDBRANCH  13  14
ENDBRANCH  12  13
ENDBRANCH   8  12
BRANCH   2  21
ATOM     21  C   UNL d   1      53.818  31.464  53.364  0.00  0.00     0.083 C 
BRANCH  21  22
ATOM     22  C   UNL d   1      53.501  30.717  53.512  0.00  0.00     0.018 A 
ATOM     23  C   UNL d   1      53.499  30.419  54.279  0.00  0.00     0.002 A 
ATOM     24  C   UNL d   1      53.182  29.672  54.427  0.00  0.00     0.000 A 
ATOM     25  C   UNL d   1      52.868  29.226  53.807  0.00  0.00     0.000 A 
ATOM     26  C   UNL d   1      52.872  29.529  53.044  0.00  0.00     0.000 A 
ATOM     27  C   UNL d   1      53.189  30.276  52.896  0.00  0.00     0.002 A 
ENDBRANCH  21  22
ENDBRANCH   2  21
TORSDOF 5
ENDMDL
MODEL 2
REMARK VINA RESULT:      -8.4      2.102      5.055
REMARK  5 active torsions:
REMARK  status: ('A' for Active; 'I' for Inactive)
REMARK    1  A    between atoms: C_7  and  N_2 
REMARK    2  A    between atoms: C_14  and  C_7 
REMARK    3  A    between atoms: O_10  and  C_9 
REMARK    4  A    between atoms: C_11  and  O_10 
REMARK    5  A    between atoms: C_13  and  C_11 
ROOT
ATOM      1  C   UNL d   1      52.994  34.283  53.686  0.00  0.00     0.265 A 
ATOM      2  N   UNL d   1      52.462  34.058  53.096  0.00  0.00    -0.272 N 
ATOM      3  C   UNL d   1      53.411  33.711  54.101  0.00  0.00     0.059 A 
ATOM      4  C   UNL d   1      53.300  32.912  53.931  0.00  0.00     0.029 A 
ATOM      5  C   UNL d   1      52.771  32.684  53.344  0.00  0.00     0.021 A 
ATOM      6  C   UNL d   1      52.351  33.258  52.926  0.00  0.00     0.083 A 
ATOM      7  O   UNL d   1      53.105  35.083  53.856  0.00  0.00    -0.267 OA
ATOM      8  C   UNL d   1      53.720  32.338  54.349  0.00  0.00     0.100 A 
ATOM      9  C   UNL d   1      53.943  33.937  54.691  0.00  0.00     0.005 A 
ATOM     10  C   UNL d   1      54.363  33.364  55.110  0.00  0.00     0.002 A 
ATOM     11  C   UNL d   1      54.252  32.564  54.939  0.00  0.00     0.025 A 
ENDROOT
BRANCH   8  12
ATOM     12  O   UNL d   1      53.609  31.538  54.179  0.00  0.00    -0.305 OA
BRANCH  12  13
ATOM     13  C   UNL d   1      53.363  31.021  54.773  0.00  0.00     0.122 C 
BRANCH  13  14
ATOM     14  C   UNL d   1      53.388  30.206  54.645  0.00  0.00     0.025 A 
ATOM     15  C   UNL d   1      53.395  29.908  53.875  0.00  0.00     0.004 A 
ATOM     16  C   UNL d   1      53.420  29.094  53.748  0.00  0.00     0.030 A 
ATOM     17  C   UNL d   1      53.438  28.577  54.391  0.00  0.00     0.140 A 
ATOM     18  C   UNL d   1      53.432  28.873  55.161  0.00  0.00     0.030 A 
ATOM     19  F   UNL d   1      53.464  27.762  54.263  0.00  0.00    -0.204 F 
ATOM     20  C   UNL d   1      53.407  29.688  55.288  0.00  0.00     0.004 A 
ENDBRANCH  13  14
ENDBRANCH  12  13
ENDBRANCH   8  12
BRANCH   2  21
ATOM     21  C   UNL d   1      52.039  34.641  52.675  0.00  0.00     0.083 C 
BRANCH  21  22
ATOM     22  C   UNL d   1      51.243  34.527  52.492  0.00  0.00     0.018 A 
ATOM     23  C   UNL d   1      50.669  34.660  53.067  0.00  0.00     0.002 A 
ATOM     24  C   UNL d   1      49.873  34.546  52.884  0.00  0.00     0.000 A 
ATOM     25  C   UNL d   1      49.654  34.300  52.127  0.00  0.00     0.000 A 
ATOM     26  C   UNL d   1      50.232  34.170  51.558  0.00  0.00     0.000 A 
ATOM     27  C   UNL d   1      51.028  34.283  51.741  0.00  0.00     0.002 A 
ENDBRANCH  21  22
ENDBRANCH   2  21
TORSDOF 5
ENDMDL
MODEL 3
REMARK VINA RESULT:      -7.5      2.480      4.023
REMARK  5 active torsions:
REMARK  status: ('A' for Active; 'I' for Inactive)
REMARK    1  A    between atoms: C_7  and  N_2 
REMARK    2  A    between atoms: C_14  and  C_7 
REMARK    3  A    between atoms: O_10  and  C_9 
REMARK    4  A    between atoms: C_11  and  O_10 
REMARK    5  A    between atoms: C_13  and  C_11 
ROOT
ATOM      1  C   UNL d   1      50.667  34.116  51.992  0.00  0.00     0.265 A 
ATOM      2  N   UNL d   1      51.038  34.119  52.730  0.00  0.00    -0.272 N 
ATOM      3  C   UNL d   1      49.928  34.461  51.905  0.00  0.00     0.059 A 
ATOM      4  C   UNL d   1      49.554  34.811  52.552  0.00  0.00     0.029 A 
ATOM      5  C   UNL d   1      49.921  34.816  53.287  0.00  0.00     0.021 A 
ATOM      6  C   UNL d   1      50.665  34.469  53.377  0.00  0.00     0.083 A 
ATOM      7  O   UNL d   1      51.040  33.766  51.345  0.00  0.00    -0.267 OA
ATOM      8  C   UNL d   1      48.810  35.158  52.462  0.00  0.00     0.100 A 
ATOM      9  C   UNL d   1      49.557  34.458  51.167  0.00  0.00     0.005 A 
ATOM     10  C   UNL d   1      48.813  34.804  51.077  0.00  0.00     0.002 A 
ATOM     11  C   UNL d   1      48.440  35.154  51.724  0.00  0.00     0.025 A 
ENDROOT
BRANCH   8  12
ATOM     12  O   UNL d   1      48.437  35.508  53.109  0.00  0.00    -0.305 OA
BRANCH  12  13
ATOM     13  C   UNL d   1      47.720  35.902  53.007  0.00  0.00     0.122 C 
BRANCH  13  14
ATOM     14  C   UNL d   1      47.264  36.104  53.664  0.00  0.00     0.025 A 
ATOM     15  C   UNL d   1      46.459  35.919  53.681  0.00  0.00     0.004 A 
ATOM     16  C   UNL d   1      46.003  36.121  54.338  0.00  0.00     0.030 A 
ATOM     17  C   UNL d   1      46.351  36.507  54.979  0.00  0.00     0.140 A 
ATOM     18  C   UNL d   1      47.156  36.692  54.963  0.00  0.00     0.030 A 
ATOM     19  F   UNL d   1      45.895  36.709  55.636  0.00  0.00    -0.204 F 
ATOM     20  C   UNL d   1      47.612  36.491  54.306  0.00  0.00     0.004 A 
ENDBRANCH  13  14
ENDBRANCH  12  13
ENDBRANCH   8  12
BRANCH   2  21
ATOM     21  C   UNL d   1      51.789  33.767  52.816  0.00  0.00     0.083 C 
BRANCH  21  22
ATOM     22  C   UNL d   1      52.337  34.081  53.348  0.00  0.00     0.018 A 
ATOM     23  C   UNL d   1      52.538  33.656  54.024  0.00  0.00     0.002 A 
ATOM     24  C   UNL d   1      53.085  33.970  54.556  0.00  0.00     0.000 A 
ATOM     25  C   UNL d   1      53.429  34.706  54.409  0.00  0.00     0.000 A 
ATOM     26  C   UNL d   1      53.224  35.124  53.732  0.00  0.00     0.000 A 
ATOM     27  C   UNL d   1      52.677  34.811  53.201  0.00  0.00     0.002 A 
ENDBRANCH  21  22
ENDBRANCH   2  21
TORSDOF 5
ENDMDL
