MODEL 1
REMARK VINA RESULT:      -2.5      0.000      0.000
REMARK  4 active torsions:
REMARK  status: ('A' for Active; 'I' for Inactive)
REMARK    1  A    between atoms: N_2  and  C_1 
REMARK    2  A    between atoms: C_4  and  C_1 
REMARK    3  A    between atoms: C_6  and  N_2 
REMARK    4  A    between atoms: O_12  and  C_7 
ROOT
ATOM      1  N   UNL d   1      33.241  21.261 -21.260  0.00  0.00    -0.235 NA
ENDROOT
BRANCH   1   2
ATOM      2  C   UNL d   1      32.525  21.538 -20.954  0.00  0.00     0.136 C 
ATOM      3  S   UNL d   1      31.826  21.103 -21.057  0.00  0.00    -0.057 SA
BRANCH   2   4
ATOM      4  C   UNL d   1      32.503  22.259 -20.539  0.00  0.00     0.031 A 
ATOM      5  C   UNL d   1      32.119  22.920 -20.875  0.00  0.00     0.023 A 
ATOM      6  C   UNL d   1      32.096  23.636 -20.466  0.00  0.00     0.099 A 
ATOM      7  N   UNL d   1      32.455  23.691 -19.722  0.00  0.00    -0.242 NA
ATOM      8  C   UNL d   1      32.836  23.037 -19.389  0.00  0.00     0.099 A 
ATOM      9  C   UNL d   1      32.860  22.320 -19.797  0.00  0.00     0.023 A 
ENDBRANCH   2   4
ENDBRANCH   1   2
BRANCH   1  10
ATOM     10  C   UNL d   1      33.239  20.624 -21.783  0.00  0.00     0.082 A 
ATOM     11  C   UNL d   1      33.238  19.855 -21.480  0.00  0.00     0.021 A 
ATOM     12  C   UNL d   1      33.236  19.210 -22.001  0.00  0.00     0.026 A 
ATOM     13  C   UNL d   1      33.235  19.337 -22.816  0.00  0.00     0.094 A 
ATOM     14  C   UNL d   1      33.236  20.113 -23.112  0.00  0.00     0.026 A 
ATOM     15  C   UNL d   1      33.238  20.753 -22.594  0.00  0.00     0.021 A 
BRANCH  13  16
ATOM     16  O   UNL d   1      33.233  18.694 -23.332  0.00  0.00    -0.328 OA
ATOM     17  C   UNL d   1      32.523  18.311 -23.514  0.00  0.00     0.181 C 
ENDBRANCH  13  16
ENDBRANCH   1  10
TORSDOF 4
ENDMDL
MODEL 2
REMARK VINA RESULT:      -2.2      1.856      4.181
REMARK  4 active torsions:
REMARK  status: ('A' for Active; 'I' for Inactive)
REMARK    1  A    between atoms: N_2  and  C_1 
REMARK    2  A    between atoms: C_4  and  C_1 
REMARK    3  A    between atoms: C_6  and  N_2 
REMARK    4  A    between atoms: O_12  and  C_7 
ROOT
ATOM      1  N   UNL d   1      32.783  21.131 -22.166  0.00  0.00    -0.235 NA
ENDROOT
BRANCH   1   2
ATOM      2  C   UNL d   1      33.020  20.363 -21.973  0.00  0.00     0.136 C 
ATOM      3  S   UNL d   1      33.241  20.172 -21.197  0.00  0.00    -0.057 SA
BRANCH   2   4
ATOM      4  C   UNL d   1      33.037  19.775 -22.562  0.00  0.00     0.031 A 
ATOM      5  C   UNL d   1      32.894  18.978 -22.358  0.00  0.00     0.023 A 
ATOM      6  C   UNL d   1      32.910  18.394 -22.939  0.00  0.00     0.099 A 
ATOM      7  N   UNL d   1      33.069  18.605 -23.725  0.00  0.00    -0.242 NA
ATOM      8  C   UNL d   1      33.211  19.394 -23.927  0.00  0.00     0.099 A 
ATOM      9  C   UNL d   1      33.195  19.980 -23.346  0.00  0.00     0.023 A 
ENDBRANCH   2   4
ENDBRANCH   1   2
BRANCH   1  10
ATOM     10  C   UNL d   1      32.712  21.694 -21.568  0.00  0.00     0.082 A 
ATOM     11  C   UNL d   1      32.169  21.568 -20.958  0.00  0.00     0.021 A 
ATOM     12  C   UNL d   1      32.093  22.131 -20.355  0.00  0.00     0.026 A 
ATOM     13  C   UNL d   1      32.557  22.813 -20.365  0.00  0.00     0.094 A 
ATOM     14  C   UNL d   1      33.101  22.932 -20.981  0.00  0.00     0.026 A 
ATOM     15  C   UNL d   1      33.176  22.373 -21.580  0.00  0.00     0.021 A 
BRANCH  13  16
ATOM     16  O   UNL d   1      32.480  23.372 -19.763  0.00  0.00    -0.328 OA
ATOM     17  C   UNL d   1      32.886  23.271 -19.050  0.00  0.00     0.181 C 
ENDBRANCH  13  16
ENDBRANCH   1  10
TORSDOF 4
ENDMDL
MODEL 3
REMARK VINA RESULT:      -2.1      1.916      4.246
REMARK  4 active torsions:
REMARK  status: ('A' for Active; 'I' for Inactive)
REMARK    1  A    between atoms: N_2  and  C_1 
REMARK    2  A    between atoms: C_4  and  C_1 
REMARK    3  A    between atoms: C_6  and  N_2 
REMARK    4  A    between atoms: O_12  and  C_7 
ROOT
ATOM      1  N   UNL d   1      32.725  19.820 -21.761  0.00  0.00    -0.235 NA
ENDROOT
BRANCH   1   2
ATOM      2  C   UNL d   1      32.935  19.838 -22.560  0.00  0.00     0.136 C 
ATOM      3  S   UNL d   1      33.241  20.530 -22.900  0.00  0.00    -0.057 SA
BRANCH   2   4
ATOM      4  C   UNL d   1      32.838  19.158 -23.029  0.00  0.00     0.031 A 
ATOM      5  C   UNL d   1      32.807  19.228 -23.860  0.00  0.00     0.023 A 
ATOM      6  C   UNL d   1      32.711  18.555 -24.328  0.00  0.00     0.099 A 
ATOM      7  N   UNL d   1      32.646  17.813 -23.965  0.00  0.00    -0.242 NA
ATOM      8  C   UNL d   1      32.676  17.743 -23.142  0.00  0.00     0.099 A 
ATOM      9  C   UNL d   1      32.772  18.416 -22.673  0.00  0.00     0.023 A 
ENDBRANCH   2   4
ENDBRANCH   1   2
BRANCH   1  10
ATOM     10  C   UNL d   1      32.699  20.523 -21.333  0.00  0.00     0.082 A 
ATOM     11  C   UNL d   1      33.241  20.643 -20.720  0.00  0.00     0.021 A 
ATOM     12  C   UNL d   1      33.219  21.348 -20.286  0.00  0.00     0.026 A 
ATOM     13  C   UNL d   1      32.659  21.927 -20.465  0.00  0.00     0.094 A 
ATOM     14  C   UNL d   1      32.118  21.799 -21.082  0.00  0.00     0.026 A 
ATOM     15  C   UNL d   1      32.140  21.098 -21.513  0.00  0.00     0.021 A 
BRANCH  13  16
ATOM     16  O   UNL d   1      32.640  22.628 -20.032  0.00  0.00    -0.328 OA
ATOM     17  C   UNL d   1      32.677  23.357 -20.421  0.00  0.00     0.181 C 
ENDBRANCH  13  16
ENDBRANCH   1  10
TORSDOF 4
ENDMDL
MODEL 4
REMARK VINA RESULT:      -1.9      2.181      3.590
REMARK  4 active torsions:
REMARK  status: ('A' for Active; 'I' for Inactive)
REMARK    1  A    between atoms: N_2  and  C_1 
REMARK    2  A    between atoms: C_4  and  C_1 
REMARK    3  A    between atoms: C_6  and  N_2 
REMARK    4  A    between atoms: O_12  and  C_7 
ROOT
ATOM      1  N   UNL d   1      32.807  18.692 -23.744  0.00  0.00    -0.235 NA
ENDROOT
BRANCH   1   2
ATOM      2  C   UNL d   1      33.034  18.868 -22.969  0.00  0.00     0.136 C 
ATOM      3  S   UNL d   1      33.241  18.263 -22.442  0.00  0.00    -0.057 SA
BRANCH   2   4
ATOM      4  C   UNL d   1      33.055  19.661 -22.715  0.00  0.00     0.031 A 
ATOM      5  C   UNL d   1      32.908  19.843 -21.913  0.00  0.00     0.023 A 
ATOM      6  C   UNL d   1      32.929  20.627 -21.658  0.00  0.00     0.099 A 
ATOM      7  N   UNL d   1      33.096  21.229 -22.203  0.00  0.00    -0.242 NA
ATOM      8  C   UNL d   1      33.241  21.048 -22.997  0.00  0.00     0.099 A 
ATOM      9  C   UNL d   1      33.221  20.264 -23.253  0.00  0.00     0.023 A 
ENDBRANCH   2   4
ENDBRANCH   1   2
BRANCH   1  10
ATOM     10  C   UNL d   1      32.397  17.993 -23.896  0.00  0.00     0.082 A 
ATOM     11  C   UNL d   1      31.621  18.034 -24.178  0.00  0.00     0.021 A 
ATOM     12  C   UNL d   1      31.204  17.335 -24.333  0.00  0.00     0.026 A 
ATOM     13  C   UNL d   1      31.563  16.603 -24.207  0.00  0.00     0.094 A 
ATOM     14  C   UNL d   1      32.344  16.570 -23.924  0.00  0.00     0.026 A 
ATOM     15  C   UNL d   1      32.757  17.265 -23.771  0.00  0.00     0.021 A 
BRANCH  13  16
ATOM     16  O   UNL d   1      31.146  15.909 -24.363  0.00  0.00    -0.328 OA
ATOM     17  C   UNL d   1      30.845  15.458 -23.738  0.00  0.00     0.181 C 
ENDBRANCH  13  16
ENDBRANCH   1  10
TORSDOF 4
ENDMDL
MODEL 5
REMARK VINA RESULT:      -1.9      2.675      5.269
REMARK  4 active torsions:
REMARK  status: ('A' for Active; 'I' for Inactive)
REMARK    1  A    between atoms: N_2  and  C_1 
REMARK    2  A    between atoms: C_4  and  C_1 
REMARK    3  A    between atoms: C_6  and  N_2 
REMARK    4  A    between atoms: O_12  and  C_7 
ROOT
ATOM      1  N   UNL d   1      33.078  18.000 -23.599  0.00  0.00    -0.235 NA
ENDROOT
BRANCH   1   2
ATOM      2  C   UNL d   1      32.471  17.805 -24.123  0.00  0.00     0.136 C 
ATOM      3  S   UNL d   1      32.184  18.363 -24.665  0.00  0.00    -0.057 SA
BRANCH   2   4
ATOM      4  C   UNL d   1      32.141  17.040 -24.108  0.00  0.00     0.031 A 
ATOM      5  C   UNL d   1      32.641  16.374 -24.060  0.00  0.00     0.023 A 
ATOM      6  C   UNL d   1      32.318  15.615 -24.045  0.00  0.00     0.099 A 
ATOM      7  N   UNL d   1      31.495  15.522 -24.079  0.00  0.00    -0.242 NA
ATOM      8  C   UNL d   1      31.000  16.183 -24.126  0.00  0.00     0.099 A 
ATOM      9  C   UNL d   1      31.322  16.942 -24.141  0.00  0.00     0.023 A 
ENDBRANCH   2   4
ENDBRANCH   1   2
BRANCH   1  10
ATOM     10  C   UNL d   1      33.106  18.758 -23.276  0.00  0.00     0.082 A 
ATOM     11  C   UNL d   1      33.023  18.850 -22.458  0.00  0.00     0.021 A 
ATOM     12  C   UNL d   1      33.050  19.609 -22.127  0.00  0.00     0.026 A 
ATOM     13  C   UNL d   1      33.158  20.268 -22.611  0.00  0.00     0.094 A 
ATOM     14  C   UNL d   1      33.241  20.167 -23.432  0.00  0.00     0.026 A 
ATOM     15  C   UNL d   1      33.214  19.413 -23.760  0.00  0.00     0.021 A 
BRANCH  13  16
ATOM     16  O   UNL d   1      33.185  21.022 -22.279  0.00  0.00    -0.328 OA
ATOM     17  C   UNL d   1      33.039  21.125 -21.472  0.00  0.00     0.181 C 
ENDBRANCH  13  16
ENDBRANCH   1  10
TORSDOF 4
ENDMDL
MODEL 6
REMARK VINA RESULT:      -1.8      2.323      3.275
REMARK  4 active torsions:
REMARK  status: ('A' for Active; 'I' for Inactive)
REMARK    1  A    between atoms: N_2  and  C_1 
REMARK    2  A    between atoms: C_4  and  C_1 
REMARK    3  A    between atoms: C_6  and  N_2 
REMARK    4  A    between atoms: O_12  and  C_7 
ROOT
ATOM      1  N   UNL d   1      33.241  22.753 -19.386  0.00  0.00    -0.235 NA
ENDROOT
BRANCH   1   2
ATOM      2  C   UNL d   1      32.731  23.173 -18.890  0.00  0.00     0.136 C 
ATOM      3  S   UNL d   1      32.146  23.668 -19.208  0.00  0.00    -0.057 SA
BRANCH   2   4
ATOM      4  C   UNL d   1      32.803  23.101 -18.064  0.00  0.00     0.031 A 
ATOM      5  C   UNL d   1      32.505  23.702 -17.567  0.00  0.00     0.023 A 
ATOM      6  C   UNL d   1      32.576  23.634 -16.748  0.00  0.00     0.099 A 
ATOM      7  N   UNL d   1      32.944  22.965 -16.426  0.00  0.00    -0.242 NA
ATOM      8  C   UNL d   1      33.240  22.370 -16.918  0.00  0.00     0.099 A 
ATOM      9  C   UNL d   1      33.169  22.438 -17.737  0.00  0.00     0.023 A 
ENDBRANCH   2   4
ENDBRANCH   1   2
BRANCH   1  10
ATOM     10  C   UNL d   1      33.096  22.738 -20.197  0.00  0.00     0.082 A 
ATOM     11  C   UNL d   1      33.115  23.447 -20.623  0.00  0.00     0.021 A 
ATOM     12  C   UNL d   1      32.971  23.439 -21.438  0.00  0.00     0.026 A 
ATOM     13  C   UNL d   1      32.809  22.727 -21.822  0.00  0.00     0.094 A 
ATOM     14  C   UNL d   1      32.791  22.019 -21.388  0.00  0.00     0.026 A 
ATOM     15  C   UNL d   1      32.935  22.028 -20.577  0.00  0.00     0.021 A 
BRANCH  13  16
ATOM     16  O   UNL d   1      32.665  22.721 -22.634  0.00  0.00    -0.328 OA
ATOM     17  C   UNL d   1      33.223  23.039 -23.156  0.00  0.00     0.181 C 
ENDBRANCH  13  16
ENDBRANCH   1  10
TORSDOF 4
ENDMDL
MODEL 7
REMARK VINA RESULT:      -1.6      3.865      5.609
REMARK  4 active torsions:
REMARK  status: ('A' for Active; 'I' for Inactive)
REMARK    1  A    between atoms: N_2  and  C_1 
REMARK    2  A    between atoms: C_4  and  C_1 
REMARK    3  A    between atoms: C_6  and  N_2 
REMARK    4  A    between atoms: O_12  and  C_7 
ROOT
ATOM      1  N   UNL d   1      31.184  17.348 -24.677  0.00  0.00    -0.235 NA
ENDROOT
BRANCH   1   2
ATOM      2  C   UNL d   1      31.760  17.327 -24.086  0.00  0.00     0.136 C 
ATOM      3  S   UNL d   1      31.849  16.656 -23.606  0.00  0.00    -0.057 SA
BRANCH   2   4
ATOM      4  C   UNL d   1      32.257  17.984 -23.968  0.00  0.00     0.031 A 
ATOM      5  C   UNL d   1      32.372  18.286 -23.198  0.00  0.00     0.023 A 
ATOM      6  C   UNL d   1      32.864  18.938 -23.079  0.00  0.00     0.099 A 
ATOM      7  N   UNL d   1      33.241  19.287 -23.729  0.00  0.00    -0.242 NA
ATOM      8  C   UNL d   1      33.128  18.988 -24.492  0.00  0.00     0.099 A 
ATOM      9  C   UNL d   1      32.635  18.337 -24.612  0.00  0.00     0.023 A 
ENDBRANCH   2   4
ENDBRANCH   1   2
BRANCH   1  10
ATOM     10  C   UNL d   1      30.509  16.880 -24.602  0.00  0.00     0.082 A 
ATOM     11  C   UNL d   1      29.805  17.229 -24.344  0.00  0.00     0.021 A 
ATOM     12  C   UNL d   1      29.123  16.764 -24.266  0.00  0.00     0.026 A 
ATOM     13  C   UNL d   1      29.149  15.960 -24.445  0.00  0.00     0.094 A 
ATOM     14  C   UNL d   1      29.860  15.617 -24.704  0.00  0.00     0.026 A 
ATOM     15  C   UNL d   1      30.537  16.079 -24.781  0.00  0.00     0.021 A 
BRANCH  13  16
ATOM     16  O   UNL d   1      28.469  15.499 -24.367  0.00  0.00    -0.328 OA
ATOM     17  C   UNL d   1      28.082  15.453 -23.638  0.00  0.00     0.181 C 
ENDBRANCH  13  16
ENDBRANCH   1  10
TORSDOF 4
ENDMDL
MODEL 8
REMARK VINA RESULT:      -1.3      6.090      7.023
REMARK  4 active torsions:
REMARK  status: ('A' for Active; 'I' for Inactive)
REMARK    1  A    between atoms: N_2  and  C_1 
REMARK    2  A    between atoms: C_4  and  C_1 
REMARK    3  A    between atoms: C_6  and  N_2 
REMARK    4  A    between atoms: O_12  and  C_7 
ROOT
ATOM      1  N   UNL d   1      30.396  16.740 -24.266  0.00  0.00    -0.235 NA
ENDROOT
BRANCH   1   2
ATOM      2  C   UNL d   1      30.802  16.154 -24.684  0.00  0.00     0.136 C 
ATOM      3  S   UNL d   1      30.402  15.487 -24.973  0.00  0.00    -0.057 SA
BRANCH   2   4
ATOM      4  C   UNL d   1      31.620  16.233 -24.817  0.00  0.00     0.031 A 
ATOM      5  C   UNL d   1      31.950  16.991 -24.936  0.00  0.00     0.023 A 
ATOM      6  C   UNL d   1      32.760  17.072 -25.069  0.00  0.00     0.099 A 
ATOM      7  N   UNL d   1      33.240  16.396 -25.082  0.00  0.00    -0.242 NA
ATOM      8  C   UNL d   1      32.913  15.646 -24.964  0.00  0.00     0.099 A 
ATOM      9  C   UNL d   1      32.103  15.564 -24.832  0.00  0.00     0.023 A 
ENDBRANCH   2   4
ENDBRANCH   1   2
BRANCH   1  10
ATOM     10  C   UNL d   1      29.636  16.584 -23.986  0.00  0.00     0.082 A 
ATOM     11  C   UNL d   1      28.995  16.994 -24.311  0.00  0.00     0.021 A 
ATOM     12  C   UNL d   1      28.230  16.842 -24.034  0.00  0.00     0.026 A 
ATOM     13  C   UNL d   1      28.109  16.285 -23.438  0.00  0.00     0.094 A 
ATOM     14  C   UNL d   1      28.758  15.878 -23.117  0.00  0.00     0.026 A 
ATOM     15  C   UNL d   1      29.518  16.029 -23.393  0.00  0.00     0.021 A 
BRANCH  13  16
ATOM     16  O   UNL d   1      27.345  16.136 -23.164  0.00  0.00    -0.328 OA
ATOM     17  C   UNL d   1      26.946  15.453 -23.403  0.00  0.00     0.181 C 
ENDBRANCH  13  16
ENDBRANCH   1  10
TORSDOF 4
ENDMDL
