MODEL 1
REMARK VINA RESULT:      42.8      0.000      0.000
REMARK  10 active torsions:
REMARK  status: ('A' for Active; 'I' for Inactive)
REMARK       I    between atoms: C_6  and  N_1 
REMARK    1  A    between atoms: C_7  and  C_3 
REMARK    2  A    between atoms: C_9  and  C_4 
REMARK    3  A    between atoms: C_19  and  C_6 
REMARK    4  A    between atoms: C_10  and  C_25 
REMARK    5  A    between atoms: O_23  and  C_10 
REMARK    6  A    between atoms: S_18  and  C_19 
REMARK    7  A    between atoms: C_25  and  S_18 
REMARK    8  A    between atoms: C_26  and  O_23 
REMARK    9  A    between atoms: C_27  and  C_26 
REMARK   10  A    between atoms: C_28  and  C_27 
ROOT
ATOM      1  N   UNL d   1      13.980  13.487  -2.976  0.00  0.00    -0.195 N 
ATOM      2  N   UNL d   1      14.175  13.422  -2.179  0.00  0.00    -0.162 NA
ATOM      3  C   UNL d   1      14.166  12.649  -1.976  0.00  0.00     0.109 A 
ATOM      4  C   UNL d   1      13.850  12.725  -3.256  0.00  0.00     0.088 A 
ATOM      5  C   UNL d   1      13.963  12.204  -2.641  0.00  0.00     0.041 A 
ATOM      6  C   UNL d   1      13.924  14.191  -3.416  0.00  0.00     0.275 C 
ATOM      7  O   UNL d   1      13.722  14.170  -4.212  0.00  0.00    -0.266 OA
ENDROOT
BRANCH   4   8
ATOM      8  C   UNL d   1      13.641  12.497  -4.015  0.00  0.00     0.018 A 
ATOM      9  C   UNL d   1      12.986  12.011  -4.128  0.00  0.00     0.004 A 
ATOM     10  C   UNL d   1      12.777  11.783  -4.887  0.00  0.00     0.030 A 
ATOM     11  C   UNL d   1      13.213  12.032  -5.539  0.00  0.00     0.140 A 
ATOM     12  C   UNL d   1      13.876  12.524  -5.415  0.00  0.00     0.030 A 
ATOM     13  F   UNL d   1      12.996  11.798  -6.297  0.00  0.00    -0.204 F 
ATOM     14  C   UNL d   1      14.086  12.753  -4.661  0.00  0.00     0.004 A 
ENDBRANCH   4   8
BRANCH   6  15
ATOM     15  C   UNL d   1      14.073  14.914  -3.049  0.00  0.00     0.127 C 
BRANCH  15  16
ATOM     16  S   UNL d   1      14.668  15.407  -3.327  0.00  0.00    -0.089 SA
BRANCH  16  17
ATOM     17  C   UNL d   1      14.494  15.982  -3.886  0.00  0.00     0.103 C 
BRANCH  17  18
ATOM     18  C   UNL d   1      15.000  16.619  -4.008  0.00  0.00     0.307 C 
ATOM     19  O   UNL d   1      15.459  16.899  -3.379  0.00  0.00    -0.258 OA
BRANCH  18  20
ATOM     20  O   UNL d   1      15.055  16.981  -4.752  0.00  0.00    -0.271 OA
BRANCH  20  21
ATOM     21  C   UNL d   1      14.459  17.480  -5.012  0.00  0.00     0.126 C 
BRANCH  21  22
ATOM     22  C   UNL d   1      14.617  18.039  -5.609  0.00  0.00     0.027 C 
BRANCH  22  23
ATOM     23  C   UNL d   1      14.494  18.843  -5.465  0.00  0.00     0.002 C 
ATOM     24  C   UNL d   1      13.743  19.161  -5.587  0.00  0.00     0.000 C 
ENDBRANCH  22  23
ENDBRANCH  21  22
ENDBRANCH  20  21
ENDBRANCH  18  20
ENDBRANCH  17  18
ENDBRANCH  16  17
ENDBRANCH  15  16
ENDBRANCH   6  15
BRANCH   3  25
ATOM     25  C   UNL d   1      14.337  12.384  -1.213  0.00  0.00     0.049 A 
ATOM     26  S   UNL d   1      14.064  11.781  -0.732  0.00  0.00    -0.085 SA
ATOM     27  C   UNL d   1      14.471  11.816  -0.018  0.00  0.00     0.035 A 
ATOM     28  C   UNL d   1      15.003  12.446  -0.053  0.00  0.00     0.007 A 
ATOM     29  C   UNL d   1      14.922  12.802  -0.794  0.00  0.00     0.009 A 
ENDBRANCH   3  25
TORSDOF 10
ENDMDL
