MODEL 1
REMARK VINA RESULT:      60.7      0.000      0.000
REMARK  5 active torsions:
REMARK  status: ('A' for Active; 'I' for Inactive)
REMARK    1  A    between atoms: C_12  and  C_4 
REMARK    2  A    between atoms: S_10  and  C_5 
REMARK    3  A    between atoms: C_15  and  S_10 
REMARK    4  A    between atoms: C_11  and  C_15 
REMARK       I    between atoms: N_13  and  C_11 
REMARK    5  A    between atoms: C_16  and  N_13 
ROOT
ATOM      1  N   UNL d   1      14.041  14.073  -3.005  0.00  0.00    -0.206 N 
ATOM      2  C   UNL d   1      14.104  13.462  -2.452  0.00  0.00     0.166 A 
ATOM      3  N   UNL d   1      14.732  14.929  -2.129  0.00  0.00    -0.163 NA
ATOM      4  C   UNL d   1      14.478  13.583  -1.744  0.00  0.00     0.055 A 
ATOM      5  C   UNL d   1      13.665  13.931  -3.704  0.00  0.00     0.116 A 
ATOM      6  C   UNL d   1      14.793  14.328  -1.586  0.00  0.00     0.104 A 
ATOM      7  N   UNL d   1      13.790  12.726  -2.615  0.00  0.00    -0.227 NA
ATOM      8  C   UNL d   1      13.346  13.202  -3.882  0.00  0.00     0.045 A 
ATOM      9  C   UNL d   1      13.408  12.595  -3.333  0.00  0.00     0.085 A 
ATOM     10  C   UNL d   1      15.165  14.446  -0.880  0.00  0.00     0.023 C 
ATOM     11  C   UNL d   1      13.080  11.826  -3.502  0.00  0.00     0.021 C 
ENDROOT
BRANCH   5  12
ATOM     12  S   UNL d   1      13.601  14.560  -4.273  0.00  0.00    -0.062 SA
BRANCH  12  13
ATOM     13  C   UNL d   1      13.995  14.927  -4.916  0.00  0.00     0.099 C 
BRANCH  13  14
ATOM     14  C   UNL d   1      13.818  15.725  -5.118  0.00  0.00     0.286 C 
ATOM     15  N   UNL d   1      14.443  16.274  -5.287  0.00  0.00    -0.208 NA
ATOM     16  O   UNL d   1      13.015  15.986  -5.154  0.00  0.00    -0.265 OA
BRANCH  15  17
ATOM     17  C   UNL d   1      14.262  17.072  -5.489  0.00  0.00     0.085 A 
ATOM     18  C   UNL d   1      13.818  17.235  -6.187  0.00  0.00     0.022 A 
ATOM     19  C   UNL d   1      13.637  18.047  -6.387  0.00  0.00     0.044 A 
ATOM     20  C   UNL d   1      13.900  18.670  -5.892  0.00  0.00     0.196 A 
ATOM     21  C   UNL d   1      14.344  18.507  -5.194  0.00  0.00     0.044 A 
ATOM     22  O   UNL d   1      13.719  19.468  -6.094  0.00  0.00    -0.287 OA
ATOM     23  C   UNL d   1      14.525  17.704  -4.993  0.00  0.00     0.022 A 
ENDBRANCH  15  17
ENDBRANCH  13  14
ENDBRANCH  12  13
ENDBRANCH   5  12
BRANCH   4  24
ATOM     24  C   UNL d   1      14.540  12.982  -1.201  0.00  0.00     0.004 A 
ATOM     25  C   UNL d   1      15.084  12.398  -1.304  0.00  0.00     0.000 A 
ATOM     26  C   UNL d   1      15.146  11.797  -0.761  0.00  0.00     0.000 A 
ATOM     27  C   UNL d   1      14.664  11.779  -0.115  0.00  0.00     0.000 A 
ATOM     28  C   UNL d   1      14.107  12.381  -0.015  0.00  0.00     0.000 A 
ATOM     29  C   UNL d   1      14.056  12.968  -0.557  0.00  0.00     0.000 A 
ENDBRANCH   4  24
TORSDOF 5
ENDMDL
MODEL 2
REMARK VINA RESULT:      62.2      1.064      2.009
REMARK  5 active torsions:
REMARK  status: ('A' for Active; 'I' for Inactive)
REMARK    1  A    between atoms: C_12  and  C_4 
REMARK    2  A    between atoms: S_10  and  C_5 
REMARK    3  A    between atoms: C_15  and  S_10 
REMARK    4  A    between atoms: C_11  and  C_15 
REMARK       I    between atoms: N_13  and  C_11 
REMARK    5  A    between atoms: C_16  and  N_13 
ROOT
ATOM      1  N   UNL d   1      14.453  14.569  -2.508  0.00  0.00    -0.206 N 
ATOM      2  C   UNL d   1      14.514  14.062  -1.859  0.00  0.00     0.166 A 
ATOM      3  N   UNL d   1      14.022  13.492  -3.303  0.00  0.00    -0.163 NA
ATOM      4  C   UNL d   1      14.331  13.277  -1.932  0.00  0.00     0.055 A 
ATOM      5  C   UNL d   1      14.640  15.348  -2.415  0.00  0.00     0.116 A 
ATOM      6  C   UNL d   1      14.082  12.994  -2.665  0.00  0.00     0.104 A 
ATOM      7  N   UNL d   1      14.761  14.347  -1.135  0.00  0.00    -0.227 NA
ATOM      8  C   UNL d   1      14.888  15.649  -1.699  0.00  0.00     0.045 A 
ATOM      9  C   UNL d   1      14.949  15.145  -1.054  0.00  0.00     0.085 A 
ATOM     10  C   UNL d   1      13.901  12.211  -2.734  0.00  0.00     0.023 C 
ATOM     11  C   UNL d   1      15.207  15.443  -0.298  0.00  0.00     0.021 C 
ENDROOT
BRANCH   5  12
ATOM     12  S   UNL d   1      14.577  15.870  -3.084  0.00  0.00    -0.062 SA
BRANCH  12  13
ATOM     13  C   UNL d   1      14.968  16.114  -3.784  0.00  0.00     0.099 C 
BRANCH  13  14
ATOM     14  C   UNL d   1      14.825  16.880  -4.101  0.00  0.00     0.286 C 
ATOM     15  N   UNL d   1      14.756  16.993  -4.939  0.00  0.00    -0.208 NA
ATOM     16  O   UNL d   1      14.750  17.546  -3.586  0.00  0.00    -0.265 OA
BRANCH  15  17
ATOM     17  C   UNL d   1      14.613  17.764  -5.253  0.00  0.00     0.085 A 
ATOM     18  C   UNL d   1      15.162  18.384  -5.098  0.00  0.00     0.022 A 
ATOM     19  C   UNL d   1      15.012  19.163  -5.419  0.00  0.00     0.044 A 
ATOM     20  C   UNL d   1      14.325  19.303  -5.880  0.00  0.00     0.196 A 
ATOM     21  C   UNL d   1      13.777  18.681  -6.034  0.00  0.00     0.044 A 
ATOM     22  O   UNL d   1      14.183  20.072  -6.193  0.00  0.00    -0.287 OA
ATOM     23  C   UNL d   1      13.923  17.909  -5.718  0.00  0.00     0.022 A 
ENDBRANCH  15  17
ENDBRANCH  13  14
ENDBRANCH  12  13
ENDBRANCH   5  12
BRANCH   4  24
ATOM     24  C   UNL d   1      14.392  12.777  -1.293  0.00  0.00     0.004 A 
ATOM     25  C   UNL d   1      15.073  12.369  -1.162  0.00  0.00     0.000 A 
ATOM     26  C   UNL d   1      15.133  11.870  -0.523  0.00  0.00     0.000 A 
ATOM     27  C   UNL d   1      14.512  11.779  -0.016  0.00  0.00     0.000 A 
ATOM     28  C   UNL d   1      13.817  12.201  -0.156  0.00  0.00     0.000 A 
ATOM     29  C   UNL d   1      13.770  12.689  -0.788  0.00  0.00     0.000 A 
ENDBRANCH   4  24
TORSDOF 5
ENDMDL
