MODEL 1
REMARK VINA RESULT:      43.4      0.000      0.000
REMARK  5 active torsions:
REMARK  status: ('A' for Active; 'I' for Inactive)
REMARK    1  A    between atoms: N_2  and  S_1 
REMARK    2  A    between atoms: C_5  and  S_1 
REMARK    3  A    between atoms: S_8  and  C_3 
REMARK    4  A    between atoms: C_13  and  S_8 
REMARK    5  A    between atoms: C_15  and  C_13 
ROOT
ATOM      1  N   UNL d   1     -55.244 -99.513 -44.110  0.00  0.00    -0.208 N 
ATOM      2  C   UNL d   1     -55.898 -99.034 -44.291  0.00  0.00     0.189 A 
ATOM      3  N   UNL d   1     -55.808 -98.756 -45.066  0.00  0.00    -0.219 NA
ATOM      4  C   UNL d   1     -54.748 -99.531 -44.777  0.00  0.00     0.114 A 
ATOM      5  C   UNL d   1     -55.098 -99.065 -45.362  0.00  0.00     0.121 A 
ENDROOT
BRANCH   1   6
ATOM      6  S   UNL d   1     -55.114 -99.903 -43.390  0.00  0.00     0.273 S 
ATOM      7  O   UNL d   1     -55.017-100.057 -42.582  0.00  0.00    -0.200 OA
ATOM      8  O   UNL d   1     -55.206 -99.177 -43.021  0.00  0.00    -0.200 OA
BRANCH   6   9
ATOM      9  C   UNL d   1     -55.018-100.644 -43.743  0.00  0.00     0.104 A 
ATOM     10  C   UNL d   1     -54.819-101.289 -43.278  0.00  0.00     0.015 A 
ATOM     11  C   UNL d   1     -54.723-102.025 -43.632  0.00  0.00     0.030 A 
ATOM     12  C   UNL d   1     -54.828-102.109 -44.448  0.00  0.00     0.140 A 
ATOM     13  C   UNL d   1     -55.028-101.461 -44.912  0.00  0.00     0.030 A 
ATOM     14  F   UNL d   1     -54.732-102.850 -44.802  0.00  0.00    -0.204 F 
ATOM     15  C   UNL d   1     -55.123-100.721 -44.554  0.00  0.00     0.015 A 
ENDBRANCH   6   9
ENDBRANCH   1   6
BRANCH   2  16
ATOM     16  S   UNL d   1     -56.534 -98.862 -43.782  0.00  0.00    -0.049 SA
BRANCH  16  17
ATOM     17  C   UNL d   1     -57.176 -99.380 -43.738  0.00  0.00     0.038 C 
BRANCH  17  18
ATOM     18  C   UNL d   1     -57.863 -99.223 -44.180  0.00  0.00     0.007 A 
ATOM     19  C   UNL d   1     -58.596 -99.129 -43.800  0.00  0.00     0.001 A 
ATOM     20  C   UNL d   1     -59.276 -98.974 -44.232  0.00  0.00     0.000 A 
ATOM     21  C   UNL d   1     -59.230 -98.911 -45.053  0.00  0.00     0.000 A 
ATOM     22  C   UNL d   1     -58.500 -99.004 -45.435  0.00  0.00     0.000 A 
ATOM     23  C   UNL d   1     -59.908 -98.756 -45.493  0.00  0.00     0.000 C 
ATOM     24  C   UNL d   1     -57.820 -99.160 -44.998  0.00  0.00     0.001 A 
ENDBRANCH  17  18
ENDBRANCH  16  17
ENDBRANCH   2  16
TORSDOF 5
ENDMDL
