MODEL 1
REMARK VINA RESULT:     -10.3      0.000      0.000
REMARK  4 active torsions:
REMARK  status: ('A' for Active; 'I' for Inactive)
REMARK    1  A    between atoms: N_2  and  S_1 
REMARK    2  A    between atoms: C_8  and  S_1 
REMARK    3  A    between atoms: C_4  and  C_3 
REMARK       I    between atoms: N_5  and  C_4 
REMARK    4  A    between atoms: C_6  and  N_5 
ROOT
ATOM      1  N   UNL d   1      53.420  31.248  53.556  0.00  0.00    -0.226 N 
ATOM      2  C   UNL d   1      52.776  31.398  53.058  0.00  0.00     0.133 A 
ATOM      3  C   UNL d   1      53.519  30.434  53.613  0.00  0.00     0.092 A 
ATOM      4  C   UNL d   1      52.477  30.670  52.808  0.00  0.00     0.025 A 
ATOM      5  C   UNL d   1      52.938  30.079  53.152  0.00  0.00     0.021 A 
ENDROOT
BRANCH   1   6
ATOM      6  S   UNL d   1      53.845  31.868  53.902  0.00  0.00     0.271 S 
ATOM      7  O   UNL d   1      54.274  32.025  53.215  0.00  0.00    -0.200 OA
ATOM      8  O   UNL d   1      53.411  31.703  54.584  0.00  0.00    -0.200 OA
BRANCH   6   9
ATOM      9  C   UNL d   1      54.240  32.474  54.291  0.00  0.00     0.104 A 
ATOM     10  C   UNL d   1      54.054  32.646  55.076  0.00  0.00     0.013 A 
ATOM     11  C   UNL d   1      54.449  33.255  55.470  0.00  0.00     0.001 A 
ATOM     12  C   UNL d   1      55.032  33.691  55.075  0.00  0.00     0.000 A 
ATOM     13  C   UNL d   1      55.215  33.515  54.288  0.00  0.00     0.001 A 
ATOM     14  C   UNL d   1      55.426  34.299  55.469  0.00  0.00     0.000 C 
ATOM     15  C   UNL d   1      54.819  32.907  53.897  0.00  0.00     0.013 A 
ENDBRANCH   6   9
ENDBRANCH   1   6
BRANCH   2  16
ATOM     16  C   UNL d   1      52.482  32.145  52.848  0.00  0.00     0.298 C 
ATOM     17  N   UNL d   1      51.725  32.368  53.100  0.00  0.00    -0.181 NA
ATOM     18  O   UNL d   1      52.942  32.653  52.395  0.00  0.00    -0.264 OA
BRANCH  17  19
ATOM     19  C   UNL d   1      51.434  33.112  52.889  0.00  0.00     0.197 A 
ATOM     20  N   UNL d   1      51.599  33.506  52.182  0.00  0.00    -0.219 NA
ATOM     21  C   UNL d   1      51.199  34.224  52.201  0.00  0.00     0.108 A 
ATOM     22  C   UNL d   1      50.790  34.279  52.912  0.00  0.00     0.059 A 
ATOM     23  S   UNL d   1      50.936  33.585  53.341  0.00  0.00    -0.046 SA
ENDBRANCH  17  19
ENDBRANCH   2  16
TORSDOF 4
ENDMDL
MODEL 2
REMARK VINA RESULT:      -9.9      1.199      3.599
REMARK  4 active torsions:
REMARK  status: ('A' for Active; 'I' for Inactive)
REMARK    1  A    between atoms: N_2  and  S_1 
REMARK    2  A    between atoms: C_8  and  S_1 
REMARK    3  A    between atoms: C_4  and  C_3 
REMARK       I    between atoms: N_5  and  C_4 
REMARK    4  A    between atoms: C_6  and  N_5 
ROOT
ATOM      1  N   UNL d   1      53.519  33.684  54.265  0.00  0.00    -0.226 N 
ATOM      2  C   UNL d   1      53.912  32.955  54.264  0.00  0.00     0.133 A 
ATOM      3  C   UNL d   1      53.902  34.184  54.794  0.00  0.00     0.092 A 
ATOM      4  C   UNL d   1      54.541  33.008  54.796  0.00  0.00     0.025 A 
ATOM      5  C   UNL d   1      54.531  33.766  55.120  0.00  0.00     0.021 A 
ENDROOT
BRANCH   1   6
ATOM      6  S   UNL d   1      52.857  33.812  53.786  0.00  0.00     0.271 S 
ATOM      7  O   UNL d   1      53.308  33.906  53.101  0.00  0.00    -0.200 OA
ATOM      8  O   UNL d   1      52.416  33.717  54.476  0.00  0.00    -0.200 OA
BRANCH   6   9
ATOM      9  C   UNL d   1      52.169  33.934  53.354  0.00  0.00     0.104 A 
ATOM     10  C   UNL d   1      51.437  33.756  53.689  0.00  0.00     0.013 A 
ATOM     11  C   UNL d   1      50.744  33.877  53.259  0.00  0.00     0.001 A 
ATOM     12  C   UNL d   1      50.786  34.179  52.488  0.00  0.00     0.000 A 
ATOM     13  C   UNL d   1      51.522  34.357  52.154  0.00  0.00     0.001 A 
ATOM     14  C   UNL d   1      50.093  34.300  52.057  0.00  0.00     0.000 C 
ATOM     15  C   UNL d   1      52.212  34.234  52.588  0.00  0.00     0.013 A 
ENDBRANCH   6   9
ENDBRANCH   1   6
BRANCH   2  16
ATOM     16  C   UNL d   1      53.711  32.291  53.810  0.00  0.00     0.298 C 
ATOM     17  N   UNL d   1      53.464  31.598  54.192  0.00  0.00    -0.181 NA
ATOM     18  O   UNL d   1      53.758  32.325  52.990  0.00  0.00    -0.264 OA
BRANCH  17  19
ATOM     19  C   UNL d   1      53.264  30.937  53.739  0.00  0.00     0.197 A 
ATOM     20  N   UNL d   1      52.506  30.762  53.459  0.00  0.00    -0.219 NA
ATOM     21  C   UNL d   1      52.557  30.059  53.035  0.00  0.00     0.108 A 
ATOM     22  C   UNL d   1      53.336  29.798  53.050  0.00  0.00     0.059 A 
ATOM     23  S   UNL d   1      53.777  30.346  53.489  0.00  0.00    -0.046 SA
ENDBRANCH  17  19
ENDBRANCH   2  16
TORSDOF 4
ENDMDL
MODEL 3
REMARK VINA RESULT:      -9.5      1.087      3.234
REMARK  4 active torsions:
REMARK  status: ('A' for Active; 'I' for Inactive)
REMARK    1  A    between atoms: N_2  and  S_1 
REMARK    2  A    between atoms: C_8  and  S_1 
REMARK    3  A    between atoms: C_4  and  C_3 
REMARK       I    between atoms: N_5  and  C_4 
REMARK    4  A    between atoms: C_6  and  N_5 
ROOT
ATOM      1  N   UNL d   1      52.724  31.452  53.066  0.00  0.00    -0.226 N 
ATOM      2  C   UNL d   1      53.474  31.466  53.416  0.00  0.00     0.133 A 
ATOM      3  C   UNL d   1      52.548  30.674  52.863  0.00  0.00     0.092 A 
ATOM      4  C   UNL d   1      53.760  30.692  53.429  0.00  0.00     0.025 A 
ATOM      5  C   UNL d   1      53.187  30.208  53.087  0.00  0.00     0.021 A 
ENDROOT
BRANCH   1   6
ATOM      6  S   UNL d   1      52.285  32.146  52.969  0.00  0.00     0.271 S 
ATOM      7  O   UNL d   1      52.718  32.389  52.311  0.00  0.00    -0.200 OA
ATOM      8  O   UNL d   1      51.858  31.894  53.628  0.00  0.00    -0.200 OA
BRANCH   6   9
ATOM      9  C   UNL d   1      51.819  32.821  52.916  0.00  0.00     0.104 A 
ATOM     10  C   UNL d   1      51.165  32.907  53.411  0.00  0.00     0.013 A 
ATOM     11  C   UNL d   1      50.695  33.583  53.361  0.00  0.00     0.001 A 
ATOM     12  C   UNL d   1      50.882  34.175  52.812  0.00  0.00     0.000 A 
ATOM     13  C   UNL d   1      51.539  34.085  52.317  0.00  0.00     0.001 A 
ATOM     14  C   UNL d   1      50.412  34.851  52.762  0.00  0.00     0.000 C 
ATOM     15  C   UNL d   1      52.007  33.408  52.371  0.00  0.00     0.013 A 
ENDBRANCH   6   9
ENDBRANCH   1   6
BRANCH   2  16
ATOM     16  C   UNL d   1      53.868  32.137  53.704  0.00  0.00     0.298 C 
ATOM     17  N   UNL d   1      54.018  32.202  54.517  0.00  0.00    -0.181 NA
ATOM     18  O   UNL d   1      54.103  32.728  53.184  0.00  0.00    -0.264 OA
BRANCH  17  19
ATOM     19  C   UNL d   1      54.410  32.871  54.801  0.00  0.00     0.197 A 
ATOM     20  N   UNL d   1      55.067  33.226  54.446  0.00  0.00    -0.219 NA
ATOM     21  C   UNL d   1      55.278  33.872  54.909  0.00  0.00     0.108 A 
ATOM     22  C   UNL d   1      54.760  33.920  55.545  0.00  0.00     0.059 A 
ATOM     23  S   UNL d   1      54.219  33.296  55.478  0.00  0.00    -0.046 SA
ENDBRANCH  17  19
ENDBRANCH   2  16
TORSDOF 4
ENDMDL
MODEL 4
REMARK VINA RESULT:      -9.2      1.072      2.735
REMARK  4 active torsions:
REMARK  status: ('A' for Active; 'I' for Inactive)
REMARK    1  A    between atoms: N_2  and  S_1 
REMARK    2  A    between atoms: C_8  and  S_1 
REMARK    3  A    between atoms: C_4  and  C_3 
REMARK       I    between atoms: N_5  and  C_4 
REMARK    4  A    between atoms: C_6  and  N_5 
ROOT
ATOM      1  N   UNL d   1      54.167  32.943  54.498  0.00  0.00    -0.226 N 
ATOM      2  C   UNL d   1      53.761  33.629  54.275  0.00  0.00     0.133 A 
ATOM      3  C   UNL d   1      54.771  33.155  55.015  0.00  0.00     0.092 A 
ATOM      4  C   UNL d   1      54.119  34.268  54.658  0.00  0.00     0.025 A 
ATOM      5  C   UNL d   1      54.740  33.971  55.112  0.00  0.00     0.021 A 
ENDROOT
BRANCH   1   6
ATOM      6  S   UNL d   1      53.943  32.201  54.208  0.00  0.00     0.271 S 
ATOM      7  O   UNL d   1      54.311  32.320  53.479  0.00  0.00    -0.200 OA
ATOM      8  O   UNL d   1      53.579  32.093  54.940  0.00  0.00    -0.200 OA
BRANCH   6   9
ATOM      9  C   UNL d   1      53.696  31.456  53.966  0.00  0.00     0.104 A 
ATOM     10  C   UNL d   1      53.331  30.950  54.506  0.00  0.00     0.013 A 
ATOM     11  C   UNL d   1      53.082  30.201  54.267  0.00  0.00     0.001 A 
ATOM     12  C   UNL d   1      53.200  29.958  53.484  0.00  0.00     0.000 A 
ATOM     13  C   UNL d   1      53.566  30.468  52.945  0.00  0.00     0.001 A 
ATOM     14  C   UNL d   1      52.951  29.209  53.245  0.00  0.00     0.000 C 
ATOM     15  C   UNL d   1      53.814  31.217  53.188  0.00  0.00     0.013 A 
ENDBRANCH   6   9
ENDBRANCH   1   6
BRANCH   2  16
ATOM     16  C   UNL d   1      53.113  33.669  53.760  0.00  0.00     0.298 C 
ATOM     17  N   UNL d   1      52.375  33.908  54.055  0.00  0.00    -0.181 NA
ATOM     18  O   UNL d   1      53.207  33.474  52.968  0.00  0.00    -0.264 OA
BRANCH  17  19
ATOM     19  C   UNL d   1      51.731  33.947  53.540  0.00  0.00     0.197 A 
ATOM     20  N   UNL d   1      51.071  33.450  53.563  0.00  0.00    -0.219 NA
ATOM     21  C   UNL d   1      50.567  33.682  52.956  0.00  0.00     0.108 A 
ATOM     22  C   UNL d   1      50.907  34.315  52.558  0.00  0.00     0.059 A 
ATOM     23  S   UNL d   1      51.633  34.481  52.923  0.00  0.00    -0.046 SA
ENDBRANCH  17  19
ENDBRANCH   2  16
TORSDOF 4
ENDMDL
MODEL 5
REMARK VINA RESULT:      -8.4      1.333      3.564
REMARK  4 active torsions:
REMARK  status: ('A' for Active; 'I' for Inactive)
REMARK    1  A    between atoms: N_2  and  S_1 
REMARK    2  A    between atoms: C_8  and  S_1 
REMARK    3  A    between atoms: C_4  and  C_3 
REMARK       I    between atoms: N_5  and  C_4 
REMARK    4  A    between atoms: C_6  and  N_5 
ROOT
ATOM      1  N   UNL d   1      52.058  33.148  52.803  0.00  0.00    -0.226 N 
ATOM      2  C   UNL d   1      52.515  33.750  53.140  0.00  0.00     0.133 A 
ATOM      3  C   UNL d   1      51.425  33.495  52.407  0.00  0.00     0.092 A 
ATOM      4  C   UNL d   1      52.161  34.472  52.950  0.00  0.00     0.025 A 
ATOM      5  C   UNL d   1      51.490  34.309  52.498  0.00  0.00     0.021 A 
ENDROOT
BRANCH   1   6
ATOM      6  S   UNL d   1      52.266  32.353  52.892  0.00  0.00     0.271 S 
ATOM      7  O   UNL d   1      52.859  32.392  52.319  0.00  0.00    -0.200 OA
ATOM      8  O   UNL d   1      51.671  32.325  53.463  0.00  0.00    -0.200 OA
BRANCH   6   9
ATOM      9  C   UNL d   1      52.435  31.559  53.018  0.00  0.00     0.104 A 
ATOM     10  C   UNL d   1      51.945  31.108  53.505  0.00  0.00     0.013 A 
ATOM     11  C   UNL d   1      52.111  30.310  53.634  0.00  0.00     0.001 A 
ATOM     12  C   UNL d   1      52.772  29.964  53.274  0.00  0.00     0.000 A 
ATOM     13  C   UNL d   1      53.262  30.419  52.787  0.00  0.00     0.001 A 
ATOM     14  C   UNL d   1      52.938  29.167  53.403  0.00  0.00     0.000 C 
ATOM     15  C   UNL d   1      53.092  31.217  52.660  0.00  0.00     0.013 A 
ENDBRANCH   6   9
ENDBRANCH   1   6
BRANCH   2  16
ATOM     16  C   UNL d   1      53.206  33.649  53.588  0.00  0.00     0.298 C 
ATOM     17  N   UNL d   1      53.199  33.846  54.393  0.00  0.00    -0.181 NA
ATOM     18  O   UNL d   1      53.885  33.356  53.231  0.00  0.00    -0.264 OA
BRANCH  17  19
ATOM     19  C   UNL d   1      53.888  33.744  54.837  0.00  0.00     0.197 A 
ATOM     20  N   UNL d   1      53.996  33.173  55.426  0.00  0.00    -0.219 NA
ATOM     21  C   UNL d   1      54.757  33.268  55.723  0.00  0.00     0.108 A 
ATOM     22  C   UNL d   1      55.120  33.889  55.326  0.00  0.00     0.059 A 
ATOM     23  S   UNL d   1      54.578  34.186  54.773  0.00  0.00    -0.046 SA
ENDBRANCH  17  19
ENDBRANCH   2  16
TORSDOF 4
ENDMDL
MODEL 6
REMARK VINA RESULT:      -8.3      1.074      2.649
REMARK  4 active torsions:
REMARK  status: ('A' for Active; 'I' for Inactive)
REMARK    1  A    between atoms: N_2  and  S_1 
REMARK    2  A    between atoms: C_8  and  S_1 
REMARK    3  A    between atoms: C_4  and  C_3 
REMARK       I    between atoms: N_5  and  C_4 
REMARK    4  A    between atoms: C_6  and  N_5 
ROOT
ATOM      1  N   UNL d   1      52.180  33.774  53.301  0.00  0.00    -0.226 N 
ATOM      2  C   UNL d   1      51.933  33.104  52.881  0.00  0.00     0.133 A 
ATOM      3  C   UNL d   1      51.613  34.362  53.207  0.00  0.00     0.092 A 
ATOM      4  C   UNL d   1      51.209  33.283  52.527  0.00  0.00     0.025 A 
ATOM      5  C   UNL d   1      51.015  34.058  52.730  0.00  0.00     0.021 A 
ENDROOT
BRANCH   1   6
ATOM      6  S   UNL d   1      52.892  33.775  53.722  0.00  0.00     0.271 S 
ATOM      7  O   UNL d   1      53.348  33.913  53.048  0.00  0.00    -0.200 OA
ATOM      8  O   UNL d   1      52.427  33.637  54.389  0.00  0.00    -0.200 OA
BRANCH   6   9
ATOM      9  C   UNL d   1      53.571  33.767  54.184  0.00  0.00     0.104 A 
ATOM     10  C   UNL d   1      54.312  33.814  53.825  0.00  0.00     0.013 A 
ATOM     11  C   UNL d   1      54.996  33.807  54.286  0.00  0.00     0.001 A 
ATOM     12  C   UNL d   1      54.936  33.752  55.110  0.00  0.00     0.000 A 
ATOM     13  C   UNL d   1      54.192  33.705  55.467  0.00  0.00     0.001 A 
ATOM     14  C   UNL d   1      55.620  33.745  55.571  0.00  0.00     0.000 C 
ATOM     15  C   UNL d   1      53.510  33.713  55.003  0.00  0.00     0.013 A 
ENDBRANCH   6   9
ENDBRANCH   1   6
BRANCH   2  16
ATOM     16  C   UNL d   1      52.339  32.383  52.826  0.00  0.00     0.298 C 
ATOM     17  N   UNL d   1      52.004  31.703  53.160  0.00  0.00    -0.181 NA
ATOM     18  O   UNL d   1      53.065  32.351  52.442  0.00  0.00    -0.264 OA
BRANCH  17  19
ATOM     19  C   UNL d   1      52.411  30.986  53.104  0.00  0.00     0.197 A 
ATOM     20  N   UNL d   1      52.813  30.717  52.434  0.00  0.00    -0.219 NA
ATOM     21  C   UNL d   1      53.135  29.983  52.618  0.00  0.00     0.108 A 
ATOM     22  C   UNL d   1      52.937  29.796  53.393  0.00  0.00     0.059 A 
ATOM     23  S   UNL d   1      52.485  30.421  53.696  0.00  0.00    -0.046 SA
ENDBRANCH  17  19
ENDBRANCH   2  16
TORSDOF 4
ENDMDL
