MODEL 1
REMARK VINA RESULT:       8.2      0.000      0.000
REMARK  6 active torsions:
REMARK  status: ('A' for Active; 'I' for Inactive)
REMARK    1  A    between atoms: S_6  and  C_1 
REMARK    2  A    between atoms: C_7  and  S_6 
REMARK    3  A    between atoms: C_8  and  C_7 
REMARK    4  A    between atoms: O_14  and  C_9 
REMARK    5  A    between atoms: C_17  and  O_14 
REMARK    6  A    between atoms: C_18  and  C_17 
ROOT
ATOM      1  C   UNL d   1      45.654 -16.433  44.831  0.00  0.00     0.038 C 
ENDROOT
BRANCH   1   2
ATOM      2  S   UNL d   1      46.279 -16.784  44.421  0.00  0.00    -0.048 SA
BRANCH   2   3
ATOM      3  C   UNL d   1      46.310 -17.604  44.338  0.00  0.00     0.194 A 
ATOM      4  N   UNL d   1      46.335 -18.160  44.944  0.00  0.00    -0.220 NA
ATOM      5  C   UNL d   1      46.362 -18.923  44.588  0.00  0.00     0.101 A 
ATOM      6  C   UNL d   1      46.392 -19.674  44.927  0.00  0.00     0.021 A 
ATOM      7  C   UNL d   1      46.353 -18.842  43.772  0.00  0.00     0.101 A 
ATOM      8  C   UNL d   1      46.413 -20.317  44.448  0.00  0.00     0.002 A 
ATOM      9  C   UNL d   1      46.404 -20.236  43.631  0.00  0.00     0.002 A 
ATOM     10  C   UNL d   1      46.374 -19.510  43.290  0.00  0.00     0.021 A 
ATOM     11  N   UNL d   1      46.320 -18.026  43.608  0.00  0.00    -0.220 NA
ENDBRANCH   2   3
ENDBRANCH   1   2
BRANCH   1  12
ATOM     12  C   UNL d   1      45.548 -15.618  44.751  0.00  0.00     0.007 A 
ATOM     13  C   UNL d   1      46.178 -15.174  44.458  0.00  0.00     0.003 A 
ATOM     14  C   UNL d   1      46.100 -14.357  44.366  0.00  0.00     0.025 A 
ATOM     15  C   UNL d   1      45.391 -13.986  44.569  0.00  0.00     0.100 A 
ATOM     16  C   UNL d   1      44.789 -14.429  44.851  0.00  0.00     0.025 A 
ATOM     17  C   UNL d   1      44.867 -15.246  44.942  0.00  0.00     0.003 A 
BRANCH  15  18
ATOM     18  O   UNL d   1      45.312 -13.169  44.477  0.00  0.00    -0.305 OA
BRANCH  18  19
ATOM     19  C   UNL d   1      45.462 -12.820  43.745  0.00  0.00     0.123 C 
BRANCH  19  20
ATOM     20  C   UNL d   1      45.003 -12.183  43.491  0.00  0.00     0.027 C 
ATOM     21  C   UNL d   1      44.849 -12.081  42.683  0.00  0.00     0.002 C 
ENDBRANCH  19  20
ENDBRANCH  18  19
ENDBRANCH  15  18
ENDBRANCH   1  12
TORSDOF 6
ENDMDL
