MODEL 1
REMARK VINA RESULT:      31.3      0.000      0.000
REMARK  4 active torsions:
REMARK  status: ('A' for Active; 'I' for Inactive)
REMARK    1  A    between atoms: C_10  and  N_1 
REMARK    2  A    between atoms: C_14  and  C_10 
REMARK    3  A    between atoms: O_16  and  C_12 
REMARK    4  A    between atoms: C_19  and  O_16 
ROOT
ATOM      1  N   UNL d   1      13.467  13.163  -3.131  0.00  0.00    -0.260 N 
ATOM      2  C   UNL d   1      13.874  13.681  -2.680  0.00  0.00     0.174 A 
ATOM      3  C   UNL d   1      13.269  12.389  -3.073  0.00  0.00     0.348 A 
ATOM      4  O   UNL d   1      14.258  13.644  -1.978  0.00  0.00    -0.314 OA
ATOM      5  N   UNL d   1      13.400  11.819  -2.537  0.00  0.00    -0.216 NA
ATOM      6  C   UNL d   1      13.785  11.779  -1.831  0.00  0.00     0.137 A 
ATOM      7  C   UNL d   1      13.639  12.576  -2.514  0.00  0.00     0.079 A 
ATOM      8  C   UNL d   1      14.386  13.063  -1.442  0.00  0.00     0.116 A 
ATOM      9  C   UNL d   1      14.190  12.296  -1.384  0.00  0.00     0.025 A 
ATOM     10  O   UNL d   1      12.845  12.137  -3.693  0.00  0.00    -0.245 OA
ATOM     11  C   UNL d   1      14.817  13.410  -0.858  0.00  0.00     0.122 A 
ATOM     12  C   UNL d   1      13.993  14.452  -2.877  0.00  0.00     0.055 C 
ATOM     13  C   UNL d   1      14.418  11.865  -0.749  0.00  0.00    -0.000 A 
ATOM     14  C   UNL d   1      14.848  12.213  -0.169  0.00  0.00     0.002 A 
ATOM     15  C   UNL d   1      15.048  12.986  -0.224  0.00  0.00     0.027 A 
ENDROOT
BRANCH   1  16
ATOM     16  C   UNL d   1      13.107  13.326  -3.857  0.00  0.00     0.082 C 
BRANCH  16  17
ATOM     17  C   UNL d   1      13.287  12.854  -4.519  0.00  0.00     0.017 A 
ATOM     18  C   UNL d   1      13.984  12.991  -4.948  0.00  0.00     0.002 A 
ATOM     19  C   UNL d   1      14.163  12.518  -5.609  0.00  0.00     0.000 A 
ATOM     20  C   UNL d   1      13.645  11.910  -5.839  0.00  0.00     0.000 A 
ATOM     21  C   UNL d   1      12.946  11.779  -5.402  0.00  0.00     0.000 A 
ATOM     22  C   UNL d   1      12.771  12.248  -4.748  0.00  0.00     0.002 A 
ENDBRANCH  16  17
ENDBRANCH   1  16
BRANCH  11  23
ATOM     23  O   UNL d   1      15.021  14.208  -0.918  0.00  0.00    -0.303 OA
BRANCH  23  24
ATOM     24  C   UNL d   1      15.484  14.559  -0.333  0.00  0.00     0.123 C 
ATOM     25  C   UNL d   1      15.416  15.374  -0.189  0.00  0.00     0.029 C 
ENDBRANCH  23  24
ENDBRANCH  11  23
TORSDOF 4
ENDMDL
