MODEL 1
REMARK VINA RESULT:      35.5      0.000      0.000
REMARK  5 active torsions:
REMARK  status: ('A' for Active; 'I' for Inactive)
REMARK    1  A    between atoms: C_7  and  N_2 
REMARK    2  A    between atoms: C_6  and  C_8 
REMARK       I    between atoms: N_9  and  C_6 
REMARK    3  A    between atoms: C_8  and  C_7 
REMARK    4  A    between atoms: C_11  and  N_9 
REMARK    5  A    between atoms: C_13  and  C_11 
ROOT
ATOM      1  C   UNL d   1     -56.781 -99.216 -44.777  0.00  0.00     0.080 C 
ENDROOT
BRANCH   1   2
ATOM      2  C   UNL d   1     -56.027 -99.460 -44.551  0.00  0.00     0.266 C 
ATOM      3  N   UNL d   1     -55.827-100.257 -44.556  0.00  0.00    -0.270 N 
ATOM      4  C   UNL d   1     -56.390-100.822 -44.792  0.00  0.00     0.102 C 
ATOM      5  O   UNL d   1     -55.467 -98.900 -44.316  0.00  0.00    -0.267 OA
BRANCH   3   6
ATOM      6  C   UNL d   1     -55.077-100.498 -44.331  0.00  0.00     0.083 C 
BRANCH   6   7
ATOM      7  C   UNL d   1     -54.960-101.245 -44.008  0.00  0.00     0.018 A 
ATOM      8  C   UNL d   1     -54.837-101.340 -43.195  0.00  0.00     0.002 A 
ATOM      9  C   UNL d   1     -54.719-102.086 -42.872  0.00  0.00     0.000 A 
ATOM     10  C   UNL d   1     -54.723-102.748 -43.355  0.00  0.00     0.000 A 
ATOM     11  C   UNL d   1     -54.845-102.661 -44.167  0.00  0.00     0.000 A 
ATOM     12  C   UNL d   1     -54.964-101.903 -44.493  0.00  0.00     0.002 A 
ENDBRANCH   6   7
ENDBRANCH   3   6
ENDBRANCH   1   2
BRANCH   1  13
ATOM     13  C   UNL d   1     -57.240 -98.758 -44.273  0.00  0.00     0.090 C 
BRANCH  13  14
ATOM     14  N   UNL d   1     -58.061 -98.829 -44.278  0.00  0.00    -0.251 N 
ATOM     15  C   UNL d   1     -58.537 -98.913 -44.943  0.00  0.00     0.378 A 
ATOM     16  O   UNL d   1     -59.294 -98.958 -44.627  0.00  0.00    -0.258 OA
ATOM     17  O   UNL d   1     -58.274 -98.939 -45.725  0.00  0.00    -0.237 OA
ATOM     18  C   UNL d   1     -59.327 -98.913 -43.869  0.00  0.00     0.121 A 
ATOM     19  C   UNL d   1     -59.947 -98.932 -43.318  0.00  0.00     0.026 A 
ATOM     20  C   UNL d   1     -58.548 -98.829 -43.611  0.00  0.00     0.092 A 
ATOM     21  C   UNL d   1     -59.783 -98.867 -42.507  0.00  0.00     0.002 A 
ATOM     22  C   UNL d   1     -58.999 -98.783 -42.260  0.00  0.00     0.002 A 
ATOM     23  C   UNL d   1     -58.385 -98.765 -42.812  0.00  0.00     0.020 A 
ENDBRANCH  13  14
ENDBRANCH   1  13
TORSDOF 5
ENDMDL
