MODEL 1
REMARK VINA RESULT:      67.0      0.000      0.000
REMARK  4 active torsions:
REMARK  status: ('A' for Active; 'I' for Inactive)
REMARK    1  A    between atoms: S_12  and  C_5 
REMARK       I    between atoms: N_7  and  C_9 
REMARK    2  A    between atoms: C_19  and  N_8 
REMARK    3  A    between atoms: C_9  and  C_14 
REMARK    4  A    between atoms: C_14  and  S_12 
ROOT
ATOM      1  C   UNL d   1     -50.343  27.631  33.996  0.00  0.00     0.098 C 
ENDROOT
BRANCH   1   2
ATOM      2  C   UNL d   1     -49.616  27.499  34.361  0.00  0.00     0.272 C 
ATOM      3  N   UNL d   1     -49.148  28.139  34.596  0.00  0.00    -0.269 N 
ATOM      4  C   UNL d   1     -49.410  28.907  34.463  0.00  0.00     0.102 A 
ATOM      5  C   UNL d   1     -48.423  28.010  34.959  0.00  0.00     0.102 A 
ATOM      6  C   UNL d   1     -48.942  29.547  34.697  0.00  0.00     0.100 A 
ATOM      7  N   UNL d   1     -48.214  29.415  35.063  0.00  0.00    -0.301 N 
ATOM      8  C   UNL d   1     -47.958  28.646  35.192  0.00  0.00     0.100 A 
ATOM      9  O   UNL d   1     -49.361  26.726  34.490  0.00  0.00    -0.266 OA
BRANCH   7  10
ATOM     10  C   UNL d   1     -47.748  30.051  35.296  0.00  0.00     0.064 A 
ATOM     11  C   UNL d   1     -47.224  29.972  35.923  0.00  0.00     0.018 A 
ATOM     12  C   UNL d   1     -46.756  30.612  36.156  0.00  0.00     0.002 A 
ATOM     13  C   UNL d   1     -46.814  31.327  35.763  0.00  0.00     0.000 A 
ATOM     14  C   UNL d   1     -47.340  31.408  35.133  0.00  0.00     0.002 A 
ATOM     15  C   UNL d   1     -47.807  30.772  34.899  0.00  0.00     0.018 A 
ENDBRANCH   7  10
ENDBRANCH   1   2
BRANCH   1  16
ATOM     16  S   UNL d   1     -50.556  27.195  33.325  0.00  0.00    -0.060 SA
BRANCH  16  17
ATOM     17  C   UNL d   1     -51.274  26.774  33.319  0.00  0.00     0.137 A 
ATOM     18  C   UNL d   1     -51.278  25.951  33.318  0.00  0.00     0.141 A 
ATOM     19  O   UNL d   1     -50.664  25.399  33.323  0.00  0.00    -0.303 OA
ATOM     20  C   UNL d   1     -51.997  25.539  33.312  0.00  0.00     0.110 A 
ATOM     21  C   UNL d   1     -51.005  24.640  33.319  0.00  0.00     0.102 A 
ATOM     22  C   UNL d   1     -50.670  23.882  33.322  0.00  0.00     0.025 A 
ATOM     23  C   UNL d   1     -51.826  24.734  33.312  0.00  0.00     0.043 A 
ATOM     24  C   UNL d   1     -51.165  23.220  33.317  0.00  0.00     0.002 A 
ATOM     25  C   UNL d   1     -51.985  23.308  33.310  0.00  0.00     0.000 A 
ATOM     26  C   UNL d   1     -52.321  24.067  33.308  0.00  0.00     0.004 A 
ATOM     27  N   UNL d   1     -52.706  25.960  33.306  0.00  0.00    -0.222 NA
ATOM     28  C   UNL d   1     -52.703  26.783  33.307  0.00  0.00     0.200 A 
ATOM     29  N   UNL d   1     -51.992  27.193  33.313  0.00  0.00    -0.215 NA
ENDBRANCH  16  17
ENDBRANCH   1  16
TORSDOF 4
ENDMDL
MODEL 2
REMARK VINA RESULT:      69.5      1.416      6.502
REMARK  4 active torsions:
REMARK  status: ('A' for Active; 'I' for Inactive)
REMARK    1  A    between atoms: S_12  and  C_5 
REMARK       I    between atoms: N_7  and  C_9 
REMARK    2  A    between atoms: C_19  and  N_8 
REMARK    3  A    between atoms: C_9  and  C_14 
REMARK    4  A    between atoms: C_14  and  S_12 
ROOT
ATOM      1  C   UNL d   1     -49.007  28.449  34.453  0.00  0.00     0.098 C 
ENDROOT
BRANCH   1   2
ATOM      2  C   UNL d   1     -49.682  28.332  33.994  0.00  0.00     0.272 C 
ATOM      3  N   UNL d   1     -49.978  27.568  33.880  0.00  0.00    -0.269 N 
ATOM      4  C   UNL d   1     -49.598  26.927  34.226  0.00  0.00     0.102 A 
ATOM      5  C   UNL d   1     -50.649  27.450  33.422  0.00  0.00     0.102 A 
ATOM      6  C   UNL d   1     -49.894  26.163  34.112  0.00  0.00     0.100 A 
ATOM      7  N   UNL d   1     -50.569  26.046  33.653  0.00  0.00    -0.301 N 
ATOM      8  C   UNL d   1     -50.944  26.691  33.309  0.00  0.00     0.100 A 
ATOM      9  O   UNL d   1     -50.056  28.981  33.650  0.00  0.00    -0.266 OA
BRANCH   7  10
ATOM     10  C   UNL d   1     -50.864  25.287  33.539  0.00  0.00     0.064 A 
ATOM     11  C   UNL d   1     -51.674  25.154  33.531  0.00  0.00     0.018 A 
ATOM     12  C   UNL d   1     -51.969  24.392  33.416  0.00  0.00     0.002 A 
ATOM     13  C   UNL d   1     -51.454  23.765  33.310  0.00  0.00     0.000 A 
ATOM     14  C   UNL d   1     -50.640  23.896  33.318  0.00  0.00     0.002 A 
ATOM     15  C   UNL d   1     -50.345  24.655  33.432  0.00  0.00     0.018 A 
ENDBRANCH   7  10
ENDBRANCH   1   2
BRANCH   1  16
ATOM     16  S   UNL d   1     -48.451  29.021  34.235  0.00  0.00    -0.060 SA
BRANCH  16  17
ATOM     17  C   UNL d   1     -48.085  29.485  34.822  0.00  0.00     0.137 A 
ATOM     18  C   UNL d   1     -47.961  30.290  34.704  0.00  0.00     0.141 A 
ATOM     19  O   UNL d   1     -48.139  30.785  34.068  0.00  0.00    -0.303 OA
ATOM     20  C   UNL d   1     -47.596  30.744  35.292  0.00  0.00     0.110 A 
ATOM     21  C   UNL d   1     -47.883  31.552  34.263  0.00  0.00     0.102 A 
ATOM     22  C   UNL d   1     -47.912  32.268  33.848  0.00  0.00     0.025 A 
ATOM     23  C   UNL d   1     -47.549  31.519  35.019  0.00  0.00     0.043 A 
ATOM     24  C   UNL d   1     -47.605  32.952  34.198  0.00  0.00     0.002 A 
ATOM     25  C   UNL d   1     -47.271  32.925  34.952  0.00  0.00     0.000 A 
ATOM     26  C   UNL d   1     -47.241  32.208  35.368  0.00  0.00     0.004 A 
ATOM     27  N   UNL d   1     -47.359  30.384  35.995  0.00  0.00    -0.222 NA
ATOM     28  C   UNL d   1     -47.482  29.580  36.113  0.00  0.00     0.200 A 
ATOM     29  N   UNL d   1     -47.843  29.127  35.532  0.00  0.00    -0.215 NA
ENDBRANCH  16  17
ENDBRANCH   1  16
TORSDOF 4
ENDMDL
