MODEL 1
REMARK VINA RESULT:       5.4      0.000      0.000
REMARK  4 active torsions:
REMARK  status: ('A' for Active; 'I' for Inactive)
REMARK    1  A    between atoms: C_2  and  C_1 
REMARK    2  A    between atoms: C_3  and  C_1 
REMARK    3  A    between atoms: C_9  and  C_1 
REMARK    4  A    between atoms: N_4  and  C_10 
ROOT
ATOM      1  C   UNL d   1      58.453  -1.139  29.937  0.00  0.00     0.012 C 
ENDROOT
BRANCH   1   2
ATOM      2  C   UNL d   1      58.008  -0.905  30.595  0.00  0.00     0.077 A 
ATOM      3  C   UNL d   1      57.206  -1.100  30.644  0.00  0.00     0.195 A 
ATOM      4  C   UNL d   1      56.760  -0.867  31.300  0.00  0.00     0.019 A 
ATOM      5  O   UNL d   1      56.850  -1.533  30.030  0.00  0.00    -0.287 OA
ATOM      6  C   UNL d   1      57.120  -0.434  31.914  0.00  0.00     0.043 A 
ATOM      7  C   UNL d   1      57.921  -0.244  31.857  0.00  0.00     0.019 A 
ATOM      8  C   UNL d   1      57.246  -0.022  32.609  0.00  0.00     0.009 C 
ATOM      9  C   UNL d   1      56.331  -0.546  32.110  0.00  0.00     0.009 C 
ATOM     10  C   UNL d   1      58.371  -0.472  31.208  0.00  0.00     0.195 A 
ATOM     11  O   UNL d   1      59.180  -0.272  31.164  0.00  0.00    -0.287 OA
ENDBRANCH   1   2
BRANCH   1  12
ATOM     12  C   UNL d   1      58.676  -1.878  29.650  0.00  0.00     0.077 A 
ATOM     13  C   UNL d   1      58.239  -2.248  29.059  0.00  0.00     0.195 A 
ATOM     14  C   UNL d   1      58.447  -2.978  28.766  0.00  0.00     0.019 A 
ATOM     15  O   UNL d   1      57.576  -1.870  28.760  0.00  0.00    -0.287 OA
ATOM     16  C   UNL d   1      59.117  -3.354  29.073  0.00  0.00     0.043 A 
ATOM     17  C   UNL d   1      59.576  -3.001  29.669  0.00  0.00     0.019 A 
ATOM     18  C   UNL d   1      58.847  -3.886  28.515  0.00  0.00     0.009 C 
ATOM     19  C   UNL d   1      59.749  -3.871  29.259  0.00  0.00     0.009 C 
ATOM     20  C   UNL d   1      59.344  -2.254  29.955  0.00  0.00     0.195 A 
ATOM     21  O   UNL d   1      59.805  -1.906  30.550  0.00  0.00    -0.287 OA
ENDBRANCH   1  12
BRANCH   1  22
ATOM     22  C   UNL d   1      58.738  -0.535  29.463  0.00  0.00     0.002 A 
ATOM     23  C   UNL d   1      59.538  -0.312  29.525  0.00  0.00     0.024 A 
ATOM     24  C   UNL d   1      59.823   0.292  29.051  0.00  0.00     0.127 A 
ATOM     25  C   UNL d   1      59.309   0.673  28.514  0.00  0.00     0.024 A 
ATOM     26  C   UNL d   1      58.534   0.452  28.459  0.00  0.00     0.002 A 
ATOM     27  C   UNL d   1      58.245  -0.161  28.940  0.00  0.00     0.000 A 
BRANCH  24  28
ATOM     28  N   UNL d   1      60.625   0.510  29.120  0.00  0.00    -0.114 N 
ATOM     29  O   UNL d   1      61.096   0.581  28.457  0.00  0.00    -0.532 OA
ATOM     30  O   UNL d   1      60.964   0.659  29.866  0.00  0.00    -0.532 OA
ENDBRANCH  24  28
ENDBRANCH   1  22
TORSDOF 4
ENDMDL
MODEL 2
REMARK VINA RESULT:       6.1      1.324      2.700
REMARK  4 active torsions:
REMARK  status: ('A' for Active; 'I' for Inactive)
REMARK    1  A    between atoms: C_2  and  C_1 
REMARK    2  A    between atoms: C_3  and  C_1 
REMARK    3  A    between atoms: C_9  and  C_1 
REMARK    4  A    between atoms: N_4  and  C_10 
ROOT
ATOM      1  C   UNL d   1      58.414  -0.872  30.013  0.00  0.00     0.012 C 
ENDROOT
BRANCH   1   2
ATOM      2  C   UNL d   1      57.870  -0.698  30.614  0.00  0.00     0.077 A 
ATOM      3  C   UNL d   1      57.779  -1.216  31.253  0.00  0.00     0.195 A 
ATOM      4  C   UNL d   1      57.238  -1.044  31.853  0.00  0.00     0.019 A 
ATOM      5  O   UNL d   1      58.236  -1.909  31.288  0.00  0.00    -0.287 OA
ATOM      6  C   UNL d   1      56.782  -0.348  31.814  0.00  0.00     0.043 A 
ATOM      7  C   UNL d   1      56.879   0.162  31.173  0.00  0.00     0.019 A 
ATOM      8  C   UNL d   1      56.247   0.246  31.988  0.00  0.00     0.009 C 
ATOM      9  C   UNL d   1      56.577  -0.749  32.500  0.00  0.00     0.009 C 
ATOM     10  C   UNL d   1      57.415  -0.001  30.572  0.00  0.00     0.195 A 
ATOM     11  O   UNL d   1      57.503   0.525  29.930  0.00  0.00    -0.287 OA
ENDBRANCH   1   2
BRANCH   1  12
ATOM     12  C   UNL d   1      59.076  -0.474  29.729  0.00  0.00     0.077 A 
ATOM     13  C   UNL d   1      59.091  -0.182  28.959  0.00  0.00     0.195 A 
ATOM     14  C   UNL d   1      59.738   0.213  28.665  0.00  0.00     0.019 A 
ATOM     15  O   UNL d   1      58.436  -0.294  28.479  0.00  0.00    -0.287 OA
ATOM     16  C   UNL d   1      60.396   0.322  29.156  0.00  0.00     0.043 A 
ATOM     17  C   UNL d   1      60.405   0.037  29.936  0.00  0.00     0.019 A 
ATOM     18  C   UNL d   1      60.626   0.682  28.459  0.00  0.00     0.009 C 
ATOM     19  C   UNL d   1      61.133   0.521  29.499  0.00  0.00     0.009 C 
ATOM     20  C   UNL d   1      59.732  -0.365  30.217  0.00  0.00     0.195 A 
ATOM     21  O   UNL d   1      59.746  -0.648  30.996  0.00  0.00    -0.287 OA
ENDBRANCH   1  12
BRANCH   1  22
ATOM     22  C   UNL d   1      58.289  -1.573  29.608  0.00  0.00     0.002 A 
ATOM     23  C   UNL d   1      58.867  -2.171  29.641  0.00  0.00     0.024 A 
ATOM     24  C   UNL d   1      58.742  -2.872  29.236  0.00  0.00     0.127 A 
ATOM     25  C   UNL d   1      58.039  -2.975  28.797  0.00  0.00     0.024 A 
ATOM     26  C   UNL d   1      57.482  -2.391  28.769  0.00  0.00     0.002 A 
ATOM     27  C   UNL d   1      57.609  -1.680  29.180  0.00  0.00     0.000 A 
BRANCH  24  28
ATOM     28  N   UNL d   1      59.327  -3.466  29.274  0.00  0.00    -0.114 N 
ATOM     29  O   UNL d   1      60.115  -3.282  29.172  0.00  0.00    -0.532 OA
ATOM     30  O   UNL d   1      59.119  -4.259  29.418  0.00  0.00    -0.532 OA
ENDBRANCH  24  28
ENDBRANCH   1  22
TORSDOF 4
ENDMDL
MODEL 3
REMARK VINA RESULT:       8.1      0.365      3.095
REMARK  4 active torsions:
REMARK  status: ('A' for Active; 'I' for Inactive)
REMARK    1  A    between atoms: C_2  and  C_1 
REMARK    2  A    between atoms: C_3  and  C_1 
REMARK    3  A    between atoms: C_9  and  C_1 
REMARK    4  A    between atoms: N_4  and  C_10 
ROOT
ATOM      1  C   UNL d   1      58.392  -1.177  29.848  0.00  0.00     0.012 C 
ENDROOT
BRANCH   1   2
ATOM      2  C   UNL d   1      58.562  -1.939  29.570  0.00  0.00     0.077 A 
ATOM      3  C   UNL d   1      58.079  -2.289  28.997  0.00  0.00     0.195 A 
ATOM      4  C   UNL d   1      58.247  -3.048  28.718  0.00  0.00     0.019 A 
ATOM      5  O   UNL d   1      57.422  -1.872  28.704  0.00  0.00    -0.287 OA
ATOM      6  C   UNL d   1      58.906  -3.463  29.015  0.00  0.00     0.043 A 
ATOM      7  C   UNL d   1      59.383  -3.107  29.585  0.00  0.00     0.019 A 
ATOM      8  C   UNL d   1      59.469  -4.040  29.148  0.00  0.00     0.009 C 
ATOM      9  C   UNL d   1      58.532  -3.940  28.460  0.00  0.00     0.009 C 
ATOM     10  C   UNL d   1      59.223  -2.352  29.868  0.00  0.00     0.195 A 
ATOM     11  O   UNL d   1      59.714  -2.004  30.446  0.00  0.00    -0.287 OA
ENDBRANCH   1   2
BRANCH   1  12
ATOM     12  C   UNL d   1      57.960  -0.904  30.494  0.00  0.00     0.077 A 
ATOM     13  C   UNL d   1      58.285  -0.915  31.250  0.00  0.00     0.195 A 
ATOM     14  C   UNL d   1      57.870  -0.648  31.897  0.00  0.00     0.019 A 
ATOM     15  O   UNL d   1      59.046  -1.202  31.352  0.00  0.00    -0.287 OA
ATOM     16  C   UNL d   1      57.102  -0.359  31.787  0.00  0.00     0.043 A 
ATOM     17  C   UNL d   1      56.753  -0.339  31.033  0.00  0.00     0.019 A 
ATOM     18  C   UNL d   1      57.215  -0.278  32.592  0.00  0.00     0.009 C 
ATOM     19  C   UNL d   1      56.332  -0.040  31.864  0.00  0.00     0.009 C 
ATOM     20  C   UNL d   1      57.195  -0.616  30.385  0.00  0.00     0.195 A 
ATOM     21  O   UNL d   1      56.842  -0.593  29.635  0.00  0.00    -0.287 OA
ENDBRANCH   1  12
BRANCH   1  22
ATOM     22  C   UNL d   1      58.704  -0.558  29.412  0.00  0.00     0.002 A 
ATOM     23  C   UNL d   1      59.507  -0.359  29.505  0.00  0.00     0.024 A 
ATOM     24  C   UNL d   1      59.818   0.260  29.069  0.00  0.00     0.127 A 
ATOM     25  C   UNL d   1      59.327   0.682  28.540  0.00  0.00     0.024 A 
ATOM     26  C   UNL d   1      58.549   0.483  28.456  0.00  0.00     0.002 A 
ATOM     27  C   UNL d   1      58.233  -0.145  28.898  0.00  0.00     0.000 A 
BRANCH  24  28
ATOM     28  N   UNL d   1      60.624   0.453  29.167  0.00  0.00    -0.114 N 
ATOM     29  O   UNL d   1      61.133   0.451  28.530  0.00  0.00    -0.532 OA
ATOM     30  O   UNL d   1      60.926   0.652  29.917  0.00  0.00    -0.532 OA
ENDBRANCH  24  28
ENDBRANCH   1  22
TORSDOF 4
ENDMDL
