MODEL 1
REMARK VINA RESULT:     -10.2      0.000      0.000
REMARK  2 active torsions:
REMARK  status: ('A' for Active; 'I' for Inactive)
REMARK    1  A    between atoms: C_10  and  C_5 
REMARK    2  A    between atoms: O_22  and  C_15 
ROOT
ATOM      1  C   UNL d   1     -48.226  12.077  23.247  0.00  0.00     0.120 A 
ATOM      2  C   UNL d   1     -48.825  12.643  23.217  0.00  0.00     0.058 A 
ATOM      3  N   UNL d   1     -48.575  11.354  23.430  0.00  0.00    -0.195 NA
ATOM      4  S   UNL d   1     -47.448  12.291  23.105  0.00  0.00    -0.072 SA
ATOM      5  C   UNL d   1     -48.644  13.421  23.045  0.00  0.00     0.005 A 
ATOM      6  C   UNL d   1     -47.266  13.070  22.933  0.00  0.00     0.009 A 
ATOM      7  C   UNL d   1     -47.865  13.640  22.902  0.00  0.00    -0.015 A 
ATOM      8  C   UNL d   1     -49.391  11.470  23.514  0.00  0.00     0.311 A 
ATOM      9  S   UNL d   1     -49.542  12.277  23.381  0.00  0.00    -0.024 SA
ATOM     10  C   UNL d   1     -47.679  14.425  22.728  0.00  0.00     0.045 A 
ATOM     11  C   UNL d   1     -46.484  13.286  22.790  0.00  0.00     0.050 A 
ATOM     12  C   UNL d   1     -47.218  13.657  22.815  0.00  0.00     0.018 A 
ATOM     13  O   UNL d   1     -49.959  10.896  23.698  0.00  0.00    -0.258 OA
ATOM     14  C   UNL d   1     -46.897  14.641  22.585  0.00  0.00    -0.026 A 
ATOM     15  C   UNL d   1     -46.298  14.071  22.616  0.00  0.00    -0.026 A 
ENDROOT
BRANCH   5  16
ATOM     16  C   UNL d   1     -49.236  13.984  23.015  0.00  0.00     0.002 A 
ATOM     17  C   UNL d   1     -49.640  14.118  22.317  0.00  0.00     0.028 A 
ATOM     18  C   UNL d   1     -50.236  14.684  22.285  0.00  0.00     0.133 A 
ATOM     19  C   UNL d   1     -50.430  15.121  22.961  0.00  0.00     0.218 A 
ATOM     20  C   UNL d   1     -50.018  14.984  23.669  0.00  0.00     0.044 A 
ATOM     21  O   UNL d   1     -51.027  15.690  22.933  0.00  0.00    -0.284 OA
ATOM     22  C   UNL d   1     -49.424  14.419  23.698  0.00  0.00     0.003 A 
BRANCH  18  23
ATOM     23  O   UNL d   1     -50.643  14.818  21.579  0.00  0.00    -0.325 OA
ATOM     24  C   UNL d   1     -51.016  14.192  21.190  0.00  0.00     0.181 C 
ENDBRANCH  18  23
ENDBRANCH   5  16
TORSDOF 2
ENDMDL
MODEL 2
REMARK VINA RESULT:      -9.8      1.554      2.670
REMARK  2 active torsions:
REMARK  status: ('A' for Active; 'I' for Inactive)
REMARK    1  A    between atoms: C_10  and  C_5 
REMARK    2  A    between atoms: O_22  and  C_15 
ROOT
ATOM      1  C   UNL d   1     -46.678  12.528  23.116  0.00  0.00     0.120 A 
ATOM      2  C   UNL d   1     -47.145  13.157  22.859  0.00  0.00     0.058 A 
ATOM      3  N   UNL d   1     -45.889  12.753  23.033  0.00  0.00    -0.195 NA
ATOM      4  S   UNL d   1     -47.026  11.838  23.388  0.00  0.00    -0.072 SA
ATOM      5  C   UNL d   1     -47.960  13.094  22.876  0.00  0.00     0.005 A 
ATOM      6  C   UNL d   1     -47.841  11.775  23.405  0.00  0.00     0.009 A 
ATOM      7  C   UNL d   1     -48.313  12.404  23.149  0.00  0.00    -0.015 A 
ATOM      8  C   UNL d   1     -45.867  13.522  22.725  0.00  0.00     0.311 A 
ATOM      9  S   UNL d   1     -46.654  13.770  22.618  0.00  0.00    -0.024 SA
ATOM     10  C   UNL d   1     -49.136  12.337  23.167  0.00  0.00     0.045 A 
ATOM     11  C   UNL d   1     -48.192  11.082  23.680  0.00  0.00     0.050 A 
ATOM     12  C   UNL d   1     -48.441  11.809  23.386  0.00  0.00     0.018 A 
ATOM     13  O   UNL d   1     -45.192  13.969  22.553  0.00  0.00    -0.258 OA
ATOM     14  C   UNL d   1     -49.487  11.644  23.441  0.00  0.00    -0.026 A 
ATOM     15  C   UNL d   1     -49.015  11.016  23.698  0.00  0.00    -0.026 A 
ENDROOT
BRANCH   5  16
ATOM     16  C   UNL d   1     -48.425  13.715  22.622  0.00  0.00     0.002 A 
ATOM     17  C   UNL d   1     -48.598  14.333  23.129  0.00  0.00     0.028 A 
ATOM     18  C   UNL d   1     -49.067  14.960  22.876  0.00  0.00     0.133 A 
ATOM     19  C   UNL d   1     -49.366  14.968  22.103  0.00  0.00     0.218 A 
ATOM     20  C   UNL d   1     -49.190  14.340  21.589  0.00  0.00     0.044 A 
ATOM     21  O   UNL d   1     -49.836  15.595  21.845  0.00  0.00    -0.284 OA
ATOM     22  C   UNL d   1     -48.722  13.716  21.846  0.00  0.00     0.003 A 
BRANCH  18  23
ATOM     23  O   UNL d   1     -49.240  15.583  23.389  0.00  0.00    -0.325 OA
ATOM     24  C   UNL d   1     -50.002  15.666  23.698  0.00  0.00     0.181 C 
ENDBRANCH  18  23
ENDBRANCH   5  16
TORSDOF 2
ENDMDL
MODEL 3
REMARK VINA RESULT:      -9.5      1.698      2.254
REMARK  2 active torsions:
REMARK  status: ('A' for Active; 'I' for Inactive)
REMARK    1  A    between atoms: C_10  and  C_5 
REMARK    2  A    between atoms: O_22  and  C_15 
ROOT
ATOM      1  C   UNL d   1     -46.322  12.853  23.133  0.00  0.00     0.120 A 
ATOM      2  C   UNL d   1     -47.088  12.545  23.138  0.00  0.00     0.058 A 
ATOM      3  N   UNL d   1     -45.805  12.240  23.322  0.00  0.00    -0.195 NA
ATOM      4  S   UNL d   1     -46.196  13.643  22.959  0.00  0.00    -0.072 SA
ATOM      5  C   UNL d   1     -47.724  13.029  22.970  0.00  0.00     0.005 A 
ATOM      6  C   UNL d   1     -46.833  14.128  22.790  0.00  0.00     0.009 A 
ATOM      7  C   UNL d   1     -47.602  13.822  22.795  0.00  0.00    -0.015 A 
ATOM      8  C   UNL d   1     -46.249  11.551  23.444  0.00  0.00     0.311 A 
ATOM      9  S   UNL d   1     -47.049  11.746  23.329  0.00  0.00    -0.024 SA
ATOM     10  C   UNL d   1     -48.243  14.314  22.624  0.00  0.00     0.045 A 
ATOM     11  C   UNL d   1     -46.708  14.923  22.615  0.00  0.00     0.050 A 
ATOM     12  C   UNL d   1     -47.350  14.413  22.679  0.00  0.00     0.018 A 
ATOM     13  O   UNL d   1     -45.959  10.801  23.645  0.00  0.00    -0.258 OA
ATOM     14  C   UNL d   1     -48.117  15.109  22.449  0.00  0.00    -0.026 A 
ATOM     15  C   UNL d   1     -47.349  15.415  22.444  0.00  0.00    -0.026 A 
ENDROOT
BRANCH   5  16
ATOM     16  C   UNL d   1     -48.483  12.726  22.974  0.00  0.00     0.002 A 
ATOM     17  C   UNL d   1     -48.831  12.480  22.276  0.00  0.00     0.028 A 
ATOM     18  C   UNL d   1     -49.595  12.175  22.278  0.00  0.00     0.133 A 
ATOM     19  C   UNL d   1     -50.016  12.115  22.989  0.00  0.00     0.218 A 
ATOM     20  C   UNL d   1     -49.661  12.365  23.697  0.00  0.00     0.044 A 
ATOM     21  O   UNL d   1     -50.782  11.810  22.996  0.00  0.00    -0.284 OA
ATOM     22  C   UNL d   1     -48.898  12.670  23.691  0.00  0.00     0.003 A 
BRANCH  18  23
ATOM     23  O   UNL d   1     -49.945  11.927  21.573  0.00  0.00    -0.325 OA
ATOM     24  C   UNL d   1     -50.103  12.473  20.974  0.00  0.00     0.181 C 
ENDBRANCH  18  23
ENDBRANCH   5  16
TORSDOF 2
ENDMDL
MODEL 4
REMARK VINA RESULT:      -9.2      1.815      2.685
REMARK  2 active torsions:
REMARK  status: ('A' for Active; 'I' for Inactive)
REMARK    1  A    between atoms: C_10  and  C_5 
REMARK    2  A    between atoms: O_22  and  C_15 
ROOT
ATOM      1  C   UNL d   1     -46.700  13.713  22.832  0.00  0.00     0.120 A 
ATOM      2  C   UNL d   1     -47.515  13.583  22.819  0.00  0.00     0.058 A 
ATOM      3  N   UNL d   1     -46.569  14.497  22.616  0.00  0.00    -0.195 NA
ATOM      4  S   UNL d   1     -46.189  13.107  23.037  0.00  0.00    -0.072 SA
ATOM      5  C   UNL d   1     -47.815  12.848  23.011  0.00  0.00     0.005 A 
ATOM      6  C   UNL d   1     -46.489  12.371  23.229  0.00  0.00     0.009 A 
ATOM      7  C   UNL d   1     -47.305  12.237  23.217  0.00  0.00    -0.015 A 
ATOM      8  C   UNL d   1     -47.302  14.855  22.469  0.00  0.00     0.311 A 
ATOM      9  S   UNL d   1     -47.889  14.280  22.597  0.00  0.00    -0.024 SA
ATOM     10  C   UNL d   1     -47.605  11.493  23.411  0.00  0.00     0.045 A 
ATOM     11  C   UNL d   1     -45.975  11.760  23.436  0.00  0.00     0.050 A 
ATOM     12  C   UNL d   1     -46.787  11.865  23.355  0.00  0.00     0.018 A 
ATOM     13  O   UNL d   1     -47.435  15.639  22.237  0.00  0.00    -0.258 OA
ATOM     14  C   UNL d   1     -47.091  10.883  23.618  0.00  0.00    -0.026 A 
ATOM     15  C   UNL d   1     -46.275  11.016  23.630  0.00  0.00    -0.026 A 
ENDROOT
BRANCH   5  16
ATOM     16  C   UNL d   1     -48.621  12.717  22.999  0.00  0.00     0.002 A 
ATOM     17  C   UNL d   1     -48.992  12.503  22.302  0.00  0.00     0.028 A 
ATOM     18  C   UNL d   1     -49.804  12.371  22.287  0.00  0.00     0.133 A 
ATOM     19  C   UNL d   1     -50.250  12.454  22.980  0.00  0.00     0.218 A 
ATOM     20  C   UNL d   1     -49.872  12.671  23.687  0.00  0.00     0.044 A 
ATOM     21  O   UNL d   1     -51.064  12.322  22.970  0.00  0.00    -0.284 OA
ATOM     22  C   UNL d   1     -49.062  12.802  23.698  0.00  0.00     0.003 A 
BRANCH  18  23
ATOM     23  O   UNL d   1     -50.177  12.155  21.583  0.00  0.00    -0.325 OA
ATOM     24  C   UNL d   1     -50.409  12.735  21.042  0.00  0.00     0.181 C 
ENDBRANCH  18  23
ENDBRANCH   5  16
TORSDOF 2
ENDMDL
MODEL 5
REMARK VINA RESULT:      -8.8      1.704      3.160
REMARK  2 active torsions:
REMARK  status: ('A' for Active; 'I' for Inactive)
REMARK    1  A    between atoms: C_10  and  C_5 
REMARK    2  A    between atoms: O_22  and  C_15 
ROOT
ATOM      1  C   UNL d   1     -50.329  13.112  23.542  0.00  0.00     0.120 A 
ATOM      2  C   UNL d   1     -49.572  12.981  23.242  0.00  0.00     0.058 A 
ATOM      3  N   UNL d   1     -50.666  12.376  23.698  0.00  0.00    -0.195 NA
ATOM      4  S   UNL d   1     -50.611  13.875  23.634  0.00  0.00    -0.072 SA
ATOM      5  C   UNL d   1     -49.100  13.615  23.034  0.00  0.00     0.005 A 
ATOM      6  C   UNL d   1     -50.138  14.510  23.426  0.00  0.00     0.009 A 
ATOM      7  C   UNL d   1     -49.379  14.382  23.125  0.00  0.00    -0.015 A 
ATOM      8  C   UNL d   1     -50.118  11.788  23.494  0.00  0.00     0.311 A 
ATOM      9  S   UNL d   1     -49.437  12.171  23.210  0.00  0.00    -0.024 SA
ATOM     10  C   UNL d   1     -48.904  15.024  22.916  0.00  0.00     0.045 A 
ATOM     11  C   UNL d   1     -50.421  15.278  23.518  0.00  0.00     0.050 A 
ATOM     12  C   UNL d   1     -49.732  14.916  23.252  0.00  0.00     0.018 A 
ATOM     13  O   UNL d   1     -50.222  10.969  23.559  0.00  0.00    -0.258 OA
ATOM     14  C   UNL d   1     -49.186  15.793  23.008  0.00  0.00    -0.026 A 
ATOM     15  C   UNL d   1     -49.946  15.920  23.310  0.00  0.00    -0.026 A 
ENDROOT
BRANCH   5  16
ATOM     16  C   UNL d   1     -48.349  13.488  22.737  0.00  0.00     0.002 A 
ATOM     17  C   UNL d   1     -47.716  13.390  23.245  0.00  0.00     0.028 A 
ATOM     18  C   UNL d   1     -46.960  13.262  22.948  0.00  0.00     0.133 A 
ATOM     19  C   UNL d   1     -46.836  13.232  22.130  0.00  0.00     0.218 A 
ATOM     20  C   UNL d   1     -47.479  13.332  21.614  0.00  0.00     0.044 A 
ATOM     21  O   UNL d   1     -46.080  13.104  21.827  0.00  0.00    -0.284 OA
ATOM     22  C   UNL d   1     -48.233  13.459  21.914  0.00  0.00     0.003 A 
BRANCH  18  23
ATOM     23  O   UNL d   1     -46.323  13.163  23.463  0.00  0.00    -0.325 OA
ATOM     24  C   UNL d   1     -46.071  12.404  23.671  0.00  0.00     0.181 C 
ENDBRANCH  18  23
ENDBRANCH   5  16
TORSDOF 2
ENDMDL
MODEL 6
REMARK VINA RESULT:      -8.4      1.492      2.707
REMARK  2 active torsions:
REMARK  status: ('A' for Active; 'I' for Inactive)
REMARK    1  A    between atoms: C_10  and  C_5 
REMARK    2  A    between atoms: O_22  and  C_15 
ROOT
ATOM      1  C   UNL d   1     -48.210  15.173  22.774  0.00  0.00     0.120 A 
ATOM      2  C   UNL d   1     -48.641  14.474  22.848  0.00  0.00     0.058 A 
ATOM      3  N   UNL d   1     -48.740  15.801  22.835  0.00  0.00    -0.195 NA
ATOM      4  S   UNL d   1     -47.399  15.148  22.662  0.00  0.00    -0.072 SA
ATOM      5  C   UNL d   1     -48.260  13.753  22.810  0.00  0.00     0.005 A 
ATOM      6  C   UNL d   1     -47.017  14.426  22.623  0.00  0.00     0.009 A 
ATOM      7  C   UNL d   1     -47.446  13.723  22.698  0.00  0.00    -0.015 A 
ATOM      8  C   UNL d   1     -49.501  15.492  22.947  0.00  0.00     0.311 A 
ATOM      9  S   UNL d   1     -49.434  14.663  22.954  0.00  0.00    -0.024 SA
ATOM     10  C   UNL d   1     -47.058  12.996  22.659  0.00  0.00     0.045 A 
ATOM     11  C   UNL d   1     -46.201  14.400  22.511  0.00  0.00     0.050 A 
ATOM     12  C   UNL d   1     -46.815  13.861  22.607  0.00  0.00     0.018 A 
ATOM     13  O   UNL d   1     -50.204  15.921  23.036  0.00  0.00    -0.258 OA
ATOM     14  C   UNL d   1     -46.242  12.970  22.546  0.00  0.00    -0.026 A 
ATOM     15  C   UNL d   1     -45.813  13.673  22.472  0.00  0.00    -0.026 A 
ENDROOT
BRANCH   5  16
ATOM     16  C   UNL d   1     -48.685  13.059  22.883  0.00  0.00     0.002 A 
ATOM     17  C   UNL d   1     -49.062  12.737  22.233  0.00  0.00     0.028 A 
ATOM     18  C   UNL d   1     -49.490  12.038  22.304  0.00  0.00     0.133 A 
ATOM     19  C   UNL d   1     -49.542  11.657  23.038  0.00  0.00     0.218 A 
ATOM     20  C   UNL d   1     -49.159  11.985  23.697  0.00  0.00     0.044 A 
ATOM     21  O   UNL d   1     -49.970  10.956  23.114  0.00  0.00    -0.284 OA
ATOM     22  C   UNL d   1     -48.732  12.682  23.623  0.00  0.00     0.003 A 
BRANCH  18  23
ATOM     23  O   UNL d   1     -49.870  11.715  21.646  0.00  0.00    -0.325 OA
ATOM     24  C   UNL d   1     -50.139  12.206  21.039  0.00  0.00     0.181 C 
ENDBRANCH  18  23
ENDBRANCH   5  16
TORSDOF 2
ENDMDL
MODEL 7
REMARK VINA RESULT:      -8.2      1.873      3.679
REMARK  2 active torsions:
REMARK  status: ('A' for Active; 'I' for Inactive)
REMARK    1  A    between atoms: C_10  and  C_5 
REMARK    2  A    between atoms: O_22  and  C_15 
ROOT
ATOM      1  C   UNL d   1     -50.146  13.875  23.006  0.00  0.00     0.120 A 
ATOM      2  C   UNL d   1     -49.360  13.886  22.758  0.00  0.00     0.058 A 
ATOM      3  N   UNL d   1     -50.455  14.630  22.890  0.00  0.00    -0.195 NA
ATOM      4  S   UNL d   1     -50.476  13.186  23.301  0.00  0.00    -0.072 SA
ATOM      5  C   UNL d   1     -48.906  13.208  22.806  0.00  0.00     0.005 A 
ATOM      6  C   UNL d   1     -50.022  12.507  23.350  0.00  0.00     0.009 A 
ATOM      7  C   UNL d   1     -49.233  12.515  23.102  0.00  0.00    -0.015 A 
ATOM      8  C   UNL d   1     -49.861  15.110  22.571  0.00  0.00     0.311 A 
ATOM      9  S   UNL d   1     -49.179  14.642  22.490  0.00  0.00    -0.024 SA
ATOM     10  C   UNL d   1     -48.777  11.829  23.153  0.00  0.00     0.045 A 
ATOM     11  C   UNL d   1     -50.353  11.814  23.648  0.00  0.00     0.050 A 
ATOM     12  C   UNL d   1     -49.624  12.057  23.353  0.00  0.00     0.018 A 
ATOM     13  O   UNL d   1     -49.925  15.911  22.366  0.00  0.00    -0.258 OA
ATOM     14  C   UNL d   1     -49.108  11.135  23.450  0.00  0.00    -0.026 A 
ATOM     15  C   UNL d   1     -49.897  11.127  23.698  0.00  0.00    -0.026 A 
ENDROOT
BRANCH   5  16
ATOM     16  C   UNL d   1     -48.126  13.217  22.561  0.00  0.00     0.002 A 
ATOM     17  C   UNL d   1     -47.534  13.436  23.082  0.00  0.00     0.028 A 
ATOM     18  C   UNL d   1     -46.749  13.445  22.838  0.00  0.00     0.133 A 
ATOM     19  C   UNL d   1     -46.554  13.234  22.061  0.00  0.00     0.218 A 
ATOM     20  C   UNL d   1     -47.156  13.012  21.533  0.00  0.00     0.044 A 
ATOM     21  O   UNL d   1     -45.768  13.242  21.811  0.00  0.00    -0.284 OA
ATOM     22  C   UNL d   1     -47.939  13.003  21.781  0.00  0.00     0.003 A 
BRANCH  18  23
ATOM     23  O   UNL d   1     -46.153  13.666  23.364  0.00  0.00    -0.325 OA
ATOM     24  C   UNL d   1     -45.825  14.423  23.326  0.00  0.00     0.181 C 
ENDBRANCH  18  23
ENDBRANCH   5  16
TORSDOF 2
ENDMDL
MODEL 8
REMARK VINA RESULT:      -7.7      2.009      3.711
REMARK  2 active torsions:
REMARK  status: ('A' for Active; 'I' for Inactive)
REMARK    1  A    between atoms: C_10  and  C_5 
REMARK    2  A    between atoms: O_22  and  C_15 
ROOT
ATOM      1  C   UNL d   1     -48.236  15.224  22.777  0.00  0.00     0.120 A 
ATOM      2  C   UNL d   1     -48.184  14.420  22.601  0.00  0.00     0.058 A 
ATOM      3  N   UNL d   1     -47.473  15.534  22.756  0.00  0.00    -0.195 NA
ATOM      4  S   UNL d   1     -48.964  15.566  22.932  0.00  0.00    -0.072 SA
ATOM      5  C   UNL d   1     -48.860  13.961  22.581  0.00  0.00     0.005 A 
ATOM      6  C   UNL d   1     -49.641  15.107  22.912  0.00  0.00     0.009 A 
ATOM      7  C   UNL d   1     -49.592  14.301  22.736  0.00  0.00    -0.015 A 
ATOM      8  C   UNL d   1     -46.947  14.923  22.567  0.00  0.00     0.311 A 
ATOM      9  S   UNL d   1     -47.395  14.229  22.472  0.00  0.00    -0.024 SA
ATOM     10  C   UNL d   1     -50.277  13.840  22.716  0.00  0.00     0.045 A 
ATOM     11  C   UNL d   1     -50.374  15.451  23.068  0.00  0.00     0.050 A 
ATOM     12  C   UNL d   1     -50.085  14.704  22.877  0.00  0.00     0.018 A 
ATOM     13  O   UNL d   1     -46.124  14.982  22.487  0.00  0.00    -0.258 OA
ATOM     14  C   UNL d   1     -51.009  14.183  22.872  0.00  0.00    -0.026 A 
ATOM     15  C   UNL d   1     -51.058  14.990  23.048  0.00  0.00    -0.026 A 
ENDROOT
BRANCH   5  16
ATOM     16  C   UNL d   1     -48.811  13.164  22.407  0.00  0.00     0.002 A 
ATOM     17  C   UNL d   1     -48.664  12.622  23.002  0.00  0.00     0.028 A 
ATOM     18  C   UNL d   1     -48.614  11.819  22.829  0.00  0.00     0.133 A 
ATOM     19  C   UNL d   1     -48.712  11.556  22.050  0.00  0.00     0.218 A 
ATOM     20  C   UNL d   1     -48.860  12.108  21.447  0.00  0.00     0.044 A 
ATOM     21  O   UNL d   1     -48.663  10.752  21.872  0.00  0.00    -0.284 OA
ATOM     22  C   UNL d   1     -48.910  12.908  21.623  0.00  0.00     0.003 A 
BRANCH  18  23
ATOM     23  O   UNL d   1     -48.467  11.273  23.431  0.00  0.00    -0.325 OA
ATOM     24  C   UNL d   1     -47.695  11.148  23.697  0.00  0.00     0.181 C 
ENDBRANCH  18  23
ENDBRANCH   5  16
TORSDOF 2
ENDMDL
