MODEL 1
REMARK VINA RESULT:      10.2      0.000      0.000
REMARK  1 active torsions:
REMARK  status: ('A' for Active; 'I' for Inactive)
REMARK    1  A    between atoms: C_7  and  C_6 
ROOT
ATOM      1  C   UNL d   1      23.607  12.573  -1.368  0.00  0.00     0.045 A 
ATOM      2  C   UNL d   1      23.197  12.884  -2.014  0.00  0.00     0.196 A 
ATOM      3  C   UNL d   1      24.261  12.148  -1.640  0.00  0.00     0.003 A 
ATOM      4  C   UNL d   1      23.604  12.647  -2.694  0.00  0.00     0.039 A 
ATOM      5  C   UNL d   1      24.254  12.198  -2.466  0.00  0.00     0.003 A 
ATOM      6  C   UNL d   1      23.465  12.624  -0.548  0.00  0.00     0.068 A 
ATOM      7  O   UNL d   1      22.517  13.340  -1.987  0.00  0.00    -0.287 OA
ATOM      8  C   UNL d   1      24.765  11.779  -1.110  0.00  0.00     0.000 A 
ATOM      9  C   UNL d   1      23.462  12.787  -3.497  0.00  0.00     0.003 A 
ATOM     10  C   UNL d   1      24.761  11.888  -3.042  0.00  0.00     0.000 A 
ATOM     11  C   UNL d   1      23.973  12.252  -0.016  0.00  0.00     0.006 A 
ATOM     12  C   UNL d   1      24.628  11.828  -0.305  0.00  0.00     0.000 A 
ATOM     13  C   UNL d   1      23.968  12.478  -4.065  0.00  0.00     0.000 A 
ATOM     14  C   UNL d   1      24.617  12.028  -3.837  0.00  0.00     0.000 A 
ENDROOT
BRANCH   6  15
ATOM     15  C   UNL d   1      22.812  13.048  -0.275  0.00  0.00     0.211 C 
ATOM     16  O   UNL d   1      22.883  13.861  -0.144  0.00  0.00    -0.644 OA
ATOM     17  O   UNL d   1      22.099  12.667  -0.136  0.00  0.00    -0.644 OA
ENDBRANCH   6  15
TORSDOF 1
ENDMDL
