MODEL 1
REMARK VINA RESULT:      25.6      0.000      0.000
REMARK  4 active torsions:
REMARK  status: ('A' for Active; 'I' for Inactive)
REMARK    1  A    between atoms: N_2  and  S_1 
REMARK    2  A    between atoms: C_3  and  S_1 
REMARK    3  A    between atoms: C_6  and  N_2 
REMARK    4  A    between atoms: C_13  and  N_2 
ROOT
ATOM      1  S   UNL d   1      59.071  49.633  50.336  0.00  0.00     0.271 S 
ATOM      2  O   UNL d   1      59.020  49.706  51.083  0.00  0.00    -0.200 OA
ATOM      3  O   UNL d   1      59.096  49.553  49.519  0.00  0.00    -0.200 OA
ENDROOT
BRANCH   1   4
ATOM      4  N   UNL d   1      59.903  49.642  50.361  0.00  0.00    -0.231 N 
BRANCH   4   5
ATOM      5  C   UNL d   1      60.295  49.589  51.089  0.00  0.00     0.075 A 
ATOM      6  C   UNL d   1      59.867  49.702  51.794  0.00  0.00     0.018 A 
ATOM      7  C   UNL d   1      60.254  49.651  52.528  0.00  0.00     0.002 A 
ATOM      8  C   UNL d   1      61.069  49.486  52.557  0.00  0.00     0.000 A 
ATOM      9  C   UNL d   1      61.494  49.373  51.849  0.00  0.00     0.002 A 
ATOM     10  C   UNL d   1      61.107  49.425  51.116  0.00  0.00     0.018 A 
ENDBRANCH   4   5
BRANCH   4  11
ATOM     11  C   UNL d   1      60.337  49.703  49.657  0.00  0.00     0.092 C 
ATOM     12  C   UNL d   1      61.158  49.623  49.667  0.00  0.00     0.021 C 
ENDBRANCH   4  11
ENDBRANCH   1   4
BRANCH   1  13
ATOM     13  C   UNL d   1      58.320  49.622  50.282  0.00  0.00     0.104 A 
ATOM     14  C   UNL d   1      57.983  49.620  49.602  0.00  0.00     0.015 A 
ATOM     15  C   UNL d   1      57.239  49.609  49.556  0.00  0.00     0.022 A 
ATOM     16  C   UNL d   1      56.819  49.599  50.176  0.00  0.00     0.103 A 
ATOM     17  C   UNL d   1      57.142  49.601  50.852  0.00  0.00     0.022 A 
ATOM     18  N   UNL d   1      56.069  49.588  50.119  0.00  0.00    -0.148 N 
ATOM     19  C   UNL d   1      57.893  49.612  50.910  0.00  0.00     0.015 A 
ENDBRANCH   1  13
TORSDOF 4
ENDMDL
MODEL 2
REMARK VINA RESULT:      26.2      0.979      3.434
REMARK  4 active torsions:
REMARK  status: ('A' for Active; 'I' for Inactive)
REMARK    1  A    between atoms: N_2  and  S_1 
REMARK    2  A    between atoms: C_3  and  S_1 
REMARK    3  A    between atoms: C_6  and  N_2 
REMARK    4  A    between atoms: C_13  and  N_2 
ROOT
ATOM      1  S   UNL d   1      59.261  49.692  51.010  0.00  0.00     0.271 S 
ATOM      2  O   UNL d   1      58.793  49.705  51.598  0.00  0.00    -0.200 OA
ATOM      3  O   UNL d   1      59.798  49.678  50.388  0.00  0.00    -0.200 OA
ENDROOT
BRANCH   1   4
ATOM      4  N   UNL d   1      58.631  49.688  50.466  0.00  0.00    -0.231 N 
BRANCH   4   5
ATOM      5  C   UNL d   1      57.850  49.678  50.742  0.00  0.00     0.075 A 
ATOM      6  C   UNL d   1      57.703  49.707  51.561  0.00  0.00     0.018 A 
ATOM      7  C   UNL d   1      56.922  49.697  51.844  0.00  0.00     0.002 A 
ATOM      8  C   UNL d   1      56.286  49.658  51.308  0.00  0.00     0.000 A 
ATOM      9  C   UNL d   1      56.437  49.629  50.489  0.00  0.00     0.002 A 
ATOM     10  C   UNL d   1      57.218  49.639  50.206  0.00  0.00     0.018 A 
ENDBRANCH   4   5
BRANCH   4  11
ATOM     11  C   UNL d   1      58.787  49.695  49.652  0.00  0.00     0.092 C 
ATOM     12  C   UNL d   1      58.169  49.611  49.111  0.00  0.00     0.021 C 
ENDBRANCH   4  11
ENDBRANCH   1   4
BRANCH   1  13
ATOM     13  C   UNL d   1      59.852  49.695  51.477  0.00  0.00     0.104 A 
ATOM     14  C   UNL d   1      59.749  49.699  52.229  0.00  0.00     0.015 A 
ATOM     15  C   UNL d   1      60.338  49.702  52.685  0.00  0.00     0.022 A 
ATOM     16  C   UNL d   1      61.034  49.700  52.409  0.00  0.00     0.103 A 
ATOM     17  C   UNL d   1      61.147  49.697  51.668  0.00  0.00     0.022 A 
ATOM     18  N   UNL d   1      61.622  49.703  52.878  0.00  0.00    -0.148 N 
ATOM     19  C   UNL d   1      60.559  49.694  51.198  0.00  0.00     0.015 A 
ENDBRANCH   1  13
TORSDOF 4
ENDMDL
