MODEL 1
REMARK VINA RESULT:      56.6      0.000      0.000
REMARK  6 active torsions:
REMARK  status: ('A' for Active; 'I' for Inactive)
REMARK    1  A    between atoms: C_5  and  N_1 
REMARK    2  A    between atoms: C_8  and  C_3 
REMARK    3  A    between atoms: C_7  and  C_4 
REMARK    4  A    between atoms: N_12  and  C_5 
REMARK    5  A    between atoms: N_11  and  C_10 
REMARK    6  A    between atoms: O_22  and  C_19 
ROOT
ATOM      1  N   UNL d   1      14.614  13.747  -1.222  0.00  0.00    -0.203 N 
ATOM      2  N   UNL d   1      14.302  13.163  -1.700  0.00  0.00    -0.163 NA
ATOM      3  C   UNL d   1      14.119  13.521  -2.425  0.00  0.00     0.103 A 
ATOM      4  C   UNL d   1      14.622  14.459  -1.650  0.00  0.00     0.087 A 
ATOM      5  C   UNL d   1      14.319  14.329  -2.391  0.00  0.00     0.040 A 
ENDROOT
BRANCH   4   6
ATOM      6  C   UNL d   1      14.887  15.197  -1.396  0.00  0.00     0.018 A 
ATOM      7  C   UNL d   1      14.807  15.858  -1.881  0.00  0.00     0.003 A 
ATOM      8  C   UNL d   1      15.073  16.597  -1.627  0.00  0.00     0.018 A 
ATOM      9  C   UNL d   1      15.419  16.675  -0.888  0.00  0.00     0.064 A 
ATOM     10  C   UNL d   1      15.506  16.020  -0.392  0.00  0.00     0.018 A 
ATOM     11  C   UNL d   1      15.237  15.282  -0.654  0.00  0.00     0.003 A 
BRANCH   9  12
ATOM     12  N   UNL d   1      15.677  17.414  -0.652  0.00  0.00    -0.301 N 
ATOM     13  C   UNL d   1      15.407  18.095  -1.044  0.00  0.00     0.100 C 
ATOM     14  C   UNL d   1      16.204  17.486  -0.024  0.00  0.00     0.100 C 
ENDBRANCH   9  12
ENDBRANCH   4   6
BRANCH   1  15
ATOM     15  C   UNL d   1      14.874  13.616  -0.430  0.00  0.00     0.222 C 
ATOM     16  S   UNL d   1      15.310  14.202  -0.028  0.00  0.00    -0.037 SA
BRANCH  15  17
ATOM     17  N   UNL d   1      14.691  12.880  -0.040  0.00  0.00    -0.214 NA
ATOM     18  C   UNL d   1      15.254  12.248  -0.065  0.00  0.00     0.122 C 
ENDBRANCH  15  17
ENDBRANCH   1  15
BRANCH   3  19
ATOM     19  C   UNL d   1      13.796  13.102  -3.036  0.00  0.00     0.019 A 
ATOM     20  C   UNL d   1      14.103  12.375  -3.259  0.00  0.00     0.004 A 
ATOM     21  C   UNL d   1      13.762  11.960  -3.885  0.00  0.00     0.024 A 
ATOM     22  C   UNL d   1      13.110  12.264  -4.296  0.00  0.00     0.094 A 
ATOM     23  C   UNL d   1      12.804  12.990  -4.073  0.00  0.00     0.024 A 
ATOM     24  C   UNL d   1      13.147  13.401  -3.448  0.00  0.00     0.004 A 
BRANCH  22  25
ATOM     25  O   UNL d   1      12.769  11.838  -4.929  0.00  0.00    -0.328 OA
ATOM     26  C   UNL d   1      13.081  11.921  -5.696  0.00  0.00     0.181 C 
ENDBRANCH  22  25
ENDBRANCH   3  19
TORSDOF 6
ENDMDL
