MODEL 1
REMARK VINA RESULT:      -8.6      0.000      0.000
REMARK  5 active torsions:
REMARK  status: ('A' for Active; 'I' for Inactive)
REMARK    1  A    between atoms: N_2  and  S_1 
REMARK    2  A    between atoms: C_3  and  S_1 
REMARK    3  A    between atoms: C_10  and  C_3 
REMARK    4  A    between atoms: C_9  and  N_4 
REMARK    5  A    between atoms: C_16  and  C_10 
ROOT
ATOM      1  N   UNL d   1      51.313  34.095  52.937  0.00  0.00    -0.226 N 
ATOM      2  N   UNL d   1      52.724  33.826  53.718  0.00  0.00    -0.301 N 
ATOM      3  C   UNL d   1      51.892  34.672  52.930  0.00  0.00     0.111 A 
ATOM      4  C   UNL d   1      51.429  33.378  53.331  0.00  0.00     0.111 A 
ATOM      5  C   UNL d   1      52.605  34.542  53.322  0.00  0.00     0.100 A 
ATOM      6  C   UNL d   1      52.139  33.239  53.726  0.00  0.00     0.100 A 
ENDROOT
BRANCH   1   7
ATOM      7  S   UNL d   1      50.588  34.236  52.534  0.00  0.00     0.272 S 
ATOM      8  O   UNL d   1      50.176  34.131  53.244  0.00  0.00    -0.200 OA
ATOM      9  O   UNL d   1      51.011  34.342  51.817  0.00  0.00    -0.200 OA
BRANCH   7  10
ATOM     10  C   UNL d   1      49.873  34.379  52.124  0.00  0.00     0.116 C 
BRANCH  10  11
ATOM     11  C   UNL d   1      49.319  34.899  52.450  0.00  0.00     0.014 C 
BRANCH  11  12
ATOM     12  C   UNL d   1      48.645  35.090  52.016  0.00  0.00     0.001 A 
ATOM     13  C   UNL d   1      48.505  34.736  51.257  0.00  0.00     0.000 A 
ATOM     14  C   UNL d   1      47.824  34.935  50.829  0.00  0.00     0.000 A 
ATOM     15  C   UNL d   1      47.279  35.490  51.156  0.00  0.00     0.000 A 
ATOM     16  C   UNL d   1      47.415  35.830  51.885  0.00  0.00     0.000 A 
ATOM     17  C   UNL d   1      48.105  35.624  52.312  0.00  0.00     0.000 A 
ENDBRANCH  11  12
ENDBRANCH  10  11
ENDBRANCH   7  10
ENDBRANCH   1   7
BRANCH   2  18
ATOM     18  C   UNL d   1      53.447  33.695  54.114  0.00  0.00     0.064 A 
ATOM     19  C   UNL d   1      54.008  33.188  53.790  0.00  0.00     0.020 A 
ATOM     20  C   UNL d   1      54.719  33.064  54.188  0.00  0.00     0.031 A 
ATOM     21  C   UNL d   1      54.862  33.445  54.901  0.00  0.00     0.140 A 
ATOM     22  C   UNL d   1      54.298  33.958  55.233  0.00  0.00     0.031 A 
ATOM     23  F   UNL d   1      55.594  33.319  55.313  0.00  0.00    -0.204 F 
ATOM     24  C   UNL d   1      53.587  34.081  54.833  0.00  0.00     0.020 A 
ENDBRANCH   2  18
TORSDOF 5
ENDMDL
MODEL 2
REMARK VINA RESULT:      -8.3      2.296      5.757
REMARK  5 active torsions:
REMARK  status: ('A' for Active; 'I' for Inactive)
REMARK    1  A    between atoms: N_2  and  S_1 
REMARK    2  A    between atoms: C_3  and  S_1 
REMARK    3  A    between atoms: C_10  and  C_3 
REMARK    4  A    between atoms: C_9  and  N_4 
REMARK    5  A    between atoms: C_16  and  C_10 
ROOT
ATOM      1  N   UNL d   1      50.544  34.256  52.733  0.00  0.00    -0.226 N 
ATOM      2  N   UNL d   1      49.125  34.955  52.325  0.00  0.00    -0.301 N 
ATOM      3  C   UNL d   1      50.110  34.647  53.305  0.00  0.00     0.111 A 
ATOM      4  C   UNL d   1      50.277  34.208  51.952  0.00  0.00     0.111 A 
ATOM      5  C   UNL d   1      49.394  35.001  53.105  0.00  0.00     0.100 A 
ATOM      6  C   UNL d   1      49.562  34.559  51.743  0.00  0.00     0.100 A 
ENDROOT
BRANCH   1   7
ATOM      7  S   UNL d   1      51.275  33.897  52.947  0.00  0.00     0.272 S 
ATOM      8  O   UNL d   1      51.678  34.443  52.474  0.00  0.00    -0.200 OA
ATOM      9  O   UNL d   1      50.861  33.345  53.425  0.00  0.00    -0.200 OA
BRANCH   7  10
ATOM     10  C   UNL d   1      51.995  33.533  53.165  0.00  0.00     0.116 C 
BRANCH  10  11
ATOM     11  C   UNL d   1      52.611  34.002  53.456  0.00  0.00     0.014 C 
BRANCH  11  12
ATOM     12  C   UNL d   1      53.256  33.638  53.818  0.00  0.00     0.001 A 
ATOM     13  C   UNL d   1      53.683  33.020  53.421  0.00  0.00     0.000 A 
ATOM     14  C   UNL d   1      54.329  32.661  53.794  0.00  0.00     0.000 A 
ATOM     15  C   UNL d   1      54.554  32.916  54.566  0.00  0.00     0.000 A 
ATOM     16  C   UNL d   1      54.143  33.510  54.946  0.00  0.00     0.000 A 
ATOM     17  C   UNL d   1      53.491  33.868  54.564  0.00  0.00     0.000 A 
ENDBRANCH  11  12
ENDBRANCH  10  11
ENDBRANCH   7  10
ENDBRANCH   1   7
BRANCH   2  18
ATOM     18  C   UNL d   1      48.398  35.314  52.123  0.00  0.00     0.064 A 
ATOM     19  C   UNL d   1      47.999  35.081  51.443  0.00  0.00     0.020 A 
ATOM     20  C   UNL d   1      47.283  35.441  51.250  0.00  0.00     0.031 A 
ATOM     21  C   UNL d   1      46.974  36.026  51.736  0.00  0.00     0.140 A 
ATOM     22  C   UNL d   1      47.374  36.266  52.426  0.00  0.00     0.031 A 
ATOM     23  F   UNL d   1      46.236  36.398  51.540  0.00  0.00    -0.204 F 
ATOM     24  C   UNL d   1      48.091  35.904  52.616  0.00  0.00     0.020 A 
ENDBRANCH   2  18
TORSDOF 5
ENDMDL
