MODEL 1
REMARK VINA RESULT:       2.7      0.000      0.000
REMARK  10 active torsions:
REMARK  status: ('A' for Active; 'I' for Inactive)
REMARK       I    between atoms: C_6  and  N_1 
REMARK    1  A    between atoms: C_7  and  C_3 
REMARK    2  A    between atoms: C_9  and  C_4 
REMARK    3  A    between atoms: C_19  and  C_6 
REMARK    4  A    between atoms: C_10  and  C_25 
REMARK    5  A    between atoms: O_23  and  C_10 
REMARK    6  A    between atoms: S_18  and  C_19 
REMARK    7  A    between atoms: C_25  and  S_18 
REMARK    8  A    between atoms: C_26  and  O_23 
REMARK    9  A    between atoms: C_27  and  C_26 
REMARK   10  A    between atoms: C_28  and  C_27 
ROOT
ATOM      1  N   UNL d   1      31.498  18.265 -23.915  0.00  0.00    -0.195 N 
ATOM      2  N   UNL d   1      32.147  17.760 -23.969  0.00  0.00    -0.162 NA
ATOM      3  C   UNL d   1      31.908  17.073 -24.298  0.00  0.00     0.109 A 
ATOM      4  C   UNL d   1      30.851  17.862 -24.224  0.00  0.00     0.088 A 
ATOM      5  C   UNL d   1      31.100  17.124 -24.462  0.00  0.00     0.041 A 
ATOM      6  C   UNL d   1      31.497  19.037 -23.607  0.00  0.00     0.275 C 
ATOM      7  O   UNL d   1      30.804  19.478 -23.589  0.00  0.00    -0.266 OA
ENDROOT
BRANCH   4   8
ATOM      8  C   UNL d   1      30.079  18.128 -24.295  0.00  0.00     0.018 A 
ATOM      9  C   UNL d   1      29.802  18.385 -25.026  0.00  0.00     0.004 A 
ATOM     10  C   UNL d   1      29.030  18.650 -25.096  0.00  0.00     0.030 A 
ATOM     11  C   UNL d   1      28.527  18.665 -24.446  0.00  0.00     0.140 A 
ATOM     12  C   UNL d   1      28.816  18.403 -23.708  0.00  0.00     0.030 A 
ATOM     13  F   UNL d   1      27.753  18.933 -24.526  0.00  0.00    -0.204 F 
ATOM     14  C   UNL d   1      29.584  18.137 -23.634  0.00  0.00     0.004 A 
ENDBRANCH   4   8
BRANCH   6  15
ATOM     15  C   UNL d   1      32.197  19.362 -23.316  0.00  0.00     0.127 C 
BRANCH  15  16
ATOM     16  S   UNL d   1      32.300  20.177 -23.294  0.00  0.00    -0.089 SA
BRANCH  16  17
ATOM     17  C   UNL d   1      33.024  20.491 -23.069  0.00  0.00     0.103 C 
BRANCH  17  18
ATOM     18  C   UNL d   1      33.091  21.281 -22.852  0.00  0.00     0.307 C 
ATOM     19  O   UNL d   1      33.196  21.856 -23.437  0.00  0.00    -0.258 OA
BRANCH  18  20
ATOM     20  O   UNL d   1      33.054  21.506 -22.054  0.00  0.00    -0.271 OA
BRANCH  20  21
ATOM     21  C   UNL d   1      32.658  22.190 -21.837  0.00  0.00     0.126 C 
BRANCH  21  22
ATOM     22  C   UNL d   1      32.323  22.251 -21.076  0.00  0.00     0.027 C 
BRANCH  22  23
ATOM     23  C   UNL d   1      32.489  22.908 -20.604  0.00  0.00     0.002 C 
ATOM     24  C   UNL d   1      31.867  23.384 -20.347  0.00  0.00     0.000 C 
ENDBRANCH  22  23
ENDBRANCH  21  22
ENDBRANCH  20  21
ENDBRANCH  18  20
ENDBRANCH  17  18
ENDBRANCH  16  17
ENDBRANCH  15  16
ENDBRANCH   6  15
BRANCH   3  25
ATOM     25  C   UNL d   1      32.420  16.440 -24.434  0.00  0.00     0.049 A 
ATOM     26  S   UNL d   1      32.704  16.053 -25.097  0.00  0.00    -0.085 SA
ATOM     27  C   UNL d   1      33.208  15.453 -24.850  0.00  0.00     0.035 A 
ATOM     28  C   UNL d   1      33.240  15.463 -24.025  0.00  0.00     0.007 A 
ATOM     29  C   UNL d   1      32.751  16.075 -23.763  0.00  0.00     0.009 A 
ENDBRANCH   3  25
TORSDOF 10
ENDMDL
