MODEL 1
REMARK VINA RESULT:      16.2      0.000      0.000
REMARK  3 active torsions:
REMARK  status: ('A' for Active; 'I' for Inactive)
REMARK    1  A    between atoms: C_6  and  N_1 
REMARK    2  A    between atoms: C_7  and  C_6 
REMARK    3  A    between atoms: C_8  and  C_7 
ROOT
ATOM      1  N   UNL d   1     -51.653  24.926  33.306  0.00  0.00    -0.305 N 
ATOM      2  C   UNL d   1     -51.868  25.923  33.307  0.00  0.00     0.064 A 
ATOM      3  C   UNL d   1     -51.051  26.000  33.307  0.00  0.00     0.018 A 
ATOM      4  C   UNL d   1     -50.912  24.569  33.307  0.00  0.00     0.064 A 
ATOM      5  C   UNL d   1     -50.577  25.315  33.307  0.00  0.00     0.018 A 
ATOM      6  C   UNL d   1     -52.338  26.601  33.307  0.00  0.00     0.018 A 
ATOM      7  C   UNL d   1     -50.698  26.733  33.307  0.00  0.00     0.002 A 
ATOM      8  C   UNL d   1     -50.438  23.884  33.306  0.00  0.00     0.018 A 
ATOM      9  C   UNL d   1     -49.756  25.394  33.307  0.00  0.00     0.002 A 
ATOM     10  C   UNL d   1     -51.174  27.421  33.307  0.00  0.00     0.000 A 
ATOM     11  C   UNL d   1     -51.987  27.353  33.307  0.00  0.00     0.002 A 
ATOM     12  C   UNL d   1     -49.269  24.727  33.307  0.00  0.00     0.000 A 
ATOM     13  C   UNL d   1     -49.610  23.983  33.307  0.00  0.00     0.002 A 
ENDROOT
BRANCH   1  14
ATOM     14  C   UNL d   1     -52.327  24.444  33.306  0.00  0.00     0.086 C 
BRANCH  14  15
ATOM     15  C   UNL d   1     -52.414  23.859  33.902  0.00  0.00     0.089 C 
BRANCH  15  16
ATOM     16  C   UNL d   1     -53.170  23.558  34.067  0.00  0.00     0.213 C 
ATOM     17  O   UNL d   1     -53.641  23.296  33.452  0.00  0.00    -0.644 OA
ATOM     18  O   UNL d   1     -53.869  23.302  34.439  0.00  0.00    -0.644 OA
ENDBRANCH  15  16
ENDBRANCH  14  15
ENDBRANCH   1  14
TORSDOF 3
ENDMDL
