MODEL 1
REMARK VINA RESULT:      20.2      0.000      0.000
REMARK  5 active torsions:
REMARK  status: ('A' for Active; 'I' for Inactive)
REMARK    1  A    between atoms: C_8  and  C_1 
REMARK    2  A    between atoms: N_6  and  C_2 
REMARK    3  A    between atoms: C_12  and  C_4 
REMARK       I    between atoms: C_7  and  N_6 
REMARK    4  A    between atoms: C_9  and  C_7 
REMARK    5  A    between atoms: O_15  and  C_8 
ROOT
ATOM      1  C   UNL d   1      45.944 -17.325  43.263  0.00  0.00     0.110 A 
ATOM      2  C   UNL d   1      46.213 -17.555  43.996  0.00  0.00     0.096 A 
ATOM      3  S   UNL d   1      45.691 -16.528  43.335  0.00  0.00    -0.080 SA
ATOM      4  C   UNL d   1      45.814 -16.294  44.115  0.00  0.00     0.031 A 
ATOM      5  C   UNL d   1      46.140 -16.935  44.527  0.00  0.00     0.026 A 
ENDROOT
BRANCH   2   6
ATOM      6  N   UNL d   1      46.512 -18.306  44.159  0.00  0.00    -0.207 NA
ATOM      7  C   UNL d   1      46.084 -18.837  44.611  0.00  0.00     0.279 C 
ATOM      8  O   UNL d   1      45.336 -18.600  44.906  0.00  0.00    -0.265 OA
BRANCH   7   9
ATOM      9  C   UNL d   1      46.361 -19.577  44.780  0.00  0.00     0.058 A 
ATOM     10  C   UNL d   1      46.645 -20.330  44.955  0.00  0.00     0.005 A 
ATOM     11  C   UNL d   1      46.366 -20.162  44.195  0.00  0.00     0.005 A 
ENDBRANCH   7   9
ENDBRANCH   2   6
BRANCH   1  12
ATOM     12  C   UNL d   1      45.927 -17.792  42.583  0.00  0.00     0.303 C 
ATOM     13  O   UNL d   1      45.198 -18.093  42.299  0.00  0.00    -0.259 OA
BRANCH  12  14
ATOM     14  O   UNL d   1      46.637 -17.966  42.175  0.00  0.00    -0.295 OA
ATOM     15  C   UNL d   1      46.617 -18.353  41.465  0.00  0.00     0.185 C 
ENDBRANCH  12  14
ENDBRANCH   1  12
BRANCH   4  16
ATOM     16  C   UNL d   1      45.626 -15.526  44.400  0.00  0.00     0.006 A 
ATOM     17  C   UNL d   1      46.235 -15.010  44.615  0.00  0.00     0.001 A 
ATOM     18  C   UNL d   1      46.049 -14.264  44.892  0.00  0.00     0.000 A 
ATOM     19  C   UNL d   1      45.254 -14.032  44.955  0.00  0.00     0.000 A 
ATOM     20  C   UNL d   1      44.653 -14.567  44.733  0.00  0.00     0.000 A 
ATOM     21  C   UNL d   1      44.863 -15.306  44.460  0.00  0.00     0.001 A 
ENDBRANCH   4  16
TORSDOF 5
ENDMDL
MODEL 2
REMARK VINA RESULT:      21.8      0.670      2.030
REMARK  5 active torsions:
REMARK  status: ('A' for Active; 'I' for Inactive)
REMARK    1  A    between atoms: C_8  and  C_1 
REMARK    2  A    between atoms: N_6  and  C_2 
REMARK    3  A    between atoms: C_12  and  C_4 
REMARK       I    between atoms: C_7  and  N_6 
REMARK    4  A    between atoms: C_9  and  C_7 
REMARK    5  A    between atoms: O_15  and  C_8 
ROOT
ATOM      1  C   UNL d   1      45.974 -17.647  44.224  0.00  0.00     0.110 A 
ATOM      2  C   UNL d   1      46.250 -17.434  43.488  0.00  0.00     0.096 A 
ATOM      3  S   UNL d   1      45.744 -16.939  44.612  0.00  0.00    -0.080 SA
ATOM      4  C   UNL d   1      45.887 -16.312  44.098  0.00  0.00     0.031 A 
ATOM      5  C   UNL d   1      46.202 -16.622  43.397  0.00  0.00     0.026 A 
ENDROOT
BRANCH   2   6
ATOM      6  N   UNL d   1      46.531 -17.975  42.931  0.00  0.00    -0.207 NA
ATOM      7  C   UNL d   1      46.037 -18.269  42.349  0.00  0.00     0.279 C 
ATOM      8  O   UNL d   1      45.240 -18.010  42.330  0.00  0.00    -0.265 OA
BRANCH   7   9
ATOM      9  C   UNL d   1      46.295 -18.799  41.796  0.00  0.00     0.058 A 
ATOM     10  C   UNL d   1      46.560 -19.340  41.235  0.00  0.00     0.005 A 
ATOM     11  C   UNL d   1      46.167 -18.655  40.991  0.00  0.00     0.005 A 
ENDBRANCH   7   9
ENDBRANCH   2   6
BRANCH   1  12
ATOM     12  C   UNL d   1      45.932 -18.414  44.525  0.00  0.00     0.303 C 
ATOM     13  O   UNL d   1      45.195 -18.813  44.558  0.00  0.00    -0.259 OA
BRANCH  12  14
ATOM     14  O   UNL d   1      46.625 -18.797  44.798  0.00  0.00    -0.295 OA
ATOM     15  C   UNL d   1      46.642 -19.600  44.886  0.00  0.00     0.185 C 
ENDBRANCH  12  14
ENDBRANCH   1  12
BRANCH   4  16
ATOM     16  C   UNL d   1      45.725 -15.511  44.293  0.00  0.00     0.006 A 
ATOM     17  C   UNL d   1      46.336 -14.955  44.275  0.00  0.00     0.001 A 
ATOM     18  C   UNL d   1      46.176 -14.176  44.465  0.00  0.00     0.000 A 
ATOM     19  C   UNL d   1      45.404 -13.952  44.673  0.00  0.00     0.000 A 
ATOM     20  C   UNL d   1      44.799 -14.528  44.686  0.00  0.00     0.000 A 
ATOM     21  C   UNL d   1      44.984 -15.298  44.493  0.00  0.00     0.001 A 
ENDBRANCH   4  16
TORSDOF 5
ENDMDL
MODEL 3
REMARK VINA RESULT:      22.8      1.317      4.294
REMARK  5 active torsions:
REMARK  status: ('A' for Active; 'I' for Inactive)
REMARK    1  A    between atoms: C_8  and  C_1 
REMARK    2  A    between atoms: N_6  and  C_2 
REMARK    3  A    between atoms: C_12  and  C_4 
REMARK       I    between atoms: C_7  and  N_6 
REMARK    4  A    between atoms: C_9  and  C_7 
REMARK    5  A    between atoms: O_15  and  C_8 
ROOT
ATOM      1  C   UNL d   1      46.544 -18.779  43.568  0.00  0.00     0.110 A 
ATOM      2  C   UNL d   1      46.378 -18.037  43.279  0.00  0.00     0.096 A 
ATOM      3  S   UNL d   1      46.632 -19.284  42.904  0.00  0.00    -0.080 SA
ATOM      4  C   UNL d   1      46.516 -18.832  42.225  0.00  0.00     0.031 A 
ATOM      5  C   UNL d   1      46.358 -18.053  42.461  0.00  0.00     0.026 A 
ENDROOT
BRANCH   2   6
ATOM      6  N   UNL d   1      46.252 -17.377  43.759  0.00  0.00    -0.207 NA
ATOM      7  C   UNL d   1      45.737 -16.785  43.528  0.00  0.00     0.279 C 
ATOM      8  O   UNL d   1      45.342 -16.862  42.793  0.00  0.00    -0.265 OA
BRANCH   7   9
ATOM      9  C   UNL d   1      45.602 -16.133  43.985  0.00  0.00     0.058 A 
ATOM     10  C   UNL d   1      45.465 -15.470  44.454  0.00  0.00     0.005 A 
ATOM     11  C   UNL d   1      45.442 -15.402  43.631  0.00  0.00     0.005 A 
ENDBRANCH   7   9
ENDBRANCH   2   6
BRANCH   1  12
ATOM     12  C   UNL d   1      46.612 -18.989  44.363  0.00  0.00     0.303 C 
ATOM     13  O   UNL d   1      46.646 -18.394  44.952  0.00  0.00    -0.259 OA
BRANCH  12  14
ATOM     14  O   UNL d   1      46.647 -19.796  44.583  0.00  0.00    -0.295 OA
ATOM     15  C   UNL d   1      46.017 -20.150  44.946  0.00  0.00     0.185 C 
ENDBRANCH  12  14
ENDBRANCH   1  12
BRANCH   4  16
ATOM     16  C   UNL d   1      46.561 -19.148  41.448  0.00  0.00     0.006 A 
ATOM     17  C   UNL d   1      46.604 -18.636  40.801  0.00  0.00     0.001 A 
ATOM     18  C   UNL d   1      46.647 -18.946  40.046  0.00  0.00     0.000 A 
ATOM     19  C   UNL d   1      46.647 -19.769  39.936  0.00  0.00     0.000 A 
ATOM     20  C   UNL d   1      46.603 -20.271  40.602  0.00  0.00     0.000 A 
ATOM     21  C   UNL d   1      46.560 -19.937  41.345  0.00  0.00     0.001 A 
ENDBRANCH   4  16
TORSDOF 5
ENDMDL
