MODEL 1
REMARK VINA RESULT:     -10.9      0.000      0.000
REMARK  1 active torsions:
REMARK  status: ('A' for Active; 'I' for Inactive)
REMARK    1  A    between atoms: C_13  and  C_7 
ROOT
ATOM      1  C   UNL d   1     -48.095  11.965  23.336  0.00  0.00     0.120 A 
ATOM      2  C   UNL d   1     -48.620  12.590  23.219  0.00  0.00     0.058 A 
ATOM      3  N   UNL d   1     -48.539  11.298  23.529  0.00  0.00    -0.195 NA
ATOM      4  S   UNL d   1     -47.292  12.084  23.251  0.00  0.00    -0.072 SA
ATOM      5  C   UNL d   1     -47.008  12.824  23.051  0.00  0.00     0.009 A 
ATOM      6  C   UNL d   1     -47.531  13.453  22.933  0.00  0.00    -0.015 A 
ATOM      7  C   UNL d   1     -48.336  13.330  23.018  0.00  0.00     0.005 A 
ATOM      8  C   UNL d   1     -49.340  11.509  23.532  0.00  0.00     0.311 A 
ATOM      9  S   UNL d   1     -49.383  12.314  23.339  0.00  0.00    -0.024 SA
ATOM     10  C   UNL d   1     -47.243  14.200  22.731  0.00  0.00     0.045 A 
ATOM     11  C   UNL d   1     -46.196  12.943  22.966  0.00  0.00     0.050 A 
ATOM     12  C   UNL d   1     -46.883  13.393  22.903  0.00  0.00     0.018 A 
ATOM     13  O   UNL d   1     -49.981  11.012  23.698  0.00  0.00    -0.258 OA
ATOM     14  C   UNL d   1     -46.430  14.318  22.646  0.00  0.00    -0.026 A 
ATOM     15  C   UNL d   1     -45.907  13.690  22.764  0.00  0.00    -0.026 A 
ENDROOT
BRANCH   7  16
ATOM     16  C   UNL d   1     -48.859  13.953  22.902  0.00  0.00     0.001 A 
ATOM     17  C   UNL d   1     -49.175  14.091  22.147  0.00  0.00     0.003 A 
ATOM     18  C   UNL d   1     -49.694  14.711  22.033  0.00  0.00     0.042 A 
ATOM     19  C   UNL d   1     -49.909  15.204  22.668  0.00  0.00     0.196 A 
ATOM     20  C   UNL d   1     -49.587  15.057  23.419  0.00  0.00     0.042 A 
ATOM     21  O   UNL d   1     -50.434  15.829  22.550  0.00  0.00    -0.287 OA
ATOM     22  C   UNL d   1     -49.067  14.435  23.529  0.00  0.00     0.003 A 
ENDBRANCH   7  16
TORSDOF 1
ENDMDL
MODEL 2
REMARK VINA RESULT:     -10.6      1.480      2.434
REMARK  1 active torsions:
REMARK  status: ('A' for Active; 'I' for Inactive)
REMARK    1  A    between atoms: C_13  and  C_7 
ROOT
ATOM      1  C   UNL d   1     -46.412  12.975  23.136  0.00  0.00     0.120 A 
ATOM      2  C   UNL d   1     -47.138  12.584  23.154  0.00  0.00     0.058 A 
ATOM      3  N   UNL d   1     -45.829  12.429  23.336  0.00  0.00    -0.195 NA
ATOM      4  S   UNL d   1     -46.379  13.768  22.942  0.00  0.00    -0.072 SA
ATOM      5  C   UNL d   1     -47.067  14.173  22.766  0.00  0.00     0.009 A 
ATOM      6  C   UNL d   1     -47.796  13.785  22.783  0.00  0.00    -0.015 A 
ATOM      7  C   UNL d   1     -47.826  12.990  22.978  0.00  0.00     0.005 A 
ATOM      8  C   UNL d   1     -46.192  11.698  23.478  0.00  0.00     0.311 A 
ATOM      9  S   UNL d   1     -47.006  11.803  23.363  0.00  0.00    -0.024 SA
ATOM     10  C   UNL d   1     -48.489  14.196  22.605  0.00  0.00     0.045 A 
ATOM     11  C   UNL d   1     -47.032  14.975  22.570  0.00  0.00     0.050 A 
ATOM     12  C   UNL d   1     -47.613  14.396  22.651  0.00  0.00     0.018 A 
ATOM     13  O   UNL d   1     -45.816  10.994  23.694  0.00  0.00    -0.258 OA
ATOM     14  C   UNL d   1     -48.454  14.997  22.409  0.00  0.00    -0.026 A 
ATOM     15  C   UNL d   1     -47.726  15.386  22.392  0.00  0.00    -0.026 A 
ENDROOT
BRANCH   7  16
ATOM     16  C   UNL d   1     -48.548  12.601  22.996  0.00  0.00     0.001 A 
ATOM     17  C   UNL d   1     -48.814  12.192  22.324  0.00  0.00     0.003 A 
ATOM     18  C   UNL d   1     -49.533  11.805  22.343  0.00  0.00     0.042 A 
ATOM     19  C   UNL d   1     -50.001  11.818  23.031  0.00  0.00     0.196 A 
ATOM     20  C   UNL d   1     -49.726  12.230  23.698  0.00  0.00     0.042 A 
ATOM     21  O   UNL d   1     -50.726  11.426  23.048  0.00  0.00    -0.287 OA
ATOM     22  C   UNL d   1     -49.004  12.616  23.674  0.00  0.00     0.003 A 
ENDBRANCH   7  16
TORSDOF 1
ENDMDL
MODEL 3
REMARK VINA RESULT:     -10.2      1.650      3.266
REMARK  1 active torsions:
REMARK  status: ('A' for Active; 'I' for Inactive)
REMARK    1  A    between atoms: C_13  and  C_7 
ROOT
ATOM      1  C   UNL d   1     -49.710  13.858  23.022  0.00  0.00     0.120 A 
ATOM      2  C   UNL d   1     -48.904  13.932  22.866  0.00  0.00     0.058 A 
ATOM      3  N   UNL d   1     -50.060  14.592  22.883  0.00  0.00    -0.195 NA
ATOM      4  S   UNL d   1     -50.016  13.142  23.267  0.00  0.00    -0.072 SA
ATOM      5  C   UNL d   1     -49.521  12.497  23.358  0.00  0.00     0.009 A 
ATOM      6  C   UNL d   1     -48.713  12.567  23.202  0.00  0.00    -0.015 A 
ATOM      7  C   UNL d   1     -48.409  13.287  22.957  0.00  0.00     0.005 A 
ATOM      8  C   UNL d   1     -49.470  15.121  22.641  0.00  0.00     0.311 A 
ATOM      9  S   UNL d   1     -48.754  14.703  22.632  0.00  0.00    -0.024 SA
ATOM     10  C   UNL d   1     -48.215  11.915  23.294  0.00  0.00     0.045 A 
ATOM     11  C   UNL d   1     -49.832  11.774  23.606  0.00  0.00     0.050 A 
ATOM     12  C   UNL d   1     -49.094  12.077  23.399  0.00  0.00     0.018 A 
ATOM     13  O   UNL d   1     -49.574  15.918  22.443  0.00  0.00    -0.258 OA
ATOM     14  C   UNL d   1     -48.526  11.192  23.542  0.00  0.00    -0.026 A 
ATOM     15  C   UNL d   1     -49.334  11.122  23.698  0.00  0.00    -0.026 A 
ENDROOT
BRANCH   7  16
ATOM     16  C   UNL d   1     -47.607  13.360  22.801  0.00  0.00     0.001 A 
ATOM     17  C   UNL d   1     -47.316  13.189  22.043  0.00  0.00     0.003 A 
ATOM     18  C   UNL d   1     -46.517  13.262  21.889  0.00  0.00     0.042 A 
ATOM     19  C   UNL d   1     -45.993  13.507  22.488  0.00  0.00     0.196 A 
ATOM     20  C   UNL d   1     -46.294  13.676  23.243  0.00  0.00     0.042 A 
ATOM     21  O   UNL d   1     -45.187  13.580  22.331  0.00  0.00    -0.287 OA
ATOM     22  C   UNL d   1     -47.096  13.601  23.393  0.00  0.00     0.003 A 
ENDBRANCH   7  16
TORSDOF 1
ENDMDL
MODEL 4
REMARK VINA RESULT:     -10.2      1.436      2.764
REMARK  1 active torsions:
REMARK  status: ('A' for Active; 'I' for Inactive)
REMARK    1  A    between atoms: C_13  and  C_7 
ROOT
ATOM      1  C   UNL d   1     -49.510  12.769  23.348  0.00  0.00     0.120 A 
ATOM      2  C   UNL d   1     -48.705  12.766  23.169  0.00  0.00     0.058 A 
ATOM      3  N   UNL d   1     -49.721  12.003  23.567  0.00  0.00    -0.195 NA
ATOM      4  S   UNL d   1     -49.940  13.461  23.289  0.00  0.00    -0.072 SA
ATOM      5  C   UNL d   1     -49.571  14.151  23.051  0.00  0.00     0.009 A 
ATOM      6  C   UNL d   1     -48.765  14.151  22.872  0.00  0.00    -0.015 A 
ATOM      7  C   UNL d   1     -48.336  13.456  22.932  0.00  0.00     0.005 A 
ATOM      8  C   UNL d   1     -49.047  11.524  23.525  0.00  0.00     0.311 A 
ATOM      9  S   UNL d   1     -48.419  12.006  23.276  0.00  0.00    -0.024 SA
ATOM     10  C   UNL d   1     -48.393  14.849  22.632  0.00  0.00     0.045 A 
ATOM     11  C   UNL d   1     -50.006  14.850  22.992  0.00  0.00     0.050 A 
ATOM     12  C   UNL d   1     -49.227  14.610  22.872  0.00  0.00     0.018 A 
ATOM     13  O   UNL d   1     -49.004  10.716  23.697  0.00  0.00    -0.258 OA
ATOM     14  C   UNL d   1     -48.829  15.548  22.572  0.00  0.00    -0.026 A 
ATOM     15  C   UNL d   1     -49.635  15.547  22.752  0.00  0.00    -0.026 A 
ENDROOT
BRANCH   7  16
ATOM     16  C   UNL d   1     -47.535  13.453  22.754  0.00  0.00     0.001 A 
ATOM     17  C   UNL d   1     -47.284  13.267  21.985  0.00  0.00     0.003 A 
ATOM     18  C   UNL d   1     -46.486  13.264  21.809  0.00  0.00     0.042 A 
ATOM     19  C   UNL d   1     -45.924  13.446  22.395  0.00  0.00     0.196 A 
ATOM     20  C   UNL d   1     -46.186  13.631  23.161  0.00  0.00     0.042 A 
ATOM     21  O   UNL d   1     -45.119  13.443  22.215  0.00  0.00    -0.287 OA
ATOM     22  C   UNL d   1     -46.986  13.633  23.333  0.00  0.00     0.003 A 
ENDBRANCH   7  16
TORSDOF 1
ENDMDL
MODEL 5
REMARK VINA RESULT:      -9.9      1.737      2.712
REMARK  1 active torsions:
REMARK  status: ('A' for Active; 'I' for Inactive)
REMARK    1  A    between atoms: C_13  and  C_7 
ROOT
ATOM      1  C   UNL d   1     -46.758  13.741  22.916  0.00  0.00     0.120 A 
ATOM      2  C   UNL d   1     -47.562  13.582  22.827  0.00  0.00     0.058 A 
ATOM      3  N   UNL d   1     -46.638  14.534  22.727  0.00  0.00    -0.195 NA
ATOM      4  S   UNL d   1     -46.248  13.150  23.154  0.00  0.00    -0.072 SA
ATOM      5  C   UNL d   1     -46.535  12.399  23.305  0.00  0.00     0.009 A 
ATOM      6  C   UNL d   1     -47.340  12.236  23.217  0.00  0.00    -0.015 A 
ATOM      7  C   UNL d   1     -47.850  12.831  22.978  0.00  0.00     0.005 A 
ATOM      8  C   UNL d   1     -47.368  14.868  22.521  0.00  0.00     0.311 A 
ATOM      9  S   UNL d   1     -47.938  14.269  22.586  0.00  0.00    -0.024 SA
ATOM     10  C   UNL d   1     -47.629  11.478  23.370  0.00  0.00     0.045 A 
ATOM     11  C   UNL d   1     -46.018  11.803  23.545  0.00  0.00     0.050 A 
ATOM     12  C   UNL d   1     -46.824  11.880  23.394  0.00  0.00     0.018 A 
ATOM     13  O   UNL d   1     -47.505  15.651  22.293  0.00  0.00    -0.258 OA
ATOM     14  C   UNL d   1     -47.111  10.881  23.610  0.00  0.00    -0.026 A 
ATOM     15  C   UNL d   1     -46.306  11.044  23.698  0.00  0.00    -0.026 A 
ENDROOT
BRANCH   7  16
ATOM     16  C   UNL d   1     -48.650  12.673  22.890  0.00  0.00     0.001 A 
ATOM     17  C   UNL d   1     -49.163  12.766  23.537  0.00  0.00     0.003 A 
ATOM     18  C   UNL d   1     -49.960  12.608  23.448  0.00  0.00     0.042 A 
ATOM     19  C   UNL d   1     -50.260  12.354  22.714  0.00  0.00     0.196 A 
ATOM     20  C   UNL d   1     -49.738  12.264  22.074  0.00  0.00     0.042 A 
ATOM     21  O   UNL d   1     -51.064  12.195  22.627  0.00  0.00    -0.287 OA
ATOM     22  C   UNL d   1     -48.941  12.423  22.168  0.00  0.00     0.003 A 
ENDBRANCH   7  16
TORSDOF 1
ENDMDL
MODEL 6
REMARK VINA RESULT:      -9.8      1.418      2.767
REMARK  1 active torsions:
REMARK  status: ('A' for Active; 'I' for Inactive)
REMARK    1  A    between atoms: C_13  and  C_7 
ROOT
ATOM      1  C   UNL d   1     -48.261  15.120  22.594  0.00  0.00     0.120 A 
ATOM      2  C   UNL d   1     -48.715  14.437  22.687  0.00  0.00     0.058 A 
ATOM      3  N   UNL d   1     -48.780  15.759  22.546  0.00  0.00    -0.195 NA
ATOM      4  S   UNL d   1     -47.447  15.071  22.566  0.00  0.00    -0.072 SA
ATOM      5  C   UNL d   1     -47.081  14.342  22.631  0.00  0.00     0.009 A 
ATOM      6  C   UNL d   1     -47.531  13.656  22.724  0.00  0.00    -0.015 A 
ATOM      7  C   UNL d   1     -48.348  13.709  22.751  0.00  0.00     0.005 A 
ATOM      8  C   UNL d   1     -49.555  15.473  22.608  0.00  0.00     0.311 A 
ATOM      9  S   UNL d   1     -49.506  14.650  22.696  0.00  0.00    -0.024 SA
ATOM     10  C   UNL d   1     -47.159  12.922  22.789  0.00  0.00     0.045 A 
ATOM     11  C   UNL d   1     -46.257  14.294  22.603  0.00  0.00     0.050 A 
ATOM     12  C   UNL d   1     -46.892  13.775  22.685  0.00  0.00     0.018 A 
ATOM     13  O   UNL d   1     -50.249  15.922  22.588  0.00  0.00    -0.258 OA
ATOM     14  C   UNL d   1     -46.336  12.873  22.761  0.00  0.00    -0.026 A 
ATOM     15  C   UNL d   1     -45.885  13.559  22.668  0.00  0.00    -0.026 A 
ENDROOT
BRANCH   7  16
ATOM     16  C   UNL d   1     -48.798  13.029  22.844  0.00  0.00     0.001 A 
ATOM     17  C   UNL d   1     -48.969  12.748  23.606  0.00  0.00     0.003 A 
ATOM     18  C   UNL d   1     -49.418  12.071  23.697  0.00  0.00     0.042 A 
ATOM     19  C   UNL d   1     -49.705  11.662  23.030  0.00  0.00     0.196 A 
ATOM     20  C   UNL d   1     -49.528  11.953  22.272  0.00  0.00     0.042 A 
ATOM     21  O   UNL d   1     -50.157  10.980  23.124  0.00  0.00    -0.287 OA
ATOM     22  C   UNL d   1     -49.078  12.631  22.186  0.00  0.00     0.003 A 
ENDBRANCH   7  16
TORSDOF 1
ENDMDL
MODEL 7
REMARK VINA RESULT:      -8.9      1.402      2.461
REMARK  1 active torsions:
REMARK  status: ('A' for Active; 'I' for Inactive)
REMARK    1  A    between atoms: C_13  and  C_7 
ROOT
ATOM      1  C   UNL d   1     -47.065  12.468  23.262  0.00  0.00     0.120 A 
ATOM      2  C   UNL d   1     -47.476  13.151  23.050  0.00  0.00     0.058 A 
ATOM      3  N   UNL d   1     -46.259  12.634  23.206  0.00  0.00    -0.195 NA
ATOM      4  S   UNL d   1     -47.473  11.794  23.475  0.00  0.00    -0.072 SA
ATOM      5  C   UNL d   1     -48.291  11.796  23.478  0.00  0.00     0.009 A 
ATOM      6  C   UNL d   1     -48.706  12.478  23.266  0.00  0.00    -0.015 A 
ATOM      7  C   UNL d   1     -48.294  13.153  23.053  0.00  0.00     0.005 A 
ATOM      8  C   UNL d   1     -46.170  13.420  22.959  0.00  0.00     0.311 A 
ATOM      9  S   UNL d   1     -46.932  13.734  22.864  0.00  0.00    -0.024 SA
ATOM     10  C   UNL d   1     -49.532  12.479  23.270  0.00  0.00     0.045 A 
ATOM     11  C   UNL d   1     -48.702  11.114  23.694  0.00  0.00     0.050 A 
ATOM     12  C   UNL d   1     -48.885  11.881  23.455  0.00  0.00     0.018 A 
ATOM     13  O   UNL d   1     -45.457  13.819  22.831  0.00  0.00    -0.258 OA
ATOM     14  C   UNL d   1     -49.943  11.796  23.486  0.00  0.00    -0.026 A 
ATOM     15  C   UNL d   1     -49.528  11.114  23.698  0.00  0.00    -0.026 A 
ENDROOT
BRANCH   7  16
ATOM     16  C   UNL d   1     -48.703  13.832  22.841  0.00  0.00     0.001 A 
ATOM     17  C   UNL d   1     -48.912  13.958  22.048  0.00  0.00     0.003 A 
ATOM     18  C   UNL d   1     -49.319  14.635  21.839  0.00  0.00     0.042 A 
ATOM     19  C   UNL d   1     -49.527  15.197  22.416  0.00  0.00     0.196 A 
ATOM     20  C   UNL d   1     -49.314  15.061  23.207  0.00  0.00     0.042 A 
ATOM     21  O   UNL d   1     -49.938  15.879  22.202  0.00  0.00    -0.287 OA
ATOM     22  C   UNL d   1     -48.905  14.382  23.412  0.00  0.00     0.003 A 
ENDBRANCH   7  16
TORSDOF 1
ENDMDL
MODEL 8
REMARK VINA RESULT:      -8.3      1.857      3.665
REMARK  1 active torsions:
REMARK  status: ('A' for Active; 'I' for Inactive)
REMARK    1  A    between atoms: C_13  and  C_7 
ROOT
ATOM      1  C   UNL d   1     -48.262  15.169  22.591  0.00  0.00     0.120 A 
ATOM      2  C   UNL d   1     -48.121  14.362  22.685  0.00  0.00     0.058 A 
ATOM      3  N   UNL d   1     -47.531  15.546  22.535  0.00  0.00    -0.195 NA
ATOM      4  S   UNL d   1     -49.028  15.451  22.569  0.00  0.00    -0.072 SA
ATOM      5  C   UNL d   1     -49.656  14.931  22.641  0.00  0.00     0.009 A 
ATOM      6  C   UNL d   1     -49.518  14.122  22.735  0.00  0.00    -0.015 A 
ATOM      7  C   UNL d   1     -48.749  13.842  22.756  0.00  0.00     0.005 A 
ATOM      8  C   UNL d   1     -46.936  14.973  22.594  0.00  0.00     0.311 A 
ATOM      9  S   UNL d   1     -47.311  14.239  22.687  0.00  0.00    -0.024 SA
ATOM     10  C   UNL d   1     -50.153  13.599  22.806  0.00  0.00     0.045 A 
ATOM     11  C   UNL d   1     -50.430  15.217  22.618  0.00  0.00     0.050 A 
ATOM     12  C   UNL d   1     -50.056  14.487  22.699  0.00  0.00     0.018 A 
ATOM     13  O   UNL d   1     -46.120  15.105  22.566  0.00  0.00    -0.258 OA
ATOM     14  C   UNL d   1     -50.927  13.885  22.784  0.00  0.00    -0.026 A 
ATOM     15  C   UNL d   1     -51.064  14.694  22.690  0.00  0.00    -0.026 A 
ENDROOT
BRANCH   7  16
ATOM     16  C   UNL d   1     -48.608  13.039  22.849  0.00  0.00     0.001 A 
ATOM     17  C   UNL d   1     -48.554  12.549  22.181  0.00  0.00     0.003 A 
ATOM     18  C   UNL d   1     -48.414  11.750  22.275  0.00  0.00     0.042 A 
ATOM     19  C   UNL d   1     -48.326  11.424  23.036  0.00  0.00     0.196 A 
ATOM     20  C   UNL d   1     -48.382  11.923  23.698  0.00  0.00     0.042 A 
ATOM     21  O   UNL d   1     -48.185  10.617  23.128  0.00  0.00    -0.287 OA
ATOM     22  C   UNL d   1     -48.522  12.723  23.599  0.00  0.00     0.003 A 
ENDBRANCH   7  16
TORSDOF 1
ENDMDL
