MODEL 1
REMARK VINA RESULT:      14.6      0.000      0.000
REMARK  5 active torsions:
REMARK  status: ('A' for Active; 'I' for Inactive)
REMARK    1  A    between atoms: C_4  and  C_1 
REMARK    2  A    between atoms: S_2  and  C_4 
REMARK    3  A    between atoms: C_8  and  S_2 
REMARK    4  A    between atoms: N_5  and  C_3 
REMARK    5  A    between atoms: C_9  and  C_4 
ROOT
ATOM      1  C   UNL d   1     -41.691-121.668 -51.849  0.00  0.00     0.128 A 
ATOM      2  C   UNL d   1     -41.840-121.496 -51.062  0.00  0.00     0.166 A 
ATOM      3  N   UNL d   1     -41.474-121.071 -52.370  0.00  0.00    -0.240 NA
ATOM      4  N   UNL d   1     -41.772-120.725 -50.790  0.00  0.00    -0.225 NA
ATOM      5  C   UNL d   1     -41.408-120.304 -52.094  0.00  0.00     0.099 A 
ATOM      6  C   UNL d   1     -41.555-120.124 -51.309  0.00  0.00     0.101 A 
ATOM      7  C   UNL d   1     -41.486-119.355 -51.045  0.00  0.00     0.021 A 
ATOM      8  C   UNL d   1     -41.189-119.703 -52.617  0.00  0.00     0.021 A 
ATOM      9  C   UNL d   1     -41.270-118.761 -51.559  0.00  0.00     0.002 A 
ATOM     10  C   UNL d   1     -41.123-118.937 -52.344  0.00  0.00     0.002 A 
ENDROOT
BRANCH   1  11
ATOM     11  C   UNL d   1     -41.757-122.436 -52.125  0.00  0.00     0.129 C 
BRANCH  11  12
ATOM     12  S   UNL d   1     -41.796-122.561 -53.002  0.00  0.00     0.213 S 
ATOM     13  O   UNL d   1     -41.162-123.057 -53.371  0.00  0.00    -0.217 OA
ATOM     14  O   UNL d   1     -41.126-122.973 -52.743  0.00  0.00    -0.217 OA
BRANCH  12  15
ATOM     15  C   UNL d   1     -42.322-122.302 -53.590  0.00  0.00     0.088 A 
ATOM     16  C   UNL d   1     -42.051-122.219 -54.371  0.00  0.00     0.011 A 
ATOM     17  C   UNL d   1     -42.579-121.962 -54.951  0.00  0.00     0.001 A 
ATOM     18  C   UNL d   1     -42.321-121.876 -55.725  0.00  0.00     0.000 C 
ATOM     19  C   UNL d   1     -43.363-121.790 -54.761  0.00  0.00     0.000 A 
ATOM     20  C   UNL d   1     -43.623-121.877 -53.975  0.00  0.00     0.001 A 
ATOM     21  C   UNL d   1     -43.095-122.133 -53.400  0.00  0.00     0.011 A 
ENDBRANCH  12  15
ENDBRANCH  11  12
BRANCH  11  22
ATOM     22  C   UNL d   1     -41.798-123.181 -51.690  0.00  0.00     0.135 C 
ATOM     23  N   UNL d   1     -41.187-123.814 -51.633  0.00  0.00    -0.146 N 
ENDBRANCH  11  22
ENDBRANCH   1  11
BRANCH   2  24
ATOM     24  N   UNL d   1     -42.058-122.101 -50.543  0.00  0.00    -0.284 N 
ATOM     25  C   UNL d   1     -42.856-122.340 -50.501  0.00  0.00     0.106 A 
ATOM     26  C   UNL d   1     -43.066-122.951 -49.974  0.00  0.00     0.118 A 
ATOM     27  C   UNL d   1     -43.864-123.191 -49.933  0.00  0.00     0.028 C 
ATOM     28  O   UNL d   1     -42.490-123.316 -49.499  0.00  0.00    -0.304 OA
ATOM     29  C   UNL d   1     -41.704-123.069 -49.550  0.00  0.00     0.118 A 
ATOM     30  C   UNL d   1     -41.482-122.465 -50.067  0.00  0.00     0.106 A 
ATOM     31  C   UNL d   1     -41.125-123.431 -49.076  0.00  0.00     0.028 C 
ENDBRANCH   2  24
TORSDOF 5
ENDMDL
MODEL 2
REMARK VINA RESULT:      16.2      1.056      3.590
REMARK  5 active torsions:
REMARK  status: ('A' for Active; 'I' for Inactive)
REMARK    1  A    between atoms: C_4  and  C_1 
REMARK    2  A    between atoms: S_2  and  C_4 
REMARK    3  A    between atoms: C_8  and  S_2 
REMARK    4  A    between atoms: N_5  and  C_3 
REMARK    5  A    between atoms: C_9  and  C_4 
ROOT
ATOM      1  C   UNL d   1     -41.748-121.495 -52.706  0.00  0.00     0.128 A 
ATOM      2  C   UNL d   1     -41.828-121.228 -53.476  0.00  0.00     0.166 A 
ATOM      3  N   UNL d   1     -41.551-120.972 -52.103  0.00  0.00    -0.240 NA
ATOM      4  N   UNL d   1     -41.711-120.435 -53.649  0.00  0.00    -0.225 NA
ATOM      5  C   UNL d   1     -41.436-120.182 -52.282  0.00  0.00     0.099 A 
ATOM      6  C   UNL d   1     -41.514-119.907 -53.049  0.00  0.00     0.101 A 
ATOM      7  C   UNL d   1     -41.397-119.116 -53.216  0.00  0.00     0.021 A 
ATOM      8  C   UNL d   1     -41.239-119.654 -51.678  0.00  0.00     0.021 A 
ATOM      9  C   UNL d   1     -41.202-118.595 -52.621  0.00  0.00     0.002 A 
ATOM     10  C   UNL d   1     -41.124-118.866 -51.853  0.00  0.00     0.002 A 
ENDROOT
BRANCH   1  11
ATOM     11  C   UNL d   1     -41.863-122.285 -52.527  0.00  0.00     0.129 C 
BRANCH  11  12
ATOM     12  S   UNL d   1     -41.879-122.521 -51.672  0.00  0.00     0.213 S 
ATOM     13  O   UNL d   1     -41.144-122.883 -51.335  0.00  0.00    -0.217 OA
ATOM     14  O   UNL d   1     -41.123-122.718 -51.948  0.00  0.00    -0.217 OA
BRANCH  12  15
ATOM     15  C   UNL d   1     -42.461-122.476 -51.082  0.00  0.00     0.088 A 
ATOM     16  C   UNL d   1     -42.293-122.767 -50.321  0.00  0.00     0.011 A 
ATOM     17  C   UNL d   1     -42.876-122.720 -49.739  0.00  0.00     0.001 A 
ATOM     18  C   UNL d   1     -42.720-123.005 -48.986  0.00  0.00     0.000 C 
ATOM     19  C   UNL d   1     -43.613-122.389 -49.906  0.00  0.00     0.000 A 
ATOM     20  C   UNL d   1     -43.769-122.101 -50.670  0.00  0.00     0.001 A 
ATOM     21  C   UNL d   1     -43.187-122.149 -51.249  0.00  0.00     0.011 A 
ENDBRANCH  12  15
ENDBRANCH  11  12
BRANCH  11  22
ATOM     22  C   UNL d   1     -41.976-122.962 -53.051  0.00  0.00     0.135 C 
ATOM     23  N   UNL d   1     -42.044-123.815 -52.835  0.00  0.00    -0.146 N 
ENDBRANCH  11  22
ENDBRANCH   1  11
BRANCH   2  24
ATOM     24  N   UNL d   1     -42.026-121.759 -54.077  0.00  0.00    -0.284 N 
ATOM     25  C   UNL d   1     -41.470-122.331 -54.321  0.00  0.00     0.106 A 
ATOM     26  C   UNL d   1     -41.679-122.863 -54.928  0.00  0.00     0.118 A 
ATOM     27  C   UNL d   1     -41.123-123.435 -55.172  0.00  0.00     0.028 C 
ATOM     28  O   UNL d   1     -42.429-122.823 -55.284  0.00  0.00    -0.304 OA
ATOM     29  C   UNL d   1     -42.969-122.252 -55.033  0.00  0.00     0.118 A 
ATOM     30  C   UNL d   1     -42.775-121.720 -54.433  0.00  0.00     0.106 A 
ATOM     31  C   UNL d   1     -43.720-122.210 -55.387  0.00  0.00     0.028 C 
ENDBRANCH   2  24
TORSDOF 5
ENDMDL
