MODEL 1
REMARK VINA RESULT:      -5.3      0.000      0.000
REMARK  7 active torsions:
REMARK  status: ('A' for Active; 'I' for Inactive)
REMARK    1  A    between atoms: N_7  and  C_2 
REMARK    2  A    between atoms: N_9  and  C_3 
REMARK    3  A    between atoms: C_14  and  N_7 
REMARK    4  A    between atoms: C_8  and  C_12 
REMARK    5  A    between atoms: O_19  and  C_8 
REMARK    6  A    between atoms: C_17  and  N_9 
REMARK    7  A    between atoms: C_29  and  O_19 
ROOT
ATOM      1  N   UNL d   1     -39.307  14.385  19.992  0.00  0.00    -0.038 NA
ATOM      2  C   UNL d   1     -38.633  14.015  19.675  0.00  0.00     0.202 A 
ATOM      3  C   UNL d   1     -40.001  14.442  19.543  0.00  0.00     0.753 A 
ATOM      4  N   UNL d   1     -40.018  14.125  18.770  0.00  0.00    -0.038 NA
ATOM      5  C   UNL d   1     -38.654  13.704  18.912  0.00  0.00     0.154 A 
ATOM      6  C   UNL d   1     -39.347  13.760  18.460  0.00  0.00     0.202 A 
ATOM      7  N   UNL d   1     -37.975  13.340  18.612  0.00  0.00    -0.236 NA
ATOM      8  N   UNL d   1     -39.360  13.446  17.699  0.00  0.00    -0.222 NA
ATOM      9  C   UNL d   1     -37.997  13.025  17.840  0.00  0.00     0.120 A 
ATOM     10  C   UNL d   1     -38.682  13.076  17.384  0.00  0.00     0.121 A 
ENDROOT
BRANCH   3  11
ATOM     11  N   UNL d   1     -40.663  14.805  19.854  0.00  0.00    -0.059 NA
BRANCH  11  12
ATOM     12  C   UNL d   1     -41.239  14.358  20.242  0.00  0.00     0.100 A 
ATOM     13  C   UNL d   1     -41.667  13.795  19.847  0.00  0.00     0.020 A 
ATOM     14  C   UNL d   1     -42.245  13.347  20.237  0.00  0.00     0.007 A 
ATOM     15  C   UNL d   1     -42.390  13.473  21.042  0.00  0.00     0.064 A 
ATOM     16  C   UNL d   1     -41.957  14.047  21.454  0.00  0.00     0.007 A 
ATOM     17  C   UNL d   1     -41.383  14.489  21.059  0.00  0.00     0.020 A 
BRANCH  15  18
ATOM     18  C   UNL d   1     -42.960  13.031  21.425  0.00  0.00     0.300 C 
ATOM     19  O   UNL d   1     -42.764  12.289  21.742  0.00  0.00    -0.259 OA
BRANCH  18  20
ATOM     20  O   UNL d   1     -43.733  13.312  21.503  0.00  0.00    -0.271 OA
BRANCH  20  21
ATOM     21  C   UNL d   1     -44.322  12.833  21.826  0.00  0.00     0.126 C 
ATOM     22  C   UNL d   1     -45.073  13.139  21.949  0.00  0.00     0.029 C 
ENDBRANCH  20  21
ENDBRANCH  18  20
ENDBRANCH  15  18
ENDBRANCH  11  12
ENDBRANCH   3  11
BRANCH   2  23
ATOM     23  N   UNL d   1     -37.940  13.960  20.127  0.00  0.00    -0.225 NA
BRANCH  23  24
ATOM     24  C   UNL d   1     -37.985  13.834  20.939  0.00  0.00     0.083 A 
ATOM     25  C   UNL d   1     -38.076  13.062  21.235  0.00  0.00     0.020 A 
ATOM     26  C   UNL d   1     -38.121  12.941  22.048  0.00  0.00     0.013 A 
ATOM     27  C   UNL d   1     -38.076  13.577  22.572  0.00  0.00     0.058 A 
ATOM     28  C   UNL d   1     -37.985  14.349  22.276  0.00  0.00     0.013 A 
ATOM     29 CL   UNL d   1     -38.120  13.465  23.386  0.00  0.00    -0.082 Cl
ATOM     30  C   UNL d   1     -37.940  14.472  21.461  0.00  0.00     0.020 A 
ENDBRANCH  23  24
ENDBRANCH   2  23
TORSDOF 7
ENDMDL
MODEL 2
REMARK VINA RESULT:      -5.2      3.821      6.053
REMARK  7 active torsions:
REMARK  status: ('A' for Active; 'I' for Inactive)
REMARK    1  A    between atoms: N_7  and  C_2 
REMARK    2  A    between atoms: N_9  and  C_3 
REMARK    3  A    between atoms: C_14  and  N_7 
REMARK    4  A    between atoms: C_8  and  C_12 
REMARK    5  A    between atoms: O_19  and  C_8 
REMARK    6  A    between atoms: C_17  and  N_9 
REMARK    7  A    between atoms: C_29  and  O_19 
ROOT
ATOM      1  N   UNL d   1     -44.358  12.862  21.994  0.00  0.00    -0.038 NA
ATOM      2  C   UNL d   1     -43.885  12.182  22.074  0.00  0.00     0.202 A 
ATOM      3  C   UNL d   1     -45.038  12.954  22.458  0.00  0.00     0.753 A 
ATOM      4  N   UNL d   1     -45.245  12.359  23.006  0.00  0.00    -0.038 NA
ATOM      5  C   UNL d   1     -44.094  11.597  22.615  0.00  0.00     0.154 A 
ATOM      6  C   UNL d   1     -44.775  11.686  23.082  0.00  0.00     0.202 A 
ATOM      7  N   UNL d   1     -43.614  10.927  22.683  0.00  0.00    -0.236 NA
ATOM      8  N   UNL d   1     -44.976  11.097  23.621  0.00  0.00    -0.222 NA
ATOM      9  C   UNL d   1     -43.825  10.335  23.231  0.00  0.00     0.120 A 
ATOM     10  C   UNL d   1     -44.500  10.416  23.698  0.00  0.00     0.121 A 
ENDROOT
BRANCH   3  11
ATOM     11  N   UNL d   1     -45.501  13.622  22.380  0.00  0.00    -0.059 NA
BRANCH  11  12
ATOM     12  C   UNL d   1     -46.323  13.555  22.337  0.00  0.00     0.100 A 
ATOM     13  C   UNL d   1     -46.684  13.243  21.683  0.00  0.00     0.020 A 
ATOM     14  C   UNL d   1     -47.509  13.177  21.640  0.00  0.00     0.007 A 
ATOM     15  C   UNL d   1     -47.975  13.432  22.275  0.00  0.00     0.064 A 
ATOM     16  C   UNL d   1     -47.615  13.753  22.948  0.00  0.00     0.007 A 
ATOM     17  C   UNL d   1     -46.793  13.816  22.983  0.00  0.00     0.020 A 
BRANCH  15  18
ATOM     18  C   UNL d   1     -48.788  13.366  22.232  0.00  0.00     0.300 C 
ATOM     19  O   UNL d   1     -49.228  13.931  21.811  0.00  0.00    -0.259 OA
BRANCH  18  20
ATOM     20  O   UNL d   1     -49.182  12.742  22.604  0.00  0.00    -0.271 OA
BRANCH  20  21
ATOM     21  C   UNL d   1     -50.007  12.706  22.598  0.00  0.00     0.126 C 
ATOM     22  C   UNL d   1     -50.394  12.173  23.089  0.00  0.00     0.029 C 
ENDBRANCH  20  21
ENDBRANCH  18  20
ENDBRANCH  15  18
ENDBRANCH  11  12
ENDBRANCH   3  11
BRANCH   2  23
ATOM     23  N   UNL d   1     -43.205  12.092  21.608  0.00  0.00    -0.225 NA
BRANCH  23  24
ATOM     24  C   UNL d   1     -42.736  12.746  21.432  0.00  0.00     0.083 A 
ATOM     25  C   UNL d   1     -42.912  13.217  20.769  0.00  0.00     0.020 A 
ATOM     26  C   UNL d   1     -42.440  13.869  20.598  0.00  0.00     0.013 A 
ATOM     27  C   UNL d   1     -41.795  14.060  21.076  0.00  0.00     0.058 A 
ATOM     28  C   UNL d   1     -41.620  13.590  21.739  0.00  0.00     0.013 A 
ATOM     29 CL   UNL d   1     -41.318  14.711  20.912  0.00  0.00    -0.082 Cl
ATOM     30  C   UNL d   1     -42.092  12.935  21.912  0.00  0.00     0.020 A 
ENDBRANCH  23  24
ENDBRANCH   2  23
TORSDOF 7
ENDMDL
MODEL 3
REMARK VINA RESULT:      -4.4      3.497      6.534
REMARK  7 active torsions:
REMARK  status: ('A' for Active; 'I' for Inactive)
REMARK    1  A    between atoms: N_7  and  C_2 
REMARK    2  A    between atoms: N_9  and  C_3 
REMARK    3  A    between atoms: C_14  and  N_7 
REMARK    4  A    between atoms: C_8  and  C_12 
REMARK    5  A    between atoms: O_19  and  C_8 
REMARK    6  A    between atoms: C_17  and  N_9 
REMARK    7  A    between atoms: C_29  and  O_19 
ROOT
ATOM      1  N   UNL d   1     -44.765  12.766  22.205  0.00  0.00    -0.038 NA
ATOM      2  C   UNL d   1     -44.989  12.231  22.802  0.00  0.00     0.202 A 
ATOM      3  C   UNL d   1     -44.079  12.631  21.760  0.00  0.00     0.753 A 
ATOM      4  N   UNL d   1     -43.616  11.954  21.915  0.00  0.00    -0.038 NA
ATOM      5  C   UNL d   1     -44.528  11.564  22.951  0.00  0.00     0.154 A 
ATOM      6  C   UNL d   1     -43.841  11.426  22.507  0.00  0.00     0.202 A 
ATOM      7  N   UNL d   1     -44.764  11.042  23.547  0.00  0.00    -0.236 NA
ATOM      8  N   UNL d   1     -43.386  10.757  22.662  0.00  0.00    -0.222 NA
ATOM      9  C   UNL d   1     -44.298  10.368  23.698  0.00  0.00     0.120 A 
ATOM     10  C   UNL d   1     -43.613  10.223  23.261  0.00  0.00     0.121 A 
ENDROOT
BRANCH   3  11
ATOM     11  N   UNL d   1     -43.860  13.156  21.174  0.00  0.00    -0.059 NA
BRANCH  11  12
ATOM     12  C   UNL d   1     -43.080  13.422  21.125  0.00  0.00     0.100 A 
ATOM     13  C   UNL d   1     -42.513  12.987  20.743  0.00  0.00     0.020 A 
ATOM     14  C   UNL d   1     -41.730  13.255  20.694  0.00  0.00     0.007 A 
ATOM     15  C   UNL d   1     -41.520  13.977  21.040  0.00  0.00     0.064 A 
ATOM     16  C   UNL d   1     -42.093  14.428  21.433  0.00  0.00     0.007 A 
ATOM     17  C   UNL d   1     -42.870  14.155  21.478  0.00  0.00     0.020 A 
BRANCH  15  18
ATOM     18  C   UNL d   1     -40.748  14.240  20.992  0.00  0.00     0.300 C 
ATOM     19  O   UNL d   1     -40.503  14.686  20.336  0.00  0.00    -0.259 OA
BRANCH  18  20
ATOM     20  O   UNL d   1     -40.204  14.067  21.589  0.00  0.00    -0.271 OA
BRANCH  20  21
ATOM     21  C   UNL d   1     -39.438  14.373  21.558  0.00  0.00     0.126 C 
ATOM     22  C   UNL d   1     -38.891  14.159  22.131  0.00  0.00     0.029 C 
ENDBRANCH  20  21
ENDBRANCH  18  20
ENDBRANCH  15  18
ENDBRANCH  11  12
ENDBRANCH   3  11
BRANCH   2  23
ATOM     23  N   UNL d   1     -45.675  12.368  23.246  0.00  0.00    -0.225 NA
BRANCH  23  24
ATOM     24  C   UNL d   1     -46.236  12.912  22.982  0.00  0.00     0.083 A 
ATOM     25  C   UNL d   1     -46.855  12.661  22.486  0.00  0.00     0.020 A 
ATOM     26  C   UNL d   1     -47.413  13.208  22.226  0.00  0.00     0.013 A 
ATOM     27  C   UNL d   1     -47.364  14.000  22.451  0.00  0.00     0.058 A 
ATOM     28  C   UNL d   1     -46.745  14.250  22.947  0.00  0.00     0.013 A 
ATOM     29 CL   UNL d   1     -47.917  14.553  22.195  0.00  0.00    -0.082 Cl
ATOM     30  C   UNL d   1     -46.185  13.703  23.209  0.00  0.00     0.020 A 
ENDBRANCH  23  24
ENDBRANCH   2  23
TORSDOF 7
ENDMDL
MODEL 4
REMARK VINA RESULT:      -4.4      2.327      3.578
REMARK  7 active torsions:
REMARK  status: ('A' for Active; 'I' for Inactive)
REMARK    1  A    between atoms: N_7  and  C_2 
REMARK    2  A    between atoms: N_9  and  C_3 
REMARK    3  A    between atoms: C_14  and  N_7 
REMARK    4  A    between atoms: C_8  and  C_12 
REMARK    5  A    between atoms: O_19  and  C_8 
REMARK    6  A    between atoms: C_17  and  N_9 
REMARK    7  A    between atoms: C_29  and  O_19 
ROOT
ATOM      1  N   UNL d   1     -41.041  14.568  20.159  0.00  0.00    -0.038 NA
ATOM      2  C   UNL d   1     -40.557  15.222  20.332  0.00  0.00     0.202 A 
ATOM      3  C   UNL d   1     -41.095  13.936  20.693  0.00  0.00     0.753 A 
ATOM      4  N   UNL d   1     -40.659  13.962  21.405  0.00  0.00    -0.038 NA
ATOM      5  C   UNL d   1     -40.128  15.243  21.036  0.00  0.00     0.154 A 
ATOM      6  C   UNL d   1     -40.180  14.611  21.572  0.00  0.00     0.202 A 
ATOM      7  N   UNL d   1     -39.651  15.899  21.193  0.00  0.00    -0.236 NA
ATOM      8  N   UNL d   1     -39.748  14.640  22.273  0.00  0.00    -0.222 NA
ATOM      9  C   UNL d   1     -39.218  15.920  21.905  0.00  0.00     0.120 A 
ATOM     10  C   UNL d   1     -39.264  15.296  22.443  0.00  0.00     0.121 A 
ENDROOT
BRANCH   3  11
ATOM     11  N   UNL d   1     -41.571  13.295  20.523  0.00  0.00    -0.059 NA
BRANCH  11  12
ATOM     12  C   UNL d   1     -42.282  13.186  20.927  0.00  0.00     0.100 A 
ATOM     13  C   UNL d   1     -42.910  13.684  20.810  0.00  0.00     0.020 A 
ATOM     14  C   UNL d   1     -43.625  13.574  21.216  0.00  0.00     0.007 A 
ATOM     15  C   UNL d   1     -43.701  12.948  21.750  0.00  0.00     0.064 A 
ATOM     16  C   UNL d   1     -43.064  12.433  21.877  0.00  0.00     0.007 A 
ATOM     17  C   UNL d   1     -42.356  12.549  21.469  0.00  0.00     0.020 A 
BRANCH  15  18
ATOM     18  C   UNL d   1     -44.405  12.840  22.150  0.00  0.00     0.300 C 
ATOM     19  O   UNL d   1     -44.551  12.126  22.547  0.00  0.00    -0.259 OA
BRANCH  18  20
ATOM     20  O   UNL d   1     -44.978  13.435  22.166  0.00  0.00    -0.271 OA
BRANCH  20  21
ATOM     21  C   UNL d   1     -45.756  13.262  22.379  0.00  0.00     0.126 C 
ATOM     22  C   UNL d   1     -46.189  13.805  22.817  0.00  0.00     0.029 C 
ENDBRANCH  20  21
ENDBRANCH  18  20
ENDBRANCH  15  18
ENDBRANCH  11  12
ENDBRANCH   3  11
BRANCH   2  23
ATOM     23  N   UNL d   1     -40.505  15.853  19.797  0.00  0.00    -0.225 NA
BRANCH  23  24
ATOM     24  C   UNL d   1     -40.519  15.709  18.986  0.00  0.00     0.083 A 
ATOM     25  C   UNL d   1     -39.866  15.350  18.617  0.00  0.00     0.020 A 
ATOM     26  C   UNL d   1     -39.884  15.208  17.806  0.00  0.00     0.013 A 
ATOM     27  C   UNL d   1     -40.544  15.417  17.357  0.00  0.00     0.058 A 
ATOM     28  C   UNL d   1     -41.197  15.776  17.726  0.00  0.00     0.013 A 
ATOM     29 CL   UNL d   1     -40.571  15.279  16.546  0.00  0.00    -0.082 Cl
ATOM     30  C   UNL d   1     -41.180  15.919  18.539  0.00  0.00     0.020 A 
ENDBRANCH  23  24
ENDBRANCH   2  23
TORSDOF 7
ENDMDL
MODEL 5
REMARK VINA RESULT:      -4.3      1.613      2.869
REMARK  7 active torsions:
REMARK  status: ('A' for Active; 'I' for Inactive)
REMARK    1  A    between atoms: N_7  and  C_2 
REMARK    2  A    between atoms: N_9  and  C_3 
REMARK    3  A    between atoms: C_14  and  N_7 
REMARK    4  A    between atoms: C_8  and  C_12 
REMARK    5  A    between atoms: O_19  and  C_8 
REMARK    6  A    between atoms: C_17  and  N_9 
REMARK    7  A    between atoms: C_29  and  O_19 
ROOT
ATOM      1  N   UNL d   1     -39.541  14.507  20.248  0.00  0.00    -0.038 NA
ATOM      2  C   UNL d   1     -38.804  14.590  20.624  0.00  0.00     0.202 A 
ATOM      3  C   UNL d   1     -40.216  14.868  20.567  0.00  0.00     0.753 A 
ATOM      4  N   UNL d   1     -40.148  15.315  21.270  0.00  0.00    -0.038 NA
ATOM      5  C   UNL d   1     -38.743  15.031  21.317  0.00  0.00     0.154 A 
ATOM      6  C   UNL d   1     -39.416  15.394  21.639  0.00  0.00     0.202 A 
ATOM      7  N   UNL d   1     -38.003  15.104  21.679  0.00  0.00    -0.236 NA
ATOM      8  N   UNL d   1     -39.346  15.834  22.332  0.00  0.00    -0.222 NA
ATOM      9  C   UNL d   1     -37.941  15.551  22.380  0.00  0.00     0.120 A 
ATOM     10  C   UNL d   1     -38.606  15.915  22.707  0.00  0.00     0.121 A 
ENDROOT
BRANCH   3  11
ATOM     11  N   UNL d   1     -40.939  14.786  20.197  0.00  0.00    -0.059 NA
BRANCH  11  12
ATOM     12  C   UNL d   1     -41.532  14.328  20.542  0.00  0.00     0.100 A 
ATOM     13  C   UNL d   1     -42.081  14.657  21.038  0.00  0.00     0.020 A 
ATOM     14  C   UNL d   1     -42.677  14.195  21.384  0.00  0.00     0.007 A 
ATOM     15  C   UNL d   1     -42.715  13.385  21.221  0.00  0.00     0.064 A 
ATOM     16  C   UNL d   1     -42.159  13.039  20.714  0.00  0.00     0.007 A 
ATOM     17  C   UNL d   1     -41.569  13.505  20.374  0.00  0.00     0.020 A 
BRANCH  15  18
ATOM     18  C   UNL d   1     -43.303  12.931  21.562  0.00  0.00     0.300 C 
ATOM     19  O   UNL d   1     -43.143  12.148  21.785  0.00  0.00    -0.259 OA
BRANCH  18  20
ATOM     20  O   UNL d   1     -44.058  13.242  21.689  0.00  0.00    -0.271 OA
BRANCH  20  21
ATOM     21  C   UNL d   1     -44.655  12.771  22.010  0.00  0.00     0.126 C 
ATOM     22  C   UNL d   1     -45.417  13.070  22.077  0.00  0.00     0.029 C 
ENDBRANCH  20  21
ENDBRANCH  18  20
ENDBRANCH  15  18
ENDBRANCH  11  12
ENDBRANCH   3  11
BRANCH   2  23
ATOM     23  N   UNL d   1     -38.131  14.227  20.302  0.00  0.00    -0.225 NA
BRANCH  23  24
ATOM     24  C   UNL d   1     -38.107  14.038  19.501  0.00  0.00     0.083 A 
ATOM     25  C   UNL d   1     -38.228  13.252  19.257  0.00  0.00     0.020 A 
ATOM     26  C   UNL d   1     -38.203  13.067  18.455  0.00  0.00     0.013 A 
ATOM     27  C   UNL d   1     -38.060  13.653  17.892  0.00  0.00     0.058 A 
ATOM     28  C   UNL d   1     -37.940  14.439  18.136  0.00  0.00     0.013 A 
ATOM     29 CL   UNL d   1     -38.034  13.478  17.088  0.00  0.00    -0.082 Cl
ATOM     30  C   UNL d   1     -37.965  14.626  18.940  0.00  0.00     0.020 A 
ENDBRANCH  23  24
ENDBRANCH   2  23
TORSDOF 7
ENDMDL
MODEL 6
REMARK VINA RESULT:      -4.1      1.924      2.674
REMARK  7 active torsions:
REMARK  status: ('A' for Active; 'I' for Inactive)
REMARK    1  A    between atoms: N_7  and  C_2 
REMARK    2  A    between atoms: N_9  and  C_3 
REMARK    3  A    between atoms: C_14  and  N_7 
REMARK    4  A    between atoms: C_8  and  C_12 
REMARK    5  A    between atoms: O_19  and  C_8 
REMARK    6  A    between atoms: C_17  and  N_9 
REMARK    7  A    between atoms: C_29  and  O_19 
ROOT
ATOM      1  N   UNL d   1     -39.862  15.130  19.058  0.00  0.00    -0.038 NA
ATOM      2  C   UNL d   1     -39.743  15.152  18.235  0.00  0.00     0.202 A 
ATOM      3  C   UNL d   1     -40.589  15.366  19.381  0.00  0.00     0.753 A 
ATOM      4  N   UNL d   1     -41.199  15.624  18.873  0.00  0.00    -0.038 NA
ATOM      5  C   UNL d   1     -40.349  15.408  17.738  0.00  0.00     0.154 A 
ATOM      6  C   UNL d   1     -41.077  15.644  18.058  0.00  0.00     0.202 A 
ATOM      7  N   UNL d   1     -40.216  15.423  16.922  0.00  0.00    -0.236 NA
ATOM      8  N   UNL d   1     -41.677  15.898  17.555  0.00  0.00    -0.222 NA
ATOM      9  C   UNL d   1     -40.828  15.682  16.420  0.00  0.00     0.120 A 
ATOM     10  C   UNL d   1     -41.555  15.918  16.730  0.00  0.00     0.121 A 
ENDROOT
BRANCH   3  11
ATOM     11  N   UNL d   1     -40.704  15.344  20.189  0.00  0.00    -0.059 NA
BRANCH  11  12
ATOM     12  C   UNL d   1     -41.224  14.795  20.520  0.00  0.00     0.100 A 
ATOM     13  C   UNL d   1     -40.995  14.029  20.653  0.00  0.00     0.020 A 
ATOM     14  C   UNL d   1     -41.517  13.478  20.986  0.00  0.00     0.007 A 
ATOM     15  C   UNL d   1     -42.286  13.710  21.186  0.00  0.00     0.064 A 
ATOM     16  C   UNL d   1     -42.529  14.491  21.053  0.00  0.00     0.007 A 
ATOM     17  C   UNL d   1     -42.004  15.033  20.722  0.00  0.00     0.020 A 
BRANCH  15  18
ATOM     18  C   UNL d   1     -42.800  13.166  21.513  0.00  0.00     0.300 C 
ATOM     19  O   UNL d   1     -42.542  12.391  21.663  0.00  0.00    -0.259 OA
BRANCH  18  20
ATOM     20  O   UNL d   1     -43.577  13.376  21.699  0.00  0.00    -0.271 OA
BRANCH  20  21
ATOM     21  C   UNL d   1     -44.190  12.831  21.610  0.00  0.00     0.126 C 
ATOM     22  C   UNL d   1     -44.919  12.978  21.959  0.00  0.00     0.029 C 
ENDBRANCH  20  21
ENDBRANCH  18  20
ENDBRANCH  15  18
ENDBRANCH  11  12
ENDBRANCH   3  11
BRANCH   2  23
ATOM     23  N   UNL d   1     -39.016  14.916  17.915  0.00  0.00    -0.225 NA
BRANCH  23  24
ATOM     24  C   UNL d   1     -38.769  14.133  17.981  0.00  0.00     0.083 A 
ATOM     25  C   UNL d   1     -39.107  13.549  17.494  0.00  0.00     0.020 A 
ATOM     26  C   UNL d   1     -38.857  12.768  17.564  0.00  0.00     0.013 A 
ATOM     27  C   UNL d   1     -38.277  12.558  18.112  0.00  0.00     0.058 A 
ATOM     28  C   UNL d   1     -37.940  13.142  18.599  0.00  0.00     0.013 A 
ATOM     29 CL   UNL d   1     -38.022  11.779  18.189  0.00  0.00    -0.082 Cl
ATOM     30  C   UNL d   1     -38.189  13.926  18.530  0.00  0.00     0.020 A 
ENDBRANCH  23  24
ENDBRANCH   2  23
TORSDOF 7
ENDMDL
MODEL 7
REMARK VINA RESULT:      -3.8      2.744      5.018
REMARK  7 active torsions:
REMARK  status: ('A' for Active; 'I' for Inactive)
REMARK    1  A    between atoms: N_7  and  C_2 
REMARK    2  A    between atoms: N_9  and  C_3 
REMARK    3  A    between atoms: C_14  and  N_7 
REMARK    4  A    between atoms: C_8  and  C_12 
REMARK    5  A    between atoms: O_19  and  C_8 
REMARK    6  A    between atoms: C_17  and  N_9 
REMARK    7  A    between atoms: C_29  and  O_19 
ROOT
ATOM      1  N   UNL d   1     -40.415  14.287  19.897  0.00  0.00    -0.038 NA
ATOM      2  C   UNL d   1     -40.134  14.581  20.623  0.00  0.00     0.202 A 
ATOM      3  C   UNL d   1     -39.994  14.429  19.198  0.00  0.00     0.753 A 
ATOM      4  N   UNL d   1     -39.286  14.869  19.227  0.00  0.00    -0.038 NA
ATOM      5  C   UNL d   1     -39.434  15.016  20.647  0.00  0.00     0.154 A 
ATOM      6  C   UNL d   1     -39.010  15.160  19.948  0.00  0.00     0.202 A 
ATOM      7  N   UNL d   1     -39.168  15.302  21.375  0.00  0.00    -0.236 NA
ATOM      8  N   UNL d   1     -38.312  15.595  19.981  0.00  0.00    -0.222 NA
ATOM      9  C   UNL d   1     -38.460  15.742  21.399  0.00  0.00     0.120 A 
ATOM     10  C   UNL d   1     -38.033  15.889  20.709  0.00  0.00     0.121 A 
ENDROOT
BRANCH   3  11
ATOM     11  N   UNL d   1     -40.271  14.139  18.486  0.00  0.00    -0.059 NA
BRANCH  11  12
ATOM     12  C   UNL d   1     -39.800  14.178  17.810  0.00  0.00     0.100 A 
ATOM     13  C   UNL d   1     -39.243  13.611  17.653  0.00  0.00     0.020 A 
ATOM     14  C   UNL d   1     -38.770  13.651  16.973  0.00  0.00     0.007 A 
ATOM     15  C   UNL d   1     -38.865  14.280  16.444  0.00  0.00     0.064 A 
ATOM     16  C   UNL d   1     -39.431  14.866  16.596  0.00  0.00     0.007 A 
ATOM     17  C   UNL d   1     -39.898  14.818  17.274  0.00  0.00     0.020 A 
BRANCH  15  18
ATOM     18  C   UNL d   1     -38.398  14.319  15.775  0.00  0.00     0.300 C 
ATOM     19  O   UNL d   1     -37.941  14.996  15.628  0.00  0.00    -0.259 OA
BRANCH  18  20
ATOM     20  O   UNL d   1     -38.374  13.692  15.238  0.00  0.00    -0.271 OA
BRANCH  20  21
ATOM     21  C   UNL d   1     -37.949  13.759  14.535  0.00  0.00     0.126 C 
ATOM     22  C   UNL d   1     -37.988  13.158  13.976  0.00  0.00     0.029 C 
ENDBRANCH  20  21
ENDBRANCH  18  20
ENDBRANCH  15  18
ENDBRANCH  11  12
ENDBRANCH   3  11
BRANCH   2  23
ATOM     23  N   UNL d   1     -40.557  14.438  21.321  0.00  0.00    -0.225 NA
BRANCH  23  24
ATOM     24  C   UNL d   1     -41.297  14.076  21.289  0.00  0.00     0.083 A 
ATOM     25  C   UNL d   1     -41.974  14.530  21.123  0.00  0.00     0.020 A 
ATOM     26  C   UNL d   1     -42.711  14.165  21.092  0.00  0.00     0.013 A 
ATOM     27  C   UNL d   1     -42.784  13.353  21.224  0.00  0.00     0.058 A 
ATOM     28  C   UNL d   1     -42.107  12.899  21.389  0.00  0.00     0.013 A 
ATOM     29 CL   UNL d   1     -43.517  12.979  21.194  0.00  0.00    -0.082 Cl
ATOM     30  C   UNL d   1     -41.368  13.265  21.420  0.00  0.00     0.020 A 
ENDBRANCH  23  24
ENDBRANCH   2  23
TORSDOF 7
ENDMDL
MODEL 8
REMARK VINA RESULT:      -3.8      2.268      3.763
REMARK  7 active torsions:
REMARK  status: ('A' for Active; 'I' for Inactive)
REMARK    1  A    between atoms: N_7  and  C_2 
REMARK    2  A    between atoms: N_9  and  C_3 
REMARK    3  A    between atoms: C_14  and  N_7 
REMARK    4  A    between atoms: C_8  and  C_12 
REMARK    5  A    between atoms: O_19  and  C_8 
REMARK    6  A    between atoms: C_17  and  N_9 
REMARK    7  A    between atoms: C_29  and  O_19 
ROOT
ATOM      1  N   UNL d   1     -39.905  15.493  18.349  0.00  0.00    -0.038 NA
ATOM      2  C   UNL d   1     -39.905  15.344  17.530  0.00  0.00     0.202 A 
ATOM      3  C   UNL d   1     -40.589  15.776  18.721  0.00  0.00     0.753 A 
ATOM      4  N   UNL d   1     -41.277  15.910  18.268  0.00  0.00    -0.038 NA
ATOM      5  C   UNL d   1     -40.586  15.478  17.087  0.00  0.00     0.154 A 
ATOM      6  C   UNL d   1     -41.273  15.762  17.457  0.00  0.00     0.202 A 
ATOM      7  N   UNL d   1     -40.570  15.325  16.275  0.00  0.00    -0.236 NA
ATOM      8  N   UNL d   1     -41.950  15.893  17.007  0.00  0.00    -0.222 NA
ATOM      9  C   UNL d   1     -41.260  15.461  15.827  0.00  0.00     0.120 A 
ATOM     10  C   UNL d   1     -41.947  15.743  16.187  0.00  0.00     0.121 A 
ENDROOT
BRANCH   3  11
ATOM     11  N   UNL d   1     -40.589  15.922  19.525  0.00  0.00    -0.059 NA
BRANCH  11  12
ATOM     12  C   UNL d   1     -40.343  15.337  20.053  0.00  0.00     0.100 A 
ATOM     13  C   UNL d   1     -39.685  15.438  20.514  0.00  0.00     0.020 A 
ATOM     14  C   UNL d   1     -39.439  14.850  21.044  0.00  0.00     0.007 A 
ATOM     15  C   UNL d   1     -39.871  14.148  21.107  0.00  0.00     0.064 A 
ATOM     16  C   UNL d   1     -40.546  14.035  20.640  0.00  0.00     0.007 A 
ATOM     17  C   UNL d   1     -40.784  14.624  20.114  0.00  0.00     0.020 A 
BRANCH  15  18
ATOM     18  C   UNL d   1     -39.628  13.569  21.630  0.00  0.00     0.300 C 
ATOM     19  O   UNL d   1     -40.192  13.107  22.026  0.00  0.00    -0.259 OA
BRANCH  18  20
ATOM     20  O   UNL d   1     -38.825  13.436  21.771  0.00  0.00    -0.271 OA
BRANCH  20  21
ATOM     21  C   UNL d   1     -38.533  13.420  22.543  0.00  0.00     0.126 C 
ATOM     22  C   UNL d   1     -37.967  12.863  22.752  0.00  0.00     0.029 C 
ENDBRANCH  20  21
ENDBRANCH  18  20
ENDBRANCH  15  18
ENDBRANCH  11  12
ENDBRANCH   3  11
BRANCH   2  23
ATOM     23  N   UNL d   1     -39.219  15.061  17.161  0.00  0.00    -0.225 NA
BRANCH  23  24
ATOM     24  C   UNL d   1     -38.900  14.334  17.382  0.00  0.00     0.083 A 
ATOM     25  C   UNL d   1     -38.255  14.307  17.907  0.00  0.00     0.020 A 
ATOM     26  C   UNL d   1     -37.940  13.579  18.126  0.00  0.00     0.013 A 
ATOM     27  C   UNL d   1     -38.256  12.877  17.830  0.00  0.00     0.058 A 
ATOM     28  C   UNL d   1     -38.900  12.904  17.305  0.00  0.00     0.013 A 
ATOM     29 CL   UNL d   1     -37.947  12.144  18.043  0.00  0.00    -0.082 Cl
ATOM     30  C   UNL d   1     -39.218  13.634  17.085  0.00  0.00     0.020 A 
ENDBRANCH  23  24
ENDBRANCH   2  23
TORSDOF 7
ENDMDL
MODEL 9
REMARK VINA RESULT:      -3.2      2.007      3.117
REMARK  7 active torsions:
REMARK  status: ('A' for Active; 'I' for Inactive)
REMARK    1  A    between atoms: N_7  and  C_2 
REMARK    2  A    between atoms: N_9  and  C_3 
REMARK    3  A    between atoms: C_14  and  N_7 
REMARK    4  A    between atoms: C_8  and  C_12 
REMARK    5  A    between atoms: O_19  and  C_8 
REMARK    6  A    between atoms: C_17  and  N_9 
REMARK    7  A    between atoms: C_29  and  O_19 
ROOT
ATOM      1  N   UNL d   1     -39.916  15.133  19.709  0.00  0.00    -0.038 NA
ATOM      2  C   UNL d   1     -39.399  14.969  19.079  0.00  0.00     0.202 A 
ATOM      3  C   UNL d   1     -39.959  14.620  20.359  0.00  0.00     0.753 A 
ATOM      4  N   UNL d   1     -39.478  13.937  20.374  0.00  0.00    -0.038 NA
ATOM      5  C   UNL d   1     -38.926  14.294  19.099  0.00  0.00     0.154 A 
ATOM      6  C   UNL d   1     -38.967  13.778  19.748  0.00  0.00     0.202 A 
ATOM      7  N   UNL d   1     -38.417  14.144  18.465  0.00  0.00    -0.236 NA
ATOM      8  N   UNL d   1     -38.492  13.106  19.760  0.00  0.00    -0.222 NA
ATOM      9  C   UNL d   1     -37.940  13.462  18.486  0.00  0.00     0.120 A 
ATOM     10  C   UNL d   1     -37.974  12.944  19.127  0.00  0.00     0.121 A 
ENDROOT
BRANCH   3  11
ATOM     11  N   UNL d   1     -40.467  14.781  20.977  0.00  0.00    -0.059 NA
BRANCH  11  12
ATOM     12  C   UNL d   1     -41.151  14.331  21.082  0.00  0.00     0.100 A 
ATOM     13  C   UNL d   1     -41.857  14.559  20.756  0.00  0.00     0.020 A 
ATOM     14  C   UNL d   1     -42.543  14.106  20.862  0.00  0.00     0.007 A 
ATOM     15  C   UNL d   1     -42.510  13.409  21.306  0.00  0.00     0.064 A 
ATOM     16  C   UNL d   1     -41.793  13.168  21.643  0.00  0.00     0.007 A 
ATOM     17  C   UNL d   1     -41.115  13.624  21.534  0.00  0.00     0.020 A 
BRANCH  15  18
ATOM     18  C   UNL d   1     -43.187  12.964  21.410  0.00  0.00     0.300 C 
ATOM     19  O   UNL d   1     -43.204  12.172  21.160  0.00  0.00    -0.259 OA
BRANCH  18  20
ATOM     20  O   UNL d   1     -43.860  13.290  21.761  0.00  0.00    -0.271 OA
BRANCH  20  21
ATOM     21  C   UNL d   1     -44.529  12.827  21.895  0.00  0.00     0.126 C 
ATOM     22  C   UNL d   1     -45.259  13.187  22.002  0.00  0.00     0.029 C 
ENDBRANCH  20  21
ENDBRANCH  18  20
ENDBRANCH  15  18
ENDBRANCH  11  12
ENDBRANCH   3  11
BRANCH   2  23
ATOM     23  N   UNL d   1     -39.358  15.484  18.431  0.00  0.00    -0.225 NA
BRANCH  23  24
ATOM     24  C   UNL d   1     -39.995  15.547  17.913  0.00  0.00     0.083 A 
ATOM     25  C   UNL d   1     -40.718  15.860  18.180  0.00  0.00     0.020 A 
ATOM     26  C   UNL d   1     -41.352  15.921  17.659  0.00  0.00     0.013 A 
ATOM     27  C   UNL d   1     -41.278  15.676  16.875  0.00  0.00     0.058 A 
ATOM     28  C   UNL d   1     -40.555  15.363  16.607  0.00  0.00     0.013 A 
ATOM     29 CL   UNL d   1     -41.907  15.734  16.346  0.00  0.00    -0.082 Cl
ATOM     30  C   UNL d   1     -39.919  15.301  17.129  0.00  0.00     0.020 A 
ENDBRANCH  23  24
ENDBRANCH   2  23
TORSDOF 7
ENDMDL
