MODEL 1
REMARK VINA RESULT:      31.2      0.000      0.000
REMARK  2 active torsions:
REMARK  status: ('A' for Active; 'I' for Inactive)
REMARK       I    between atoms: C_6  and  N_7 
REMARK    1  A    between atoms: C_9  and  C_6 
REMARK    2  A    between atoms: N_7  and  C_13 
ROOT
ATOM      1  N   UNL d   1      13.027  13.356  -4.400  0.00  0.00    -0.169 NA
ATOM      2  C   UNL d   1      13.123  12.631  -4.026  0.00  0.00     0.282 A 
ATOM      3  C   UNL d   1      13.391  13.930  -3.942  0.00  0.00     0.282 A 
ATOM      4  C   UNL d   1      13.553  12.761  -3.327  0.00  0.00     0.064 A 
ATOM      5  C   UNL d   1      13.714  13.562  -3.284  0.00  0.00     0.063 A 
ATOM      6  C   UNL d   1      14.140  13.856  -2.640  0.00  0.00     0.006 A 
ATOM      7  C   UNL d   1      13.809  12.241  -2.738  0.00  0.00     0.024 A 
ATOM      8  O   UNL d   1      12.835  11.913  -4.309  0.00  0.00    -0.265 OA
ATOM      9  O   UNL d   1      13.431  14.737  -4.108  0.00  0.00    -0.265 OA
ATOM     10  C   UNL d   1      14.232  12.535  -2.099  0.00  0.00     0.085 A 
ATOM     11  C   UNL d   1      14.400  13.345  -2.046  0.00  0.00     0.019 A 
ENDROOT
BRANCH  10  12
ATOM     12  N   UNL d   1      14.489  12.017  -1.510  0.00  0.00    -0.208 NA
ATOM     13  C   UNL d   1      14.760  12.313  -0.794  0.00  0.00     0.279 C 
ATOM     14  O   UNL d   1      15.014  11.794  -0.210  0.00  0.00    -0.265 OA
BRANCH  13  15
ATOM     15  C   UNL d   1      14.777  13.118  -0.658  0.00  0.00     0.058 A 
ATOM     16  C   UNL d   1      15.467  13.541  -0.828  0.00  0.00     0.005 A 
ATOM     17  C   UNL d   1      15.497  14.351  -0.696  0.00  0.00     0.000 A 
ATOM     18  C   UNL d   1      14.832  14.748  -0.391  0.00  0.00     0.000 A 
ATOM     19  C   UNL d   1      14.144  14.321  -0.223  0.00  0.00     0.000 A 
ATOM     20  C   UNL d   1      14.855  15.568  -0.255  0.00  0.00     0.000 C 
ATOM     21  C   UNL d   1      14.125  13.510  -0.359  0.00  0.00     0.005 A 
ENDBRANCH  13  15
ENDBRANCH  10  12
TORSDOF 2
ENDMDL
