MODEL 1
REMARK VINA RESULT:      -8.5      0.000      0.000
REMARK  5 active torsions:
REMARK  status: ('A' for Active; 'I' for Inactive)
REMARK    1  A    between atoms: S_3  and  N_1 
REMARK    2  A    between atoms: C_7  and  C_4 
REMARK    3  A    between atoms: C_8  and  C_5 
REMARK    4  A    between atoms: O_21  and  C_13 
REMARK    5  A    between atoms: O_22  and  C_15 
ROOT
ATOM      1  N   UNL d   1     -48.968  12.840  22.508  0.00  0.00    -0.155 N 
ATOM      2  N   UNL d   1     -49.578  13.375  22.564  0.00  0.00    -0.155 NA
ATOM      3  C   UNL d   1     -49.352  13.972  23.083  0.00  0.00     0.110 A 
ATOM      4  C   UNL d   1     -48.359  13.106  22.996  0.00  0.00     0.096 A 
ATOM      5  C   UNL d   1     -48.601  13.802  23.347  0.00  0.00     0.041 A 
ENDROOT
BRANCH   4   6
ATOM      6  C   UNL d   1     -47.635  12.734  23.108  0.00  0.00     0.021 A 
ATOM      7  C   UNL d   1     -46.956  13.039  22.753  0.00  0.00     0.028 A 
ATOM      8  C   UNL d   1     -46.227  12.664  22.865  0.00  0.00     0.116 A 
ATOM      9  C   UNL d   1     -46.181  11.988  23.332  0.00  0.00     0.116 A 
ATOM     10  C   UNL d   1     -46.860  11.682  23.687  0.00  0.00     0.026 A 
ATOM     11  C   UNL d   1     -47.584  12.055  23.575  0.00  0.00     0.004 A 
BRANCH   8  12
ATOM     12  O   UNL d   1     -45.548  12.969  22.510  0.00  0.00    -0.326 OA
ATOM     13  C   UNL d   1     -45.494  13.774  22.348  0.00  0.00     0.181 C 
ENDBRANCH   8  12
BRANCH   9  14
ATOM     14  O   UNL d   1     -45.452  11.613  23.445  0.00  0.00    -0.326 OA
ATOM     15  C   UNL d   1     -45.426  10.826  23.698  0.00  0.00     0.181 C 
ENDBRANCH   9  14
ENDBRANCH   4   6
BRANCH   1  16
ATOM     16  S   UNL d   1     -48.961  12.164  22.051  0.00  0.00     0.266 S 
ATOM     17  O   UNL d   1     -48.950  11.476  21.568  0.00  0.00    -0.203 OA
ATOM     18  O   UNL d   1     -49.157  11.713  22.710  0.00  0.00    -0.203 OA
ATOM     19  C   UNL d   1     -48.767  12.607  21.396  0.00  0.00     0.165 C 
ENDBRANCH   1  16
BRANCH   3  20
ATOM     20  C   UNL d   1     -49.816  14.628  23.295  0.00  0.00     0.049 A 
ATOM     21  S   UNL d   1     -50.618  14.606  23.476  0.00  0.00    -0.085 SA
ATOM     22  C   UNL d   1     -50.880  15.384  23.660  0.00  0.00     0.035 A 
ATOM     23  C   UNL d   1     -50.219  15.876  23.586  0.00  0.00     0.007 A 
ATOM     24  C   UNL d   1     -49.569  15.400  23.361  0.00  0.00     0.009 A 
ENDBRANCH   3  20
TORSDOF 5
ENDMDL
MODEL 2
REMARK VINA RESULT:      -6.2      9.076     10.307
REMARK  5 active torsions:
REMARK  status: ('A' for Active; 'I' for Inactive)
REMARK    1  A    between atoms: S_3  and  N_1 
REMARK    2  A    between atoms: C_7  and  C_4 
REMARK    3  A    between atoms: C_8  and  C_5 
REMARK    4  A    between atoms: O_21  and  C_13 
REMARK    5  A    between atoms: O_22  and  C_15 
ROOT
ATOM      1  N   UNL d   1     -40.156  14.557  18.791  0.00  0.00    -0.155 N 
ATOM      2  N   UNL d   1     -40.258  14.752  19.574  0.00  0.00    -0.155 NA
ATOM      3  C   UNL d   1     -39.530  14.697  19.952  0.00  0.00     0.110 A 
ATOM      4  C   UNL d   1     -39.358  14.380  18.682  0.00  0.00     0.096 A 
ATOM      5  C   UNL d   1     -38.978  14.468  19.399  0.00  0.00     0.041 A 
ENDROOT
BRANCH   4   6
ATOM      6  C   UNL d   1     -39.008  14.154  17.974  0.00  0.00     0.021 A 
ATOM      7  C   UNL d   1     -38.760  13.374  17.868  0.00  0.00     0.028 A 
ATOM      8  C   UNL d   1     -38.408  13.147  17.155  0.00  0.00     0.116 A 
ATOM      9  C   UNL d   1     -38.304  13.699  16.553  0.00  0.00     0.116 A 
ATOM     10  C   UNL d   1     -38.552  14.479  16.660  0.00  0.00     0.026 A 
ATOM     11  C   UNL d   1     -38.902  14.704  17.368  0.00  0.00     0.004 A 
BRANCH   8  12
ATOM     12  O   UNL d   1     -38.160  12.367  17.048  0.00  0.00    -0.326 OA
ATOM     13  C   UNL d   1     -38.070  11.871  17.698  0.00  0.00     0.181 C 
ENDBRANCH   8  12
BRANCH   9  14
ATOM     14  O   UNL d   1     -37.952  13.471  15.840  0.00  0.00    -0.326 OA
ATOM     15  C   UNL d   1     -37.940  13.993  15.198  0.00  0.00     0.181 C 
ENDBRANCH   9  14
ENDBRANCH   4   6
BRANCH   1  16
ATOM     16  S   UNL d   1     -40.737  14.540  18.219  0.00  0.00     0.266 S 
ATOM     17  O   UNL d   1     -41.334  14.538  17.626  0.00  0.00    -0.203 OA
ATOM     18  O   UNL d   1     -40.857  13.739  18.359  0.00  0.00    -0.203 OA
ATOM     19  C   UNL d   1     -40.621  15.333  18.076  0.00  0.00     0.165 C 
ENDBRANCH   1  16
BRANCH   3  20
ATOM     20  C   UNL d   1     -39.392  14.852  20.757  0.00  0.00     0.049 A 
ATOM     21  S   UNL d   1     -39.200  15.584  21.076  0.00  0.00    -0.085 SA
ATOM     22  C   UNL d   1     -39.106  15.506  21.908  0.00  0.00     0.035 A 
ATOM     23  C   UNL d   1     -39.246  14.711  22.085  0.00  0.00     0.007 A 
ATOM     24  C   UNL d   1     -39.421  14.316  21.369  0.00  0.00     0.009 A 
ENDBRANCH   3  20
TORSDOF 5
ENDMDL
MODEL 3
REMARK VINA RESULT:      -6.0      1.581      4.128
REMARK  5 active torsions:
REMARK  status: ('A' for Active; 'I' for Inactive)
REMARK    1  A    between atoms: S_3  and  N_1 
REMARK    2  A    between atoms: C_7  and  C_4 
REMARK    3  A    between atoms: C_8  and  C_5 
REMARK    4  A    between atoms: O_21  and  C_13 
REMARK    5  A    between atoms: O_22  and  C_15 
ROOT
ATOM      1  N   UNL d   1     -48.461  12.521  22.713  0.00  0.00    -0.155 N 
ATOM      2  N   UNL d   1     -47.694  12.265  22.624  0.00  0.00    -0.155 NA
ATOM      3  C   UNL d   1     -47.200  12.923  22.617  0.00  0.00     0.110 A 
ATOM      4  C   UNL d   1     -48.443  13.344  22.760  0.00  0.00     0.096 A 
ATOM      5  C   UNL d   1     -47.666  13.585  22.700  0.00  0.00     0.041 A 
ENDROOT
BRANCH   4   6
ATOM      6  C   UNL d   1     -49.096  13.835  22.852  0.00  0.00     0.021 A 
ATOM      7  C   UNL d   1     -49.482  14.134  22.187  0.00  0.00     0.028 A 
ATOM      8  C   UNL d   1     -50.139  14.628  22.279  0.00  0.00     0.116 A 
ATOM      9  C   UNL d   1     -50.407  14.820  23.033  0.00  0.00     0.116 A 
ATOM     10  C   UNL d   1     -50.021  14.520  23.698  0.00  0.00     0.026 A 
ATOM     11  C   UNL d   1     -49.368  14.030  23.607  0.00  0.00     0.004 A 
BRANCH   8  12
ATOM     12  O   UNL d   1     -50.526  14.927  21.614  0.00  0.00    -0.326 OA
ATOM     13  C   UNL d   1     -50.881  14.415  21.078  0.00  0.00     0.181 C 
ENDBRANCH   8  12
BRANCH   9  14
ATOM     14  O   UNL d   1     -51.064  15.314  23.125  0.00  0.00    -0.326 OA
ATOM     15  C   UNL d   1     -51.058  15.910  23.698  0.00  0.00     0.181 C 
ENDBRANCH   9  14
ENDBRANCH   4   6
BRANCH   1  16
ATOM     16  S   UNL d   1     -49.125  12.049  22.748  0.00  0.00     0.266 S 
ATOM     17  O   UNL d   1     -49.808  11.561  22.800  0.00  0.00    -0.203 OA
ATOM     18  O   UNL d   1     -49.229  12.128  21.937  0.00  0.00    -0.203 OA
ATOM     19  C   UNL d   1     -49.026  11.969  23.553  0.00  0.00     0.165 C 
ENDBRANCH   1  16
BRANCH   3  20
ATOM     20  C   UNL d   1     -46.373  12.904  22.537  0.00  0.00     0.049 A 
ATOM     21  S   UNL d   1     -45.915  13.486  22.181  0.00  0.00    -0.085 SA
ATOM     22  C   UNL d   1     -45.106  13.258  22.213  0.00  0.00     0.035 A 
ATOM     23  C   UNL d   1     -45.086  12.525  22.595  0.00  0.00     0.007 A 
ATOM     24  C   UNL d   1     -45.872  12.316  22.790  0.00  0.00     0.009 A 
ENDBRANCH   3  20
TORSDOF 5
ENDMDL
MODEL 4
REMARK VINA RESULT:      -5.9      1.782      4.485
REMARK  5 active torsions:
REMARK  status: ('A' for Active; 'I' for Inactive)
REMARK    1  A    between atoms: S_3  and  N_1 
REMARK    2  A    between atoms: C_7  and  C_4 
REMARK    3  A    between atoms: C_8  and  C_5 
REMARK    4  A    between atoms: O_21  and  C_13 
REMARK    5  A    between atoms: O_22  and  C_15 
ROOT
ATOM      1  N   UNL d   1     -46.248  12.980  22.989  0.00  0.00    -0.155 N 
ATOM      2  N   UNL d   1     -45.577  12.528  23.079  0.00  0.00    -0.155 NA
ATOM      3  C   UNL d   1     -45.805  11.754  23.240  0.00  0.00     0.110 A 
ATOM      4  C   UNL d   1     -46.897  12.482  23.094  0.00  0.00     0.096 A 
ATOM      5  C   UNL d   1     -46.619  11.731  23.248  0.00  0.00     0.041 A 
ENDROOT
BRANCH   4   6
ATOM      6  C   UNL d   1     -47.686  12.707  23.051  0.00  0.00     0.021 A 
ATOM      7  C   UNL d   1     -48.115  12.574  22.359  0.00  0.00     0.028 A 
ATOM      8  C   UNL d   1     -48.909  12.800  22.315  0.00  0.00     0.116 A 
ATOM      9  C   UNL d   1     -49.271  13.157  22.963  0.00  0.00     0.116 A 
ATOM     10  C   UNL d   1     -48.842  13.290  23.655  0.00  0.00     0.026 A 
ATOM     11  C   UNL d   1     -48.053  13.066  23.698  0.00  0.00     0.004 A 
BRANCH   8  12
ATOM     12  O   UNL d   1     -49.338  12.666  21.623  0.00  0.00    -0.326 OA
ATOM     13  C   UNL d   1     -49.066  12.124  21.068  0.00  0.00     0.181 C 
ENDBRANCH   8  12
BRANCH   9  14
ATOM     14  O   UNL d   1     -50.066  13.383  22.919  0.00  0.00    -0.326 OA
ATOM     15  C   UNL d   1     -50.340  14.020  23.369  0.00  0.00     0.181 C 
ENDBRANCH   9  14
ENDBRANCH   4   6
BRANCH   1  16
ATOM     16  S   UNL d   1     -46.272  13.778  22.824  0.00  0.00     0.266 S 
ATOM     17  O   UNL d   1     -46.296  14.598  22.638  0.00  0.00    -0.203 OA
ATOM     18  O   UNL d   1     -46.294  13.947  23.627  0.00  0.00    -0.203 OA
ATOM     19  C   UNL d   1     -46.250  13.615  22.026  0.00  0.00     0.165 C 
ENDBRANCH   1  16
BRANCH   3  20
ATOM     20  C   UNL d   1     -45.289  11.117  23.369  0.00  0.00     0.049 A 
ATOM     21  S   UNL d   1     -44.479  11.123  23.227  0.00  0.00    -0.085 SA
ATOM     22  C   UNL d   1     -44.158  10.372  23.429  0.00  0.00     0.035 A 
ATOM     23  C   UNL d   1     -44.791   9.912  23.697  0.00  0.00     0.007 A 
ATOM     24  C   UNL d   1     -45.483  10.381  23.656  0.00  0.00     0.009 A 
ENDBRANCH   3  20
TORSDOF 5
ENDMDL
