MODEL 1
REMARK VINA RESULT:      -3.4      0.000      0.000
REMARK  4 active torsions:
REMARK  status: ('A' for Active; 'I' for Inactive)
REMARK    1  A    between atoms: N_7  and  C_1 
REMARK    2  A    between atoms: C_8  and  C_4 
REMARK    3  A    between atoms: C_10  and  N_7 
REMARK    4  A    between atoms: C_12  and  C_8 
ROOT
ATOM      1  C   UNL d   1      58.758   0.101  30.194  0.00  0.00     0.184 A 
ATOM      2  N   UNL d   1      58.240  -0.481  29.912  0.00  0.00    -0.129 NA
ATOM      3  N   UNL d   1      58.514  -1.058  29.389  0.00  0.00    -0.147 NA
ATOM      4  C   UNL d   1      59.304  -1.061  29.142  0.00  0.00     0.103 A 
ATOM      5  C   UNL d   1      59.544   0.097  29.946  0.00  0.00     0.039 A 
ATOM      6  C   UNL d   1      59.818  -0.481  29.423  0.00  0.00     0.022 A 
ATOM      7  C   UNL d   1      60.062   0.679  30.227  0.00  0.00     0.003 A 
ATOM      8  C   UNL d   1      60.612  -0.479  29.178  0.00  0.00     0.002 A 
ATOM      9  C   UNL d   1      61.126   0.101  29.459  0.00  0.00     0.000 A 
ATOM     10  C   UNL d   1      60.850   0.682  29.985  0.00  0.00     0.000 A 
ENDROOT
BRANCH   1  11
ATOM     11  N   UNL d   1      58.491   0.682  30.717  0.00  0.00    -0.225 NA
BRANCH  11  12
ATOM     12  C   UNL d   1      57.857   0.517  31.218  0.00  0.00     0.083 A 
ATOM     13  C   UNL d   1      57.999   0.240  31.974  0.00  0.00     0.020 A 
ATOM     14  C   UNL d   1      57.375   0.072  32.481  0.00  0.00     0.013 A 
ATOM     15  C   UNL d   1      56.590   0.185  32.224  0.00  0.00     0.058 A 
ATOM     16  C   UNL d   1      56.451   0.465  31.460  0.00  0.00     0.013 A 
ATOM     17 CL   UNL d   1      55.958   0.018  32.732  0.00  0.00    -0.082 Cl
ATOM     18  C   UNL d   1      57.084   0.632  30.954  0.00  0.00     0.020 A 
ENDBRANCH  11  12
ENDBRANCH   1  11
BRANCH   4  19
ATOM     19  C   UNL d   1      59.579  -1.639  28.618  0.00  0.00     0.021 C 
BRANCH  19  20
ATOM     20  C   UNL d   1      59.292  -2.411  28.667  0.00  0.00     0.005 A 
ATOM     21  C   UNL d   1      58.508  -2.570  28.469  0.00  0.00     0.021 A 
ATOM     22  C   UNL d   1      58.220  -3.342  28.518  0.00  0.00     0.099 A 
ATOM     23  N   UNL d   1      58.718  -3.953  28.764  0.00  0.00    -0.242 NA
ATOM     24  C   UNL d   1      59.511  -3.786  28.963  0.00  0.00     0.099 A 
ATOM     25  C   UNL d   1      59.789  -3.011  28.911  0.00  0.00     0.021 A 
ENDBRANCH  19  20
ENDBRANCH   4  19
TORSDOF 4
ENDMDL
MODEL 2
REMARK VINA RESULT:      -2.6      1.510      3.919
REMARK  4 active torsions:
REMARK  status: ('A' for Active; 'I' for Inactive)
REMARK    1  A    between atoms: N_7  and  C_1 
REMARK    2  A    between atoms: C_8  and  C_4 
REMARK    3  A    between atoms: C_10  and  N_7 
REMARK    4  A    between atoms: C_12  and  C_8 
ROOT
ATOM      1  C   UNL d   1      59.186  -0.899  29.312  0.00  0.00     0.184 A 
ATOM      2  N   UNL d   1      58.380  -0.918  29.503  0.00  0.00    -0.129 NA
ATOM      3  N   UNL d   1      58.082  -0.410  30.082  0.00  0.00    -0.147 NA
ATOM      4  C   UNL d   1      58.582   0.119  30.476  0.00  0.00     0.103 A 
ATOM      5  C   UNL d   1      59.682  -0.372  29.706  0.00  0.00     0.039 A 
ATOM      6  C   UNL d   1      59.384   0.136  30.285  0.00  0.00     0.022 A 
ATOM      7  C   UNL d   1      60.488  -0.353  29.516  0.00  0.00     0.003 A 
ATOM      8  C   UNL d   1      59.890   0.665  30.678  0.00  0.00     0.002 A 
ATOM      9  C   UNL d   1      60.691   0.682  30.487  0.00  0.00     0.000 A 
ATOM     10  C   UNL d   1      60.992   0.171  29.904  0.00  0.00     0.000 A 
ENDROOT
BRANCH   1  11
ATOM     11  N   UNL d   1      59.491  -1.404  28.734  0.00  0.00    -0.225 NA
BRANCH  11  12
ATOM     12  C   UNL d   1      59.245  -2.190  28.709  0.00  0.00     0.083 A 
ATOM     13  C   UNL d   1      59.766  -2.786  28.914  0.00  0.00     0.020 A 
ATOM     14  C   UNL d   1      59.530  -3.572  28.892  0.00  0.00     0.013 A 
ATOM     15  C   UNL d   1      58.753  -3.766  28.661  0.00  0.00     0.058 A 
ATOM     16  C   UNL d   1      58.229  -3.161  28.455  0.00  0.00     0.013 A 
ATOM     17 CL   UNL d   1      58.511  -4.558  28.638  0.00  0.00    -0.082 Cl
ATOM     18  C   UNL d   1      58.474  -2.371  28.479  0.00  0.00     0.020 A 
ENDBRANCH  11  12
ENDBRANCH   1  11
BRANCH   4  19
ATOM     19  C   UNL d   1      58.283   0.627  31.056  0.00  0.00     0.021 C 
BRANCH  19  20
ATOM     20  C   UNL d   1      57.606   0.419  31.479  0.00  0.00     0.005 A 
ATOM     21  C   UNL d   1      56.867   0.682  31.226  0.00  0.00     0.021 A 
ATOM     22  C   UNL d   1      56.190   0.474  31.648  0.00  0.00     0.099 A 
ATOM     23  N   UNL d   1      56.253   0.003  32.324  0.00  0.00    -0.242 NA
ATOM     24  C   UNL d   1      57.005  -0.260  32.576  0.00  0.00     0.099 A 
ATOM     25  C   UNL d   1      57.676  -0.047  32.146  0.00  0.00     0.021 A 
ENDBRANCH  19  20
ENDBRANCH   4  19
TORSDOF 4
ENDMDL
