MODEL 1
REMARK VINA RESULT:       3.1      0.000      0.000
REMARK  3 active torsions:
REMARK  status: ('A' for Active; 'I' for Inactive)
REMARK    1  A    between atoms: N_10  and  C_3 
REMARK    2  A    between atoms: C_11  and  C_5 
REMARK    3  A    between atoms: C_12  and  C_9 
ROOT
ATOM      1  N   UNL d   1     -41.856-122.609 -51.863  0.00  0.00    -0.196 N 
ATOM      2  C   UNL d   1     -41.785-122.210 -52.594  0.00  0.00     0.167 A 
ATOM      3  C   UNL d   1     -41.719-122.196 -51.165  0.00  0.00     0.152 A 
ATOM      4  N   UNL d   1     -42.196-123.817 -52.555  0.00  0.00    -0.163 NA
ATOM      5  C   UNL d   1     -41.919-122.612 -53.289  0.00  0.00     0.055 A 
ATOM      6  N   UNL d   1     -41.581-121.411 -52.601  0.00  0.00    -0.227 NA
ATOM      7  C   UNL d   1     -41.509-121.371 -51.183  0.00  0.00     0.057 A 
ATOM      8  C   UNL d   1     -42.126-123.418 -53.286  0.00  0.00     0.104 A 
ATOM      9  C   UNL d   1     -41.447-121.006 -51.904  0.00  0.00     0.086 A 
ATOM     10  C   UNL d   1     -42.258-123.816 -53.980  0.00  0.00     0.023 C 
ENDROOT
BRANCH   5  11
ATOM     11  C   UNL d   1     -41.848-122.208 -54.028  0.00  0.00     0.004 A 
ATOM     12  C   UNL d   1     -41.204-122.360 -54.518  0.00  0.00     0.000 A 
ATOM     13  C   UNL d   1     -41.134-121.962 -55.246  0.00  0.00     0.000 A 
ATOM     14  C   UNL d   1     -41.709-121.421 -55.469  0.00  0.00     0.000 A 
ATOM     15  C   UNL d   1     -42.358-121.271 -54.971  0.00  0.00     0.000 A 
ATOM     16  C   UNL d   1     -42.420-121.667 -54.256  0.00  0.00     0.000 A 
ENDBRANCH   5  11
BRANCH   3  17
ATOM     17  N   UNL d   1     -41.790-122.601 -50.413  0.00  0.00    -0.289 N 
ATOM     18  C   UNL d   1     -41.167-122.825 -50.057  0.00  0.00     0.082 A 
ATOM     19  C   UNL d   1     -41.239-123.182 -49.392  0.00  0.00     0.021 A 
ATOM     20  C   UNL d   1     -42.527-123.080 -49.465  0.00  0.00     0.021 A 
ATOM     21  C   UNL d   1     -42.455-122.722 -50.130  0.00  0.00     0.082 A 
ENDBRANCH   3  17
BRANCH   9  22
ATOM     22  C   UNL d   1     -41.231-120.165 -51.918  0.00  0.00     0.018 C 
ATOM     23  C   UNL d   1     -41.125-119.765 -52.685  0.00  0.00     0.002 C 
ATOM     24  C   UNL d   1     -41.125-119.731 -51.177  0.00  0.00     0.002 C 
ENDBRANCH   9  22
TORSDOF 3
ENDMDL
