MODEL 1
REMARK VINA RESULT:      25.2      0.000      0.000
REMARK  7 active torsions:
REMARK  status: ('A' for Active; 'I' for Inactive)
REMARK    1  A    between atoms: C_12  and  N_1 
REMARK    2  A    between atoms: C_2  and  N_6 
REMARK    3  A    between atoms: C_9  and  C_5 
REMARK       I    between atoms: N_6  and  C_9 
REMARK    4  A    between atoms: S_15  and  C_7 
REMARK    5  A    between atoms: C_14  and  C_20 
REMARK       I    between atoms: N_21  and  C_14 
REMARK    6  A    between atoms: C_20  and  S_15 
REMARK    7  A    between atoms: O_22  and  C_18 
ROOT
ATOM      1  N   UNL d   1      46.136 -18.451  43.170  0.00  0.00    -0.271 N 
ATOM      2  C   UNL d   1      45.771 -18.674  43.811  0.00  0.00     0.265 A 
ATOM      3  C   UNL d   1      46.067 -17.463  43.937  0.00  0.00     0.080 A 
ATOM      4  C   UNL d   1      46.319 -17.701  43.247  0.00  0.00     0.088 A 
ATOM      5  C   UNL d   1      45.725 -18.063  44.293  0.00  0.00     0.067 A 
ATOM      6  O   UNL d   1      45.494 -19.390  43.955  0.00  0.00    -0.267 OA
ENDROOT
BRANCH   3   7
ATOM      7  C   UNL d   1      46.137 -16.751  44.233  0.00  0.00     0.283 C 
ATOM      8  N   UNL d   1      45.818 -16.145  43.864  0.00  0.00    -0.181 NA
ATOM      9  O   UNL d   1      46.526 -16.641  44.897  0.00  0.00    -0.265 OA
BRANCH   8  10
ATOM     10  C   UNL d   1      45.886 -15.431  44.156  0.00  0.00     0.219 A 
ATOM     11  S   UNL d   1      45.774 -14.765  43.771  0.00  0.00    -0.019 SA
ATOM     12  C   UNL d   1      45.896 -14.184  44.258  0.00  0.00     0.165 A 
ATOM     13  N   UNL d   1      46.085 -14.473  44.955  0.00  0.00    -0.133 NA
ATOM     14  N   UNL d   1      46.079 -15.258  44.890  0.00  0.00    -0.120 NA
BRANCH  12  15
ATOM     15  S   UNL d   1      45.707 -12.602  43.633  0.00  0.00    -0.054 SA
BRANCH  15  16
ATOM     16  C   UNL d   1      44.946 -12.312  43.452  0.00  0.00     0.100 C 
BRANCH  16  17
ATOM     17  C   UNL d   1      44.697 -12.267  42.656  0.00  0.00     0.286 C 
ATOM     18  O   UNL d   1      43.880 -12.196  42.473  0.00  0.00    -0.265 OA
ATOM     19  N   UNL d   1      45.265 -12.293  42.041  0.00  0.00    -0.204 NA
ATOM     20  C   UNL d   1      45.006 -12.247  41.249  0.00  0.00     0.123 C 
ENDBRANCH  16  17
ENDBRANCH  15  16
ENDBRANCH  12  15
ENDBRANCH   8  10
ENDBRANCH   3   7
BRANCH   1  21
ATOM     21  C   UNL d   1      46.306 -18.931  42.503  0.00  0.00     0.089 A 
ATOM     22  C   UNL d   1      46.467 -18.579  41.761  0.00  0.00     0.110 A 
ATOM     23  C   UNL d   1      46.634 -19.047  41.106  0.00  0.00     0.026 A 
ATOM     24  C   UNL d   1      46.644 -19.881  41.186  0.00  0.00     0.002 A 
ATOM     25  C   UNL d   1      46.487 -20.239  41.913  0.00  0.00     0.002 A 
ATOM     26  C   UNL d   1      46.315 -19.762  42.586  0.00  0.00     0.020 A 
BRANCH  22  27
ATOM     27  O   UNL d   1      46.455 -17.750  41.691  0.00  0.00    -0.327 OA
ATOM     28  C   UNL d   1      46.505 -17.401  40.935  0.00  0.00     0.181 C 
ENDBRANCH  22  27
ENDBRANCH   1  21
TORSDOF 7
ENDMDL
