MODEL 1
REMARK VINA RESULT:      -6.7      0.000      0.000
REMARK  3 active torsions:
REMARK  status: ('A' for Active; 'I' for Inactive)
REMARK    1  A    between atoms: C_7  and  C_3 
REMARK       I    between atoms: N_10  and  C_7 
REMARK    2  A    between atoms: C_19  and  C_9 
REMARK    3  A    between atoms: C_12  and  N_10 
ROOT
ATOM      1  C   UNL d   1     -49.616  13.459  23.122  0.00  0.00     0.059 A 
ATOM      2  C   UNL d   1     -50.316  13.023  23.158  0.00  0.00     0.013 A 
ATOM      3  C   UNL d   1     -48.866  12.248  23.079  0.00  0.00     0.088 A 
ATOM      4  S   UNL d   1     -48.892  13.074  23.083  0.00  0.00    -0.075 SA
ATOM      5  S   UNL d   1     -49.639  14.285  23.124  0.00  0.00    -0.080 SA
ATOM      6  C   UNL d   1     -49.565  11.813  23.116  0.00  0.00     0.012 A 
ATOM      7  C   UNL d   1     -51.064  14.229  23.200  0.00  0.00     0.007 A 
ATOM      8  C   UNL d   1     -50.365  14.665  23.164  0.00  0.00     0.030 A 
ENDROOT
BRANCH   3   9
ATOM      9  C   UNL d   1     -48.141  11.863  23.040  0.00  0.00     0.285 C 
ATOM     10  N   UNL d   1     -47.512  12.115  23.519  0.00  0.00    -0.208 NA
ATOM     11  O   UNL d   1     -48.038  11.233  22.532  0.00  0.00    -0.265 OA
BRANCH  10  12
ATOM     12  C   UNL d   1     -46.784  11.729  23.481  0.00  0.00     0.085 A 
ATOM     13  C   UNL d   1     -46.734  10.944  23.698  0.00  0.00     0.021 A 
ATOM     14  C   UNL d   1     -46.014  10.550  23.664  0.00  0.00     0.031 A 
ATOM     15  C   UNL d   1     -45.340  10.955  23.409  0.00  0.00     0.140 A 
ATOM     16  C   UNL d   1     -45.399  11.749  23.191  0.00  0.00     0.031 A 
ATOM     17  F   UNL d   1     -44.611  10.570  23.371  0.00  0.00    -0.204 F 
ATOM     18  C   UNL d   1     -46.124  12.138  23.227  0.00  0.00     0.021 A 
ENDBRANCH  10  12
ENDBRANCH   3   9
BRANCH   8  19
ATOM     19  C   UNL d   1     -50.400  15.488  23.167  0.00  0.00     0.006 C 
ATOM     20  C   UNL d   1     -50.954  15.879  23.632  0.00  0.00     0.001 C 
ENDBRANCH   8  19
TORSDOF 3
ENDMDL
MODEL 2
REMARK VINA RESULT:      -6.7      1.283      1.636
REMARK  3 active torsions:
REMARK  status: ('A' for Active; 'I' for Inactive)
REMARK    1  A    between atoms: C_7  and  C_3 
REMARK       I    between atoms: N_10  and  C_7 
REMARK    2  A    between atoms: C_19  and  C_9 
REMARK    3  A    between atoms: C_12  and  N_10 
ROOT
ATOM      1  C   UNL d   1     -48.342  14.313  22.897  0.00  0.00     0.059 A 
ATOM      2  C   UNL d   1     -47.963  15.042  22.820  0.00  0.00     0.013 A 
ATOM      3  C   UNL d   1     -47.083  13.650  22.808  0.00  0.00     0.088 A 
ATOM      4  S   UNL d   1     -47.904  13.617  22.891  0.00  0.00    -0.075 SA
ATOM      5  S   UNL d   1     -49.164  14.276  22.980  0.00  0.00    -0.080 SA
ATOM      6  C   UNL d   1     -46.705  14.379  22.731  0.00  0.00     0.012 A 
ATOM      7  C   UNL d   1     -49.217  15.702  22.908  0.00  0.00     0.007 A 
ATOM      8  C   UNL d   1     -49.596  14.973  22.985  0.00  0.00     0.030 A 
ENDROOT
BRANCH   3   9
ATOM      9  C   UNL d   1     -46.646  12.955  22.802  0.00  0.00     0.285 C 
ATOM     10  N   UNL d   1     -46.477  12.566  23.515  0.00  0.00    -0.208 NA
ATOM     11  O   UNL d   1     -46.376  12.646  22.097  0.00  0.00    -0.265 OA
BRANCH  10  12
ATOM     12  C   UNL d   1     -46.038  11.868  23.511  0.00  0.00     0.085 A 
ATOM     13  C   UNL d   1     -46.404  11.163  23.697  0.00  0.00     0.021 A 
ATOM     14  C   UNL d   1     -45.977  10.461  23.697  0.00  0.00     0.031 A 
ATOM     15  C   UNL d   1     -45.172  10.475  23.506  0.00  0.00     0.140 A 
ATOM     16  C   UNL d   1     -44.810  11.192  23.319  0.00  0.00     0.031 A 
ATOM     17  F   UNL d   1     -44.732   9.777  23.502  0.00  0.00    -0.204 F 
ATOM     18  C   UNL d   1     -45.244  11.892  23.321  0.00  0.00     0.021 A 
ENDBRANCH  10  12
ENDBRANCH   3   9
BRANCH   8  19
ATOM     19  C   UNL d   1     -50.415  14.950  23.067  0.00  0.00     0.006 C 
ATOM     20  C   UNL d   1     -50.822  15.593  23.379  0.00  0.00     0.001 C 
ENDBRANCH   8  19
TORSDOF 3
ENDMDL
MODEL 3
REMARK VINA RESULT:      -6.6      2.307      5.098
REMARK  3 active torsions:
REMARK  status: ('A' for Active; 'I' for Inactive)
REMARK    1  A    between atoms: C_7  and  C_3 
REMARK       I    between atoms: N_10  and  C_7 
REMARK    2  A    between atoms: C_19  and  C_9 
REMARK    3  A    between atoms: C_12  and  N_10 
ROOT
ATOM      1  C   UNL d   1     -46.196  11.656  23.407  0.00  0.00     0.059 A 
ATOM      2  C   UNL d   1     -46.607  10.999  23.689  0.00  0.00     0.013 A 
ATOM      3  C   UNL d   1     -47.406  12.409  23.399  0.00  0.00     0.088 A 
ATOM      4  S   UNL d   1     -46.593  12.360  23.261  0.00  0.00    -0.075 SA
ATOM      5  S   UNL d   1     -45.382  11.611  23.268  0.00  0.00    -0.080 SA
ATOM      6  C   UNL d   1     -47.817  11.752  23.681  0.00  0.00     0.012 A 
ATOM      7  C   UNL d   1     -45.402  10.249  23.697  0.00  0.00     0.007 A 
ATOM      8  C   UNL d   1     -44.991  10.906  23.415  0.00  0.00     0.030 A 
ENDROOT
BRANCH   3   9
ATOM      9  C   UNL d   1     -47.803  13.113  23.253  0.00  0.00     0.285 C 
ATOM     10  N   UNL d   1     -48.615  13.104  23.087  0.00  0.00    -0.208 NA
ATOM     11  O   UNL d   1     -47.400  13.823  23.272  0.00  0.00    -0.265 OA
BRANCH  10  12
ATOM     12  C   UNL d   1     -49.016  13.810  22.940  0.00  0.00     0.085 A 
ATOM     13  C   UNL d   1     -49.152  14.041  22.170  0.00  0.00     0.021 A 
ATOM     14  C   UNL d   1     -49.550  14.743  22.012  0.00  0.00     0.031 A 
ATOM     15  C   UNL d   1     -49.811  15.213  22.640  0.00  0.00     0.140 A 
ATOM     16  C   UNL d   1     -49.669  14.971  23.416  0.00  0.00     0.031 A 
ATOM     17  F   UNL d   1     -50.212  15.920  22.494  0.00  0.00    -0.204 F 
ATOM     18  C   UNL d   1     -49.270  14.267  23.568  0.00  0.00     0.021 A 
ENDBRANCH  10  12
ENDBRANCH   3   9
BRANCH   8  19
ATOM     19  C   UNL d   1     -44.180  10.848  23.281  0.00  0.00     0.006 C 
ATOM     20  C   UNL d   1     -43.739  10.254  23.639  0.00  0.00     0.001 C 
ENDBRANCH   8  19
TORSDOF 3
ENDMDL
MODEL 4
REMARK VINA RESULT:      -6.5      1.292      1.663
REMARK  3 active torsions:
REMARK  status: ('A' for Active; 'I' for Inactive)
REMARK    1  A    between atoms: C_7  and  C_3 
REMARK       I    between atoms: N_10  and  C_7 
REMARK    2  A    between atoms: C_19  and  C_9 
REMARK    3  A    between atoms: C_12  and  N_10 
ROOT
ATOM      1  C   UNL d   1     -49.023  13.978  23.053  0.00  0.00     0.059 A 
ATOM      2  C   UNL d   1     -49.422  13.387  23.468  0.00  0.00     0.013 A 
ATOM      3  C   UNL d   1     -47.937  13.085  22.823  0.00  0.00     0.088 A 
ATOM      4  S   UNL d   1     -48.283  13.829  22.730  0.00  0.00    -0.075 SA
ATOM      5  S   UNL d   1     -49.366  14.725  22.958  0.00  0.00    -0.080 SA
ATOM      6  C   UNL d   1     -48.336  12.494  23.238  0.00  0.00     0.012 A 
ATOM      7  C   UNL d   1     -50.504  14.277  23.697  0.00  0.00     0.007 A 
ATOM      8  C   UNL d   1     -50.105  14.869  23.282  0.00  0.00     0.030 A 
ENDROOT
BRANCH   3   9
ATOM      9  C   UNL d   1     -47.196  12.936  22.500  0.00  0.00     0.285 C 
ATOM     10  N   UNL d   1     -46.520  12.981  22.978  0.00  0.00    -0.208 NA
ATOM     11  O   UNL d   1     -47.124  12.744  21.711  0.00  0.00    -0.265 OA
BRANCH  10  12
ATOM     12  C   UNL d   1     -45.776  12.831  22.656  0.00  0.00     0.085 A 
ATOM     13  C   UNL d   1     -45.449  13.368  22.136  0.00  0.00     0.021 A 
ATOM     14  C   UNL d   1     -44.708  13.230  21.809  0.00  0.00     0.031 A 
ATOM     15  C   UNL d   1     -44.296  12.542  22.012  0.00  0.00     0.140 A 
ATOM     16  C   UNL d   1     -44.634  12.004  22.538  0.00  0.00     0.031 A 
ATOM     17  F   UNL d   1     -43.551  12.392  21.690  0.00  0.00    -0.204 F 
ATOM     18  C   UNL d   1     -45.377  12.149  22.862  0.00  0.00     0.021 A 
ENDBRANCH  10  12
ENDBRANCH   3   9
BRANCH   8  19
ATOM     19  C   UNL d   1     -50.457  15.608  23.195  0.00  0.00     0.006 C 
ATOM     20  C   UNL d   1     -51.064  15.844  23.698  0.00  0.00     0.001 C 
ENDBRANCH   8  19
TORSDOF 3
ENDMDL
MODEL 5
REMARK VINA RESULT:      -5.8      8.918     10.239
REMARK  3 active torsions:
REMARK  status: ('A' for Active; 'I' for Inactive)
REMARK    1  A    between atoms: C_7  and  C_3 
REMARK       I    between atoms: N_10  and  C_7 
REMARK    2  A    between atoms: C_19  and  C_9 
REMARK    3  A    between atoms: C_12  and  N_10 
ROOT
ATOM      1  C   UNL d   1     -39.392  14.161  21.455  0.00  0.00     0.059 A 
ATOM      2  C   UNL d   1     -40.102  13.921  21.801  0.00  0.00     0.013 A 
ATOM      3  C   UNL d   1     -40.105  14.614  20.307  0.00  0.00     0.088 A 
ATOM      4  S   UNL d   1     -39.392  14.507  20.710  0.00  0.00    -0.075 SA
ATOM      5  S   UNL d   1     -38.676  14.056  21.855  0.00  0.00    -0.080 SA
ATOM      6  C   UNL d   1     -40.814  14.374  20.653  0.00  0.00     0.012 A 
ATOM      7  C   UNL d   1     -39.391  13.470  22.945  0.00  0.00     0.007 A 
ATOM      8  C   UNL d   1     -38.682  13.710  22.599  0.00  0.00     0.030 A 
ENDROOT
BRANCH   3   9
ATOM      9  C   UNL d   1     -40.105  14.959  19.562  0.00  0.00     0.285 C 
ATOM     10  N   UNL d   1     -40.384  14.533  18.908  0.00  0.00    -0.208 NA
ATOM     11  O   UNL d   1     -39.831  15.721  19.463  0.00  0.00    -0.265 OA
BRANCH  10  12
ATOM     12  C   UNL d   1     -40.385  14.878  18.159  0.00  0.00     0.085 A 
ATOM     13  C   UNL d   1     -40.991  15.383  17.951  0.00  0.00     0.021 A 
ATOM     14  C   UNL d   1     -41.003  15.733  17.207  0.00  0.00     0.031 A 
ATOM     15  C   UNL d   1     -40.394  15.569  16.671  0.00  0.00     0.140 A 
ATOM     16  C   UNL d   1     -39.785  15.058  16.890  0.00  0.00     0.031 A 
ATOM     17  F   UNL d   1     -40.394  15.915  15.921  0.00  0.00    -0.204 F 
ATOM     18  C   UNL d   1     -39.779  14.710  17.636  0.00  0.00     0.021 A 
ENDBRANCH  10  12
ENDBRANCH   3   9
BRANCH   8  19
ATOM     19  C   UNL d   1     -37.975  13.600  23.008  0.00  0.00     0.006 C 
ATOM     20  C   UNL d   1     -37.940  13.085  23.648  0.00  0.00     0.001 C 
ENDBRANCH   8  19
TORSDOF 3
ENDMDL
MODEL 6
REMARK VINA RESULT:      -5.8      9.546     10.702
REMARK  3 active torsions:
REMARK  status: ('A' for Active; 'I' for Inactive)
REMARK    1  A    between atoms: C_7  and  C_3 
REMARK       I    between atoms: N_10  and  C_7 
REMARK    2  A    between atoms: C_19  and  C_9 
REMARK    3  A    between atoms: C_12  and  N_10 
ROOT
ATOM      1  C   UNL d   1     -39.626  14.967  20.354  0.00  0.00     0.059 A 
ATOM      2  C   UNL d   1     -40.373  15.317  20.377  0.00  0.00     0.013 A 
ATOM      3  C   UNL d   1     -39.833  14.618  18.988  0.00  0.00     0.088 A 
ATOM      4  S   UNL d   1     -39.355  14.618  19.661  0.00  0.00    -0.075 SA
ATOM      5  S   UNL d   1     -39.145  14.966  21.026  0.00  0.00    -0.080 SA
ATOM      6  C   UNL d   1     -40.580  14.967  19.011  0.00  0.00     0.012 A 
ATOM      7  C   UNL d   1     -40.167  15.665  21.738  0.00  0.00     0.007 A 
ATOM      8  C   UNL d   1     -39.420  15.315  21.715  0.00  0.00     0.030 A 
ENDROOT
BRANCH   3   9
ATOM      9  C   UNL d   1     -39.562  14.268  18.295  0.00  0.00     0.285 C 
ATOM     10  N   UNL d   1     -39.025  14.673  17.811  0.00  0.00    -0.208 NA
ATOM     11  O   UNL d   1     -39.821  13.524  18.083  0.00  0.00    -0.265 OA
BRANCH  10  12
ATOM     12  C   UNL d   1     -38.752  14.324  17.115  0.00  0.00     0.085 A 
ATOM     13  C   UNL d   1     -38.944  14.659  16.396  0.00  0.00     0.021 A 
ATOM     14  C   UNL d   1     -38.678  14.320  15.697  0.00  0.00     0.031 A 
ATOM     15  C   UNL d   1     -38.213  13.636  15.727  0.00  0.00     0.140 A 
ATOM     16  C   UNL d   1     -38.023  13.304  16.458  0.00  0.00     0.031 A 
ATOM     17  F   UNL d   1     -37.940  13.286  15.031  0.00  0.00    -0.204 F 
ATOM     18  C   UNL d   1     -38.293  13.649  17.155  0.00  0.00     0.021 A 
ENDBRANCH  10  12
ENDBRANCH   3   9
BRANCH   8  19
ATOM     19  C   UNL d   1     -38.950  15.320  22.391  0.00  0.00     0.006 C 
ATOM     20  C   UNL d   1     -39.028  15.919  22.949  0.00  0.00     0.001 C 
ENDBRANCH   8  19
TORSDOF 3
ENDMDL
MODEL 7
REMARK VINA RESULT:      -5.5      9.232     11.249
REMARK  3 active torsions:
REMARK  status: ('A' for Active; 'I' for Inactive)
REMARK    1  A    between atoms: C_7  and  C_3 
REMARK       I    between atoms: N_10  and  C_7 
REMARK    2  A    between atoms: C_19  and  C_9 
REMARK    3  A    between atoms: C_12  and  N_10 
ROOT
ATOM      1  C   UNL d   1     -38.518  13.896  16.939  0.00  0.00     0.059 A 
ATOM      2  C   UNL d   1     -38.381  13.087  17.025  0.00  0.00     0.013 A 
ATOM      3  C   UNL d   1     -38.858  13.985  18.320  0.00  0.00     0.088 A 
ATOM      4  S   UNL d   1     -38.756  14.345  17.584  0.00  0.00    -0.075 SA
ATOM      5  S   UNL d   1     -38.418  14.260  16.203  0.00  0.00    -0.080 SA
ATOM      6  C   UNL d   1     -38.721  13.176  18.406  0.00  0.00     0.012 A 
ATOM      7  C   UNL d   1     -38.043  12.997  15.649  0.00  0.00     0.007 A 
ATOM      8  C   UNL d   1     -38.180  13.806  15.563  0.00  0.00     0.030 A 
ENDROOT
BRANCH   3   9
ATOM      9  C   UNL d   1     -39.096  14.434  18.965  0.00  0.00     0.285 C 
ATOM     10  N   UNL d   1     -39.652  14.130  19.499  0.00  0.00    -0.208 NA
ATOM     11  O   UNL d   1     -38.786  15.180  19.082  0.00  0.00    -0.265 OA
BRANCH  10  12
ATOM     12  C   UNL d   1     -39.892  14.580  20.147  0.00  0.00     0.085 A 
ATOM     13  C   UNL d   1     -39.458  14.550  20.838  0.00  0.00     0.021 A 
ATOM     14  C   UNL d   1     -39.688  14.994  21.490  0.00  0.00     0.031 A 
ATOM     15  C   UNL d   1     -40.362  15.471  21.441  0.00  0.00     0.140 A 
ATOM     16  C   UNL d   1     -40.794  15.495  20.739  0.00  0.00     0.031 A 
ATOM     17  F   UNL d   1     -40.602  15.922  22.090  0.00  0.00    -0.204 F 
ATOM     18  C   UNL d   1     -40.559  15.048  20.089  0.00  0.00     0.021 A 
ENDBRANCH  10  12
ENDBRANCH   3   9
BRANCH   8  19
ATOM     19  C   UNL d   1     -38.076  14.158  14.825  0.00  0.00     0.006 C 
ATOM     20  C   UNL d   1     -37.946  13.695  14.157  0.00  0.00     0.001 C 
ENDBRANCH   8  19
TORSDOF 3
ENDMDL
MODEL 8
REMARK VINA RESULT:      -4.3      2.675      5.227
REMARK  3 active torsions:
REMARK  status: ('A' for Active; 'I' for Inactive)
REMARK    1  A    between atoms: C_7  and  C_3 
REMARK       I    between atoms: N_10  and  C_7 
REMARK    2  A    between atoms: C_19  and  C_9 
REMARK    3  A    between atoms: C_12  and  N_10 
ROOT
ATOM      1  C   UNL d   1     -45.716  13.130  22.426  0.00  0.00     0.059 A 
ATOM      2  C   UNL d   1     -45.675  12.493  22.949  0.00  0.00     0.013 A 
ATOM      3  C   UNL d   1     -46.998  13.473  22.944  0.00  0.00     0.088 A 
ATOM      4  S   UNL d   1     -46.375  13.620  22.422  0.00  0.00    -0.075 SA
ATOM      5  S   UNL d   1     -45.094  13.280  21.901  0.00  0.00    -0.080 SA
ATOM      6  C   UNL d   1     -46.957  12.837  23.468  0.00  0.00     0.012 A 
ATOM      7  C   UNL d   1     -44.397  12.151  22.432  0.00  0.00     0.007 A 
ATOM      8  C   UNL d   1     -44.438  12.788  21.909  0.00  0.00     0.030 A 
ENDROOT
BRANCH   3   9
ATOM      9  C   UNL d   1     -47.657  13.963  22.941  0.00  0.00     0.285 C 
ATOM     10  N   UNL d   1     -48.418  13.633  22.923  0.00  0.00    -0.208 NA
ATOM     11  O   UNL d   1     -47.567  14.774  22.955  0.00  0.00    -0.265 OA
BRANCH  10  12
ATOM     12  C   UNL d   1     -49.081  14.123  22.919  0.00  0.00     0.085 A 
ATOM     13  C   UNL d   1     -49.409  14.359  23.628  0.00  0.00     0.021 A 
ATOM     14  C   UNL d   1     -50.070  14.847  23.637  0.00  0.00     0.031 A 
ATOM     15  C   UNL d   1     -50.400  15.097  22.921  0.00  0.00     0.140 A 
ATOM     16  C   UNL d   1     -50.063  14.854  22.209  0.00  0.00     0.031 A 
ATOM     17  F   UNL d   1     -51.065  15.588  22.917  0.00  0.00    -0.204 F 
ATOM     18  C   UNL d   1     -49.400  14.365  22.207  0.00  0.00     0.021 A 
ENDBRANCH  10  12
ENDBRANCH   3   9
BRANCH   8  19
ATOM     19  C   UNL d   1     -43.813  12.926  21.391  0.00  0.00     0.006 C 
ATOM     20  C   UNL d   1     -43.099  12.529  21.484  0.00  0.00     0.001 C 
ENDBRANCH   8  19
TORSDOF 3
ENDMDL
