MODEL 1
REMARK VINA RESULT:      54.5      0.000      0.000
REMARK  4 active torsions:
REMARK  status: ('A' for Active; 'I' for Inactive)
REMARK    1  A    between atoms: C_8  and  C_4 
REMARK       I    between atoms: C_7  and  N_10 
REMARK    2  A    between atoms: C_16  and  C_7 
REMARK    3  A    between atoms: N_10  and  C_13 
REMARK    4  A    between atoms: C_17  and  C_16 
ROOT
ATOM      1  C   UNL d   1     -50.708  25.584  33.393  0.00  0.00     0.021 A 
ATOM      2  C   UNL d   1     -50.701  26.407  33.486  0.00  0.00     0.021 A 
ATOM      3  C   UNL d   1     -49.988  26.813  33.506  0.00  0.00     0.085 A 
ATOM      4  C   UNL d   1     -49.999  25.171  33.320  0.00  0.00     0.002 A 
ATOM      5  C   UNL d   1     -49.278  25.573  33.339  0.00  0.00     0.002 A 
ATOM      6  C   UNL d   1     -49.275  26.402  33.433  0.00  0.00     0.019 A 
ENDROOT
BRANCH   1   7
ATOM      7  C   UNL d   1     -51.425  25.176  33.373  0.00  0.00     0.118 A 
ATOM      8  N   UNL d   1     -52.170  25.515  33.360  0.00  0.00    -0.059 NA
ATOM      9  C   UNL d   1     -52.722  24.905  33.342  0.00  0.00     0.735 A 
ATOM     10  N   UNL d   1     -52.321  24.189  33.344  0.00  0.00    -0.136 N 
ATOM     11  N   UNL d   1     -53.551  24.925  33.323  0.00  0.00    -0.059 NA
ATOM     12  C   UNL d   1     -51.516  24.356  33.364  0.00  0.00     0.118 A 
ATOM     13  C   UNL d   1     -52.742  23.482  33.329  0.00  0.00     0.100 A 
ATOM     14  C   UNL d   1     -53.561  23.494  33.310  0.00  0.00     0.041 A 
ATOM     15  C   UNL d   1     -53.962  24.209  33.308  0.00  0.00     0.119 A 
ENDBRANCH   1   7
BRANCH   3  16
ATOM     16  N   UNL d   1     -49.985  27.632  33.598  0.00  0.00    -0.208 NA
ATOM     17  C   UNL d   1     -49.429  27.992  34.094  0.00  0.00     0.275 C 
ATOM     18  O   UNL d   1     -48.879  27.533  34.494  0.00  0.00    -0.266 OA
BRANCH  17  19
ATOM     19  C   UNL d   1     -49.425  28.805  34.187  0.00  0.00     0.036 C 
BRANCH  19  20
ATOM     20  C   UNL d   1     -48.777  29.168  34.535  0.00  0.00     0.023 C 
ATOM     21  C   UNL d   1     -48.401  29.581  33.914  0.00  0.00     0.004 C 
ATOM     22  C   UNL d   1     -48.802  28.957  35.322  0.00  0.00     0.004 C 
ATOM     23  C   UNL d   1     -48.121  29.537  34.883  0.00  0.00     0.004 C 
ENDBRANCH  19  20
ENDBRANCH  17  19
ENDBRANCH   3  16
TORSDOF 4
ENDMDL
