MODEL 1
REMARK VINA RESULT:      51.5      0.000      0.000
REMARK  3 active torsions:
REMARK  status: ('A' for Active; 'I' for Inactive)
REMARK    1  A    between atoms: N_2  and  S_1 
REMARK    2  A    between atoms: C_5  and  S_1 
REMARK    3  A    between atoms: C_3  and  N_4 
ROOT
ATOM      1  N   UNL d   1      14.310  14.838  -2.681  0.00  0.00    -0.226 N 
ATOM      2  N   UNL d   1      13.693  13.643  -3.631  0.00  0.00    -0.134 N 
ATOM      3  C   UNL d   1      14.219  14.078  -2.376  0.00  0.00     0.111 A 
ATOM      4  C   UNL d   1      14.093  15.000  -3.460  0.00  0.00     0.111 A 
ATOM      5  C   UNL d   1      13.784  14.402  -3.935  0.00  0.00     0.118 A 
ATOM      6  C   UNL d   1      13.911  13.481  -2.851  0.00  0.00     0.118 A 
ENDROOT
BRANCH   1   7
ATOM      7  S   UNL d   1      14.623  15.438  -2.194  0.00  0.00     0.271 S 
ATOM      8  O   UNL d   1      14.749  15.913  -2.863  0.00  0.00    -0.200 OA
ATOM      9  O   UNL d   1      14.493  14.954  -1.526  0.00  0.00    -0.200 OA
BRANCH   7  10
ATOM     10  C   UNL d   1      14.934  16.031  -1.701  0.00  0.00     0.104 A 
ATOM     11  C   UNL d   1      15.053  16.797  -2.019  0.00  0.00     0.015 A 
ATOM     12  C   UNL d   1      15.366  17.399  -1.529  0.00  0.00     0.030 A 
ATOM     13  C   UNL d   1      15.553  17.229  -0.734  0.00  0.00     0.140 A 
ATOM     14  C   UNL d   1      15.431  16.462  -0.422  0.00  0.00     0.030 A 
ATOM     15  F   UNL d   1      15.862  17.824  -0.249  0.00  0.00    -0.204 F 
ATOM     16  C   UNL d   1      15.119  15.867  -0.920  0.00  0.00     0.015 A 
ENDBRANCH   7  10
ENDBRANCH   1   7
BRANCH   2  17
ATOM     17  C   UNL d   1      13.389  13.057  -4.104  0.00  0.00     0.735 A 
ATOM     18  N   UNL d   1      13.390  13.138  -4.925  0.00  0.00    -0.059 NA
ATOM     19  C   UNL d   1      13.081  12.544  -5.399  0.00  0.00     0.120 A 
ATOM     20  C   UNL d   1      12.770  11.866  -5.052  0.00  0.00     0.043 A 
ATOM     21  C   UNL d   1      12.769  11.784  -4.231  0.00  0.00     0.120 A 
ATOM     22  N   UNL d   1      13.077  12.378  -3.766  0.00  0.00    -0.059 NA
ENDBRANCH   2  17
TORSDOF 3
ENDMDL
