MODEL 1
REMARK VINA RESULT:       7.5      0.000      0.000
REMARK  2 active torsions:
REMARK  status: ('A' for Active; 'I' for Inactive)
REMARK    1  A    between atoms: C_4  and  S_1 
REMARK    2  A    between atoms: C_6  and  C_4 
ROOT
ATOM      1  C   UNL d   1     -52.003  24.361  33.310  0.00  0.00     0.013 A 
ATOM      2  C   UNL d   1     -51.179  24.297  33.315  0.00  0.00     0.001 A 
ATOM      3  C   UNL d   1     -52.363  25.094  33.308  0.00  0.00     0.001 A 
ATOM      4  C   UNL d   1     -51.906  25.775  33.311  0.00  0.00     0.000 A 
ATOM      5  C   UNL d   1     -50.718  24.978  33.319  0.00  0.00     0.000 A 
ATOM      6  C   UNL d   1     -51.078  25.722  33.316  0.00  0.00     0.000 A 
ENDROOT
BRANCH   1   7
ATOM      7  C   UNL d   1     -52.462  23.674  33.307  0.00  0.00     0.119 C 
BRANCH   7   8
ATOM      8  S   UNL d   1     -52.980  23.519  33.932  0.00  0.00     0.303 S 
ATOM      9  O   UNL d   1     -53.664  23.685  33.391  0.00  0.00    -0.197 OA
ATOM     10  O   UNL d   1     -52.324  23.338  34.534  0.00  0.00    -0.197 OA
ATOM     11  N   UNL d   1     -53.487  23.374  34.516  0.00  0.00    -0.043 N 
ENDBRANCH   7   8
ENDBRANCH   1   7
TORSDOF 2
ENDMDL
MODEL 2
REMARK VINA RESULT:       7.7      2.086      2.672
REMARK  2 active torsions:
REMARK  status: ('A' for Active; 'I' for Inactive)
REMARK    1  A    between atoms: C_4  and  S_1 
REMARK    2  A    between atoms: C_6  and  C_4 
ROOT
ATOM      1  C   UNL d   1     -52.017  24.732  33.317  0.00  0.00     0.013 A 
ATOM      2  C   UNL d   1     -52.840  24.643  33.324  0.00  0.00     0.001 A 
ATOM      3  C   UNL d   1     -51.529  24.077  33.319  0.00  0.00     0.001 A 
ATOM      4  C   UNL d   1     -51.853  23.324  33.329  0.00  0.00     0.000 A 
ATOM      5  C   UNL d   1     -53.167  23.888  33.334  0.00  0.00     0.000 A 
ATOM      6  C   UNL d   1     -52.677  23.224  33.337  0.00  0.00     0.000 A 
ENDROOT
BRANCH   1   7
ATOM      7  C   UNL d   1     -51.692  25.490  33.307  0.00  0.00     0.119 C 
BRANCH   7   8
ATOM      8  S   UNL d   1     -50.877  25.593  33.393  0.00  0.00     0.303 S 
ATOM      9  O   UNL d   1     -51.009  26.467  33.476  0.00  0.00    -0.197 OA
ATOM     10  O   UNL d   1     -50.677  24.710  33.315  0.00  0.00    -0.197 OA
ATOM     11  N   UNL d   1     -50.103  25.710  33.477  0.00  0.00    -0.043 N 
ENDBRANCH   7   8
ENDBRANCH   1   7
TORSDOF 2
ENDMDL
