MODEL 1
REMARK VINA RESULT:      58.4      0.000      0.000
REMARK  5 active torsions:
REMARK  status: ('A' for Active; 'I' for Inactive)
REMARK    1  A    between atoms: C_12  and  C_3 
REMARK    2  A    between atoms: C_13  and  N_5 
REMARK    3  A    between atoms: C_11  and  C_6 
REMARK    4  A    between atoms: O_24  and  C_12 
REMARK    5  A    between atoms: C_14  and  C_13 
ROOT
ATOM      1  C   UNL d   1     -51.322  26.033  33.382  0.00  0.00     0.080 A 
ATOM      2  C   UNL d   1     -50.510  26.228  33.406  0.00  0.00     0.267 A 
ATOM      3  C   UNL d   1     -52.353  25.051  33.381  0.00  0.00     0.106 A 
ATOM      4  C   UNL d   1     -51.881  26.632  33.335  0.00  0.00     0.108 A 
ATOM      5  N   UNL d   1     -50.272  27.024  33.383  0.00  0.00    -0.271 N 
ATOM      6  C   UNL d   1     -51.558  25.242  33.404  0.00  0.00     0.015 A 
ATOM      7  C   UNL d   1     -52.921  25.653  33.334  0.00  0.00     0.208 A 
ATOM      8  O   UNL d   1     -52.686  26.443  33.311  0.00  0.00    -0.288 OA
ATOM      9  C   UNL d   1     -51.655  27.425  33.312  0.00  0.00     0.043 A 
ATOM     10  C   UNL d   1     -50.854  27.626  33.336  0.00  0.00     0.069 A 
ATOM     11  O   UNL d   1     -49.937  25.624  33.453  0.00  0.00    -0.267 OA
ATOM     12  N   UNL d   1     -53.725  25.459  33.310  0.00  0.00    -0.121 N 
ATOM     13  C   UNL d   1     -50.620  28.428  33.313  0.00  0.00     0.019 C 
ENDROOT
BRANCH   6  14
ATOM     14  C   UNL d   1     -50.990  24.647  33.451  0.00  0.00     0.001 A 
ATOM     15  C   UNL d   1     -50.208  24.838  33.639  0.00  0.00     0.011 A 
ATOM     16  C   UNL d   1     -49.638  24.247  33.686  0.00  0.00     0.058 A 
ATOM     17 CL   UNL d   1     -48.857  24.446  33.875  0.00  0.00    -0.082 Cl
ATOM     18  C   UNL d   1     -49.850  23.456  33.545  0.00  0.00     0.011 A 
ATOM     19  C   UNL d   1     -50.631  23.264  33.358  0.00  0.00     0.001 A 
ATOM     20  C   UNL d   1     -51.201  23.860  33.311  0.00  0.00     0.000 A 
ENDBRANCH   6  14
BRANCH   3  21
ATOM     21  C   UNL d   1     -52.588  24.262  33.403  0.00  0.00     0.299 C 
ATOM     22  O   UNL d   1     -52.037  23.660  33.307  0.00  0.00    -0.259 OA
BRANCH  21  23
ATOM     23  O   UNL d   1     -53.384  24.070  33.524  0.00  0.00    -0.296 OA
ATOM     24  C   UNL d   1     -53.597  23.464  34.050  0.00  0.00     0.185 C 
ENDBRANCH  21  23
ENDBRANCH   3  21
BRANCH   5  25
ATOM     25  C   UNL d   1     -49.468  27.218  33.407  0.00  0.00     0.108 C 
BRANCH  25  26
ATOM     26  C   UNL d   1     -49.152  27.585  34.075  0.00  0.00     0.118 A 
ATOM     27  O   UNL d   1     -49.423  27.502  34.852  0.00  0.00    -0.304 OA
ATOM     28  C   UNL d   1     -48.949  27.965  35.343  0.00  0.00     0.123 A 
ATOM     29  C   UNL d   1     -48.383  28.335  34.871  0.00  0.00     0.029 A 
ATOM     30  C   UNL d   1     -48.505  28.102  34.083  0.00  0.00     0.028 A 
ENDBRANCH  25  26
ENDBRANCH   5  25
TORSDOF 5
ENDMDL
