MODEL 1
REMARK VINA RESULT:      74.7      0.000      0.000
REMARK  5 active torsions:
REMARK  status: ('A' for Active; 'I' for Inactive)
REMARK    1  A    between atoms: C_11  and  N_3 
REMARK    2  A    between atoms: C_10  and  C_4 
REMARK    3  A    between atoms: C_15  and  C_11 
REMARK    4  A    between atoms: N_13  and  C_16 
REMARK    5  A    between atoms: C_16  and  C_15 
ROOT
ATOM      1  C   UNL d   1      58.914  49.708  50.875  0.00  0.00     0.137 A 
ATOM      2  N   UNL d   1      58.682  49.708  51.677  0.00  0.00    -0.259 N 
ATOM      3  N   UNL d   1      59.740  49.708  50.863  0.00  0.00    -0.287 N 
ATOM      4  C   UNL d   1      58.347  49.707  50.282  0.00  0.00     0.054 A 
ATOM      5  C   UNL d   1      57.875  49.707  51.870  0.00  0.00     0.266 A 
ATOM      6  C   UNL d   1      59.360  49.708  52.147  0.00  0.00     0.084 A 
ATOM      7  C   UNL d   1      60.023  49.708  51.636  0.00  0.00     0.082 A 
ATOM      8  C   UNL d   1      57.544  49.707  50.473  0.00  0.00     0.009 A 
ATOM      9  C   UNL d   1      57.300  49.707  51.268  0.00  0.00     0.061 A 
ATOM     10  O   UNL d   1      57.638  49.707  52.665  0.00  0.00    -0.267 OA
ATOM     11  C   UNL d   1      59.474  49.708  52.961  0.00  0.00     0.019 A 
ATOM     12  C   UNL d   1      56.971  49.707  49.873  0.00  0.00     0.000 C 
ATOM     13  C   UNL d   1      60.774  49.708  51.961  0.00  0.00     0.019 A 
ATOM     14  C   UNL d   1      60.234  49.708  53.269  0.00  0.00     0.002 A 
ATOM     15  C   UNL d   1      60.891  49.708  52.763  0.00  0.00     0.002 A 
ENDROOT
BRANCH   3  16
ATOM     16  C   UNL d   1      60.397  49.708  50.367  0.00  0.00     0.125 C 
BRANCH  16  17
ATOM     17  C   UNL d   1      60.877  49.038  50.319  0.00  0.00     0.231 C 
ATOM     18  O   UNL d   1      61.685  49.094  50.471  0.00  0.00    -0.283 OA
BRANCH  17  19
ATOM     19  C   UNL d   1      60.548  48.310  50.119  0.00  0.00     0.124 C 
BRANCH  19  20
ATOM     20  N   UNL d   1      61.031  47.650  50.027  0.00  0.00    -0.300 N 
ATOM     21  C   UNL d   1      60.754  46.908  50.255  0.00  0.00     0.080 A 
ATOM     22  C   UNL d   1      61.234  46.241  50.166  0.00  0.00     0.019 A 
ATOM     23  C   UNL d   1      61.992  46.320  49.848  0.00  0.00     0.003 A 
ATOM     24  C   UNL d   1      62.270  47.062  49.620  0.00  0.00     0.019 A 
ATOM     25  C   UNL d   1      62.475  45.661  49.757  0.00  0.00     0.000 C 
ATOM     26  C   UNL d   1      61.790  47.729  49.709  0.00  0.00     0.080 A 
ENDBRANCH  19  20
ENDBRANCH  17  19
ENDBRANCH  16  17
ENDBRANCH   3  16
BRANCH   4  27
ATOM     27  C   UNL d   1      58.575  49.708  49.494  0.00  0.00     0.125 C 
ATOM     28  N   UNL d   1      58.064  49.452  48.902  0.00  0.00    -0.146 N 
ENDBRANCH   4  27
TORSDOF 5
ENDMDL
