MODEL 1
REMARK VINA RESULT:      56.1      0.000      0.000
REMARK  4 active torsions:
REMARK  status: ('A' for Active; 'I' for Inactive)
REMARK    1  A    between atoms: N_5  and  C_1 
REMARK    2  A    between atoms: C_9  and  C_2 
REMARK       I    between atoms: C_6  and  N_5 
REMARK    3  A    between atoms: C_8  and  C_6 
REMARK    4  A    between atoms: N_10  and  C_9 
ROOT
ATOM      1  C   UNL d   1     -54.779-101.558 -43.559  0.00  0.00     0.115 A 
ATOM      2  C   UNL d   1     -54.871-100.943 -44.096  0.00  0.00     0.042 A 
ATOM      3  S   UNL d   1     -54.755-102.271 -43.988  0.00  0.00    -0.068 SA
ATOM      4  C   UNL d   1     -54.904-101.269 -44.852  0.00  0.00     0.009 A 
ATOM      5  C   UNL d   1     -54.832-102.089 -44.775  0.00  0.00     0.031 A 
ATOM      6  C   UNL d   1     -54.993-100.862 -45.564  0.00  0.00     0.001 C 
ATOM      7  C   UNL d   1     -54.837-102.642 -45.392  0.00  0.00     0.007 C 
ENDROOT
BRANCH   1   8
ATOM      8  N   UNL d   1     -54.728-101.398 -42.749  0.00  0.00    -0.201 NA
ATOM      9  C   UNL d   1     -54.894-101.988 -42.201  0.00  0.00     0.282 C 
ATOM     10  O   UNL d   1     -55.112-102.737 -42.460  0.00  0.00    -0.265 OA
BRANCH   9  11
ATOM     11  C   UNL d   1     -54.843-101.828 -41.395  0.00  0.00     0.085 A 
ATOM     12  C   UNL d   1     -54.873-101.053 -41.127  0.00  0.00     0.145 A 
ATOM     13  F   UNL d   1     -54.954-100.431 -41.678  0.00  0.00    -0.204 F 
ATOM     14  C   UNL d   1     -54.822-100.894 -40.321  0.00  0.00     0.030 A 
ATOM     15  C   UNL d   1     -54.742-101.510 -39.784  0.00  0.00     0.002 A 
ATOM     16  C   UNL d   1     -54.712-102.290 -40.052  0.00  0.00     0.000 A 
ATOM     17  C   UNL d   1     -54.763-102.449 -40.858  0.00  0.00     0.007 A 
ENDBRANCH   9  11
ENDBRANCH   1   8
BRANCH   2  18
ATOM     18  C   UNL d   1     -54.921-100.134 -43.908  0.00  0.00     0.082 C 
BRANCH  18  19
ATOM     19  N   UNL d   1     -55.558 -99.687 -44.173  0.00  0.00    -0.302 N 
ATOM     20  C   UNL d   1     -56.227 -99.599 -43.694  0.00  0.00     0.080 A 
ATOM     21  C   UNL d   1     -56.869 -99.149 -43.959  0.00  0.00     0.019 A 
ATOM     22  C   UNL d   1     -56.840 -98.791 -44.701  0.00  0.00     0.003 A 
ATOM     23  C   UNL d   1     -56.171 -98.879 -45.180  0.00  0.00     0.019 A 
ATOM     24  C   UNL d   1     -55.531 -99.326 -44.917  0.00  0.00     0.080 A 
ENDBRANCH  18  19
ENDBRANCH   2  18
TORSDOF 4
ENDMDL
