MODEL 1
REMARK VINA RESULT:      -4.9      0.000      0.000
REMARK  4 active torsions:
REMARK  status: ('A' for Active; 'I' for Inactive)
REMARK    1  A    between atoms: N_5  and  S_1 
REMARK    2  A    between atoms: C_6  and  S_1 
REMARK    3  A    between atoms: N_2  and  C_7 
REMARK    4  A    between atoms: C_18  and  N_5 
ROOT
ATOM      1  C   UNL d   1     -42.092-122.751 -50.862  0.00  0.00     0.117 A 
ATOM      2  C   UNL d   1     -42.273-122.995 -49.249  0.00  0.00     0.070 A 
ATOM      3  C   UNL d   1     -42.618-122.298 -50.439  0.00  0.00     0.015 A 
ATOM      4  C   UNL d   1     -41.650-123.333 -50.477  0.00  0.00     0.015 A 
ATOM      5  C   UNL d   1     -42.711-122.418 -49.630  0.00  0.00     0.018 A 
ATOM      6  C   UNL d   1     -41.745-123.451 -49.670  0.00  0.00     0.018 A 
ENDROOT
BRANCH   1   7
ATOM      7  S   UNL d   1     -41.999-122.630 -51.672  0.00  0.00     0.327 S 
ATOM      8  O   UNL d   1     -42.161-123.434 -51.806  0.00  0.00    -0.186 OA
ATOM      9  O   UNL d   1     -41.842-121.841 -51.531  0.00  0.00    -0.186 OA
BRANCH   7  10
ATOM     10  N   UNL d   1     -41.909-122.517 -52.478  0.00  0.00    -0.317 NA
BRANCH  10  11
ATOM     11  C   UNL d   1     -41.824-122.405 -53.291  0.00  0.00     0.145 A 
ATOM     12  C   UNL d   1     -41.257-122.841 -53.718  0.00  0.00     0.033 A 
ATOM     13  C   UNL d   1     -41.172-122.729 -54.531  0.00  0.00     0.003 A 
ATOM     14  C   UNL d   1     -41.641-122.190 -54.927  0.00  0.00     0.000 A 
ATOM     15  C   UNL d   1     -42.213-121.748 -54.511  0.00  0.00     0.003 A 
ATOM     16  C   UNL d   1     -41.555-122.080 -55.743  0.00  0.00     0.000 C 
ATOM     17  C   UNL d   1     -42.299-121.860 -53.692  0.00  0.00     0.033 A 
ENDBRANCH  10  11
ENDBRANCH   7  10
ENDBRANCH   1   7
BRANCH   2  18
ATOM     18  N   UNL d   1     -42.366-123.116 -48.440  0.00  0.00    -0.242 N 
ATOM     19  C   UNL d   1     -41.836-122.882 -47.846  0.00  0.00     0.267 A 
ATOM     20  C   UNL d   1     -42.145-123.114 -47.114  0.00  0.00     0.066 A 
ATOM     21  O   UNL d   1     -41.123-122.486 -47.964  0.00  0.00    -0.267 OA
ATOM     22  C   UNL d   1     -42.865-123.490 -47.254  0.00  0.00     0.066 A 
ATOM     23  C   UNL d   1     -43.002-123.493 -48.069  0.00  0.00     0.267 A 
ATOM     24  O   UNL d   1     -43.664-123.817 -48.448  0.00  0.00    -0.267 OA
ENDBRANCH   2  18
TORSDOF 4
ENDMDL
MODEL 2
REMARK VINA RESULT:      -4.7      1.216      5.446
REMARK  4 active torsions:
REMARK  status: ('A' for Active; 'I' for Inactive)
REMARK    1  A    between atoms: N_5  and  S_1 
REMARK    2  A    between atoms: C_6  and  S_1 
REMARK    3  A    between atoms: N_2  and  C_7 
REMARK    4  A    between atoms: C_18  and  N_5 
ROOT
ATOM      1  C   UNL d   1     -41.741-122.811 -51.600  0.00  0.00     0.117 A 
ATOM      2  C   UNL d   1     -41.710-122.612 -53.229  0.00  0.00     0.070 A 
ATOM      3  C   UNL d   1     -42.224-123.261 -52.073  0.00  0.00     0.015 A 
ATOM      4  C   UNL d   1     -41.235-122.254 -51.942  0.00  0.00     0.015 A 
ATOM      5  C   UNL d   1     -42.210-123.164 -52.891  0.00  0.00     0.018 A 
ATOM      6  C   UNL d   1     -41.224-122.159 -52.757  0.00  0.00     0.018 A 
ENDROOT
BRANCH   1   7
ATOM      7  S   UNL d   1     -41.755-122.909 -50.782  0.00  0.00     0.327 S 
ATOM      8  O   UNL d   1     -41.686-122.085 -50.687  0.00  0.00    -0.186 OA
ATOM      9  O   UNL d   1     -41.822-123.716 -50.885  0.00  0.00    -0.186 OA
BRANCH   7  10
ATOM     10  N   UNL d   1     -41.768-122.999 -49.968  0.00  0.00    -0.317 NA
BRANCH  10  11
ATOM     11  C   UNL d   1     -41.788-123.089 -49.148  0.00  0.00     0.145 A 
ATOM     12  C   UNL d   1     -42.482-122.909 -48.723  0.00  0.00     0.033 A 
ATOM     13  C   UNL d   1     -42.502-122.999 -47.903  0.00  0.00     0.003 A 
ATOM     14  C   UNL d   1     -41.844-123.265 -47.498  0.00  0.00     0.000 A 
ATOM     15  C   UNL d   1     -41.144-123.448 -47.912  0.00  0.00     0.003 A 
ATOM     16  C   UNL d   1     -41.866-123.354 -46.676  0.00  0.00     0.000 C 
ATOM     17  C   UNL d   1     -41.122-123.357 -48.738  0.00  0.00     0.033 A 
ENDBRANCH  10  11
ENDBRANCH   7  10
ENDBRANCH   1   7
BRANCH   2  18
ATOM     18  N   UNL d   1     -41.696-122.514 -54.047  0.00  0.00    -0.242 N 
ATOM     19  C   UNL d   1     -41.425-123.069 -54.602  0.00  0.00     0.267 A 
ATOM     20  C   UNL d   1     -41.511-122.743 -55.358  0.00  0.00     0.066 A 
ATOM     21  O   UNL d   1     -41.123-123.816 -54.430  0.00  0.00    -0.267 OA
ATOM     22  C   UNL d   1     -41.833-121.989 -55.272  0.00  0.00     0.066 A 
ATOM     23  C   UNL d   1     -41.948-121.847 -54.466  0.00  0.00     0.267 A 
ATOM     24  O   UNL d   1     -42.261-121.154 -54.136  0.00  0.00    -0.267 OA
ENDBRANCH   2  18
TORSDOF 4
ENDMDL
MODEL 3
REMARK VINA RESULT:      -2.8      0.271      1.254
REMARK  4 active torsions:
REMARK  status: ('A' for Active; 'I' for Inactive)
REMARK    1  A    between atoms: N_5  and  S_1 
REMARK    2  A    between atoms: C_6  and  S_1 
REMARK    3  A    between atoms: N_2  and  C_7 
REMARK    4  A    between atoms: C_18  and  N_5 
ROOT
ATOM      1  C   UNL d   1     -42.167-122.655 -50.837  0.00  0.00     0.117 A 
ATOM      2  C   UNL d   1     -42.307-122.845 -49.213  0.00  0.00     0.070 A 
ATOM      3  C   UNL d   1     -41.564-123.000 -50.416  0.00  0.00     0.015 A 
ATOM      4  C   UNL d   1     -42.849-122.402 -50.447  0.00  0.00     0.015 A 
ATOM      5  C   UNL d   1     -41.631-123.096 -49.600  0.00  0.00     0.018 A 
ATOM      6  C   UNL d   1     -42.913-122.499 -49.633  0.00  0.00     0.018 A 
ENDROOT
BRANCH   1   7
ATOM      7  S   UNL d   1     -42.098-122.559 -51.653  0.00  0.00     0.327 S 
ATOM      8  O   UNL d   1     -42.355-123.343 -51.762  0.00  0.00    -0.186 OA
ATOM      9  O   UNL d   1     -41.846-121.792 -51.537  0.00  0.00    -0.186 OA
BRANCH   7  10
ATOM     10  N   UNL d   1     -42.032-122.471 -52.465  0.00  0.00    -0.317 NA
BRANCH  10  11
ATOM     11  C   UNL d   1     -41.964-122.389 -53.283  0.00  0.00     0.145 A 
ATOM     12  C   UNL d   1     -42.640-122.244 -53.748  0.00  0.00     0.033 A 
ATOM     13  C   UNL d   1     -42.572-122.161 -54.566  0.00  0.00     0.003 A 
ATOM     14  C   UNL d   1     -41.844-122.221 -54.930  0.00  0.00     0.000 A 
ATOM     15  C   UNL d   1     -41.160-122.366 -54.476  0.00  0.00     0.003 A 
ATOM     16  C   UNL d   1     -41.777-122.138 -55.751  0.00  0.00     0.000 C 
ATOM     17  C   UNL d   1     -41.227-122.449 -53.651  0.00  0.00     0.033 A 
ENDBRANCH  10  11
ENDBRANCH   7  10
ENDBRANCH   1   7
BRANCH   2  18
ATOM     18  N   UNL d   1     -42.375-122.941 -48.398  0.00  0.00    -0.242 N 
ATOM     19  C   UNL d   1     -43.000-123.313 -47.999  0.00  0.00     0.267 A 
ATOM     20  C   UNL d   1     -42.845-123.286 -47.187  0.00  0.00     0.066 A 
ATOM     21  O   UNL d   1     -43.663-123.653 -48.352  0.00  0.00    -0.267 OA
ATOM     22  C   UNL d   1     -42.126-122.897 -47.082  0.00  0.00     0.066 A 
ATOM     23  C   UNL d   1     -41.835-122.684 -47.826  0.00  0.00     0.267 A 
ATOM     24  O   UNL d   1     -41.125-122.283 -47.972  0.00  0.00    -0.267 OA
ENDBRANCH   2  18
TORSDOF 4
ENDMDL
