MODEL 1
REMARK VINA RESULT:      -3.2      0.000      0.000
REMARK  3 active torsions:
REMARK  status: ('A' for Active; 'I' for Inactive)
REMARK    1  A    between atoms: C_9  and  N_1 
REMARK       I    between atoms: C_8  and  N_2 
REMARK    2  A    between atoms: C_3  and  C_9 
REMARK    3  A    between atoms: C_13  and  C_8 
ROOT
ATOM      1  N   UNL d   1      57.617   0.336  31.746  0.00  0.00    -0.193 N 
ATOM      2  C   UNL d   1      58.245   0.520  30.580  0.00  0.00     0.055 A 
ATOM      3  N   UNL d   1      57.064   0.217  31.127  0.00  0.00    -0.163 NA
ATOM      4  C   UNL d   1      58.334   0.521  31.399  0.00  0.00     0.089 A 
ATOM      5  C   UNL d   1      57.452   0.276  32.549  0.00  0.00     0.303 C 
ATOM      6  C   UNL d   1      57.463   0.333  30.411  0.00  0.00     0.104 A 
ATOM      7  O   UNL d   1      58.065   0.412  33.097  0.00  0.00    -0.263 OA
ATOM      8  C   UNL d   1      59.032   0.682  31.814  0.00  0.00     0.021 C 
ATOM      9  C   UNL d   1      57.124   0.269  29.658  0.00  0.00     0.023 C 
ENDROOT
BRANCH   2  10
ATOM     10  C   UNL d   1      58.845   0.682  30.025  0.00  0.00     0.089 C 
BRANCH  10  11
ATOM     11  N   UNL d   1      59.310   0.068  29.724  0.00  0.00    -0.240 N 
ATOM     12  C   UNL d   1      59.086  -0.459  29.139  0.00  0.00     0.267 A 
ATOM     13  C   UNL d   1      59.722  -0.975  29.017  0.00  0.00     0.061 A 
ATOM     14  O   UNL d   1      58.360  -0.472  28.746  0.00  0.00    -0.267 OA
ATOM     15  C   UNL d   1      59.814  -1.610  28.502  0.00  0.00     0.005 A 
ATOM     16  C   UNL d   1      60.331  -0.766  29.522  0.00  0.00     0.061 A 
ATOM     17  C   UNL d   1      60.518  -2.036  28.494  0.00  0.00     0.000 A 
ATOM     18  C   UNL d   1      61.133  -1.826  29.004  0.00  0.00     0.000 A 
ATOM     19  C   UNL d   1      61.041  -1.191  29.519  0.00  0.00     0.005 A 
ATOM     20  C   UNL d   1      60.082  -0.116  29.968  0.00  0.00     0.267 A 
ATOM     21  O   UNL d   1      60.523   0.276  30.548  0.00  0.00    -0.267 OA
ENDBRANCH  10  11
ENDBRANCH   2  10
BRANCH   5  22
ATOM     22  C   UNL d   1      56.692   0.082  32.801  0.00  0.00     0.158 A 
ATOM     23  O   UNL d   1      56.091   0.621  32.976  0.00  0.00    -0.300 OA
ATOM     24  C   UNL d   1      55.427   0.188  33.206  0.00  0.00     0.123 A 
ATOM     25  C   UNL d   1      55.613  -0.606  33.173  0.00  0.00     0.029 A 
ATOM     26  C   UNL d   1      56.400  -0.675  32.922  0.00  0.00     0.032 A 
ENDBRANCH   5  22
TORSDOF 3
ENDMDL
MODEL 2
REMARK VINA RESULT:      -2.6      1.240      4.438
REMARK  3 active torsions:
REMARK  status: ('A' for Active; 'I' for Inactive)
REMARK    1  A    between atoms: C_9  and  N_1 
REMARK       I    between atoms: C_8  and  N_2 
REMARK    2  A    between atoms: C_3  and  C_9 
REMARK    3  A    between atoms: C_13  and  C_8 
ROOT
ATOM      1  N   UNL d   1      58.984  -1.203  29.674  0.00  0.00    -0.193 N 
ATOM      2  C   UNL d   1      58.683   0.029  30.096  0.00  0.00     0.055 A 
ATOM      3  N   UNL d   1      59.684  -0.741  29.660  0.00  0.00    -0.163 NA
ATOM      4  C   UNL d   1      58.380  -0.722  29.942  0.00  0.00     0.089 A 
ATOM      5  C   UNL d   1      58.932  -1.994  29.455  0.00  0.00     0.303 C 
ATOM      6  C   UNL d   1      59.486   0.018  29.923  0.00  0.00     0.104 A 
ATOM      7  O   UNL d   1      58.193  -2.376  29.500  0.00  0.00    -0.263 OA
ATOM      8  C   UNL d   1      57.593  -0.960  30.039  0.00  0.00     0.021 C 
ATOM      9  C   UNL d   1      60.013   0.653  29.996  0.00  0.00     0.023 C 
ENDROOT
BRANCH   2  10
ATOM     10  C   UNL d   1      58.247   0.681  30.378  0.00  0.00     0.089 C 
BRANCH  10  11
ATOM     11  N   UNL d   1      57.951   0.681  31.150  0.00  0.00    -0.240 N 
ATOM     12  C   UNL d   1      57.160   0.681  31.360  0.00  0.00     0.267 A 
ATOM     13  C   UNL d   1      57.126   0.681  32.187  0.00  0.00     0.061 A 
ATOM     14  O   UNL d   1      56.518   0.681  30.841  0.00  0.00    -0.267 OA
ATOM     15  C   UNL d   1      56.484   0.681  32.702  0.00  0.00     0.005 A 
ATOM     16  C   UNL d   1      57.888   0.682  32.482  0.00  0.00     0.061 A 
ATOM     17  C   UNL d   1      56.609   0.682  33.516  0.00  0.00     0.000 A 
ATOM     18  C   UNL d   1      57.378   0.682  33.815  0.00  0.00     0.000 A 
ATOM     19  C   UNL d   1      58.020   0.682  33.299  0.00  0.00     0.005 A 
ATOM     20  C   UNL d   1      58.411   0.682  31.842  0.00  0.00     0.267 A 
ATOM     21  O   UNL d   1      59.237   0.682  31.886  0.00  0.00    -0.267 OA
ENDBRANCH  10  11
ENDBRANCH   2  10
BRANCH   5  22
ATOM     22  C   UNL d   1      59.603  -2.396  29.196  0.00  0.00     0.158 A 
ATOM     23  O   UNL d   1      60.026  -2.233  28.506  0.00  0.00    -0.300 OA
ATOM     24  C   UNL d   1      60.653  -2.768  28.465  0.00  0.00     0.123 A 
ATOM     25  C   UNL d   1      60.620  -3.254  29.119  0.00  0.00     0.029 A 
ATOM     26  C   UNL d   1      59.966  -3.025  29.577  0.00  0.00     0.032 A 
ENDBRANCH   5  22
TORSDOF 3
ENDMDL
MODEL 3
REMARK VINA RESULT:      -2.6      1.278      1.967
REMARK  3 active torsions:
REMARK  status: ('A' for Active; 'I' for Inactive)
REMARK    1  A    between atoms: C_9  and  N_1 
REMARK       I    between atoms: C_8  and  N_2 
REMARK    2  A    between atoms: C_3  and  C_9 
REMARK    3  A    between atoms: C_13  and  C_8 
ROOT
ATOM      1  N   UNL d   1      57.531  -0.515  31.119  0.00  0.00    -0.193 N 
ATOM      2  C   UNL d   1      58.229  -0.581  29.981  0.00  0.00     0.055 A 
ATOM      3  N   UNL d   1      58.015   0.168  31.066  0.00  0.00    -0.163 NA
ATOM      4  C   UNL d   1      57.671  -0.964  30.450  0.00  0.00     0.089 A 
ATOM      5  C   UNL d   1      57.016  -0.687  31.736  0.00  0.00     0.303 C 
ATOM      6  C   UNL d   1      58.442   0.117  30.359  0.00  0.00     0.104 A 
ATOM      7  O   UNL d   1      56.573  -1.391  31.706  0.00  0.00    -0.263 OA
ATOM      8  C   UNL d   1      57.306  -1.687  30.282  0.00  0.00     0.021 C 
ATOM      9  C   UNL d   1      58.987   0.677  30.087  0.00  0.00     0.023 C 
ENDROOT
BRANCH   2  10
ATOM     10  C   UNL d   1      58.524  -0.856  29.251  0.00  0.00     0.089 C 
BRANCH  10  11
ATOM     11  N   UNL d   1      59.060  -1.486  29.230  0.00  0.00    -0.240 N 
ATOM     12  C   UNL d   1      59.860  -1.439  29.396  0.00  0.00     0.267 A 
ATOM     13  C   UNL d   1      60.174  -2.199  29.305  0.00  0.00     0.061 A 
ATOM     14  O   UNL d   1      60.274  -0.758  29.613  0.00  0.00    -0.267 OA
ATOM     15  C   UNL d   1      60.941  -2.483  29.398  0.00  0.00     0.005 A 
ATOM     16  C   UNL d   1      59.573  -2.708  29.085  0.00  0.00     0.061 A 
ATOM     17  C   UNL d   1      61.104  -3.280  29.270  0.00  0.00     0.000 A 
ATOM     18  C   UNL d   1      60.498  -3.794  29.048  0.00  0.00     0.000 A 
ATOM     19  C   UNL d   1      59.731  -3.510  28.955  0.00  0.00     0.005 A 
ATOM     20  C   UNL d   1      58.873  -2.271  29.036  0.00  0.00     0.267 A 
ATOM     21  O   UNL d   1      58.127  -2.566  28.831  0.00  0.00    -0.267 OA
ENDBRANCH  10  11
ENDBRANCH   2  10
BRANCH   5  22
ATOM     22  C   UNL d   1      56.945  -0.166  32.371  0.00  0.00     0.158 A 
ATOM     23  O   UNL d   1      57.556   0.068  32.874  0.00  0.00    -0.300 OA
ATOM     24  C   UNL d   1      57.238   0.590  33.428  0.00  0.00     0.123 A 
ATOM     25  C   UNL d   1      56.442   0.679  33.271  0.00  0.00     0.029 A 
ATOM     26  C   UNL d   1      56.256   0.209  32.613  0.00  0.00     0.032 A 
ENDBRANCH   5  22
TORSDOF 3
ENDMDL
MODEL 4
REMARK VINA RESULT:      -2.4      9.088     10.256
REMARK  3 active torsions:
REMARK  status: ('A' for Active; 'I' for Inactive)
REMARK    1  A    between atoms: C_9  and  N_1 
REMARK       I    between atoms: C_8  and  N_2 
REMARK    2  A    between atoms: C_3  and  C_9 
REMARK    3  A    between atoms: C_13  and  C_8 
ROOT
ATOM      1  N   UNL d   1      59.672  -9.770  32.080  0.00  0.00    -0.193 N 
ATOM      2  C   UNL d   1      59.640  -9.799  33.416  0.00  0.00     0.055 A 
ATOM      3  N   UNL d   1      58.870  -9.783  32.324  0.00  0.00    -0.163 NA
ATOM      4  C   UNL d   1      60.132  -9.780  32.756  0.00  0.00     0.089 A 
ATOM      5  C   UNL d   1      59.932  -9.751  31.301  0.00  0.00     0.303 C 
ATOM      6  C   UNL d   1      58.862  -9.801  33.152  0.00  0.00     0.104 A 
ATOM      7  O   UNL d   1      60.751  -9.740  31.149  0.00  0.00    -0.263 OA
ATOM      8  C   UNL d   1      60.960  -9.772  32.765  0.00  0.00     0.021 C 
ATOM      9  C   UNL d   1      58.181  -9.818  33.624  0.00  0.00     0.023 C 
ENDROOT
BRANCH   2  10
ATOM     10  C   UNL d   1      59.891  -9.814  34.211  0.00  0.00     0.089 C 
BRANCH  10  11
ATOM     11  N   UNL d   1      59.855  -9.128  34.671  0.00  0.00    -0.240 N 
ATOM     12  C   UNL d   1      60.423  -8.540  34.698  0.00  0.00     0.267 A 
ATOM     13  C   UNL d   1      60.156  -7.964  35.230  0.00  0.00     0.061 A 
ATOM     14  O   UNL d   1      61.131  -8.526  34.274  0.00  0.00    -0.267 OA
ATOM     15  C   UNL d   1      60.493  -7.255  35.476  0.00  0.00     0.005 A 
ATOM     16  C   UNL d   1      59.430  -8.197  35.526  0.00  0.00     0.061 A 
ATOM     17  C   UNL d   1      60.101  -6.779  36.020  0.00  0.00     0.000 A 
ATOM     18  C   UNL d   1      59.368  -7.012  36.320  0.00  0.00     0.000 A 
ATOM     19  C   UNL d   1      59.030  -7.722  36.074  0.00  0.00     0.005 A 
ATOM     20  C   UNL d   1      59.234  -8.922  35.182  0.00  0.00     0.267 A 
ATOM     21  O   UNL d   1      58.546  -9.360  35.325  0.00  0.00    -0.267 OA
ENDBRANCH  10  11
ENDBRANCH   2  10
BRANCH   5  22
ATOM     22  C   UNL d   1      59.386  -9.743  30.684  0.00  0.00     0.158 A 
ATOM     23  O   UNL d   1      58.568  -9.661  30.764  0.00  0.00    -0.300 OA
ATOM     24  C   UNL d   1      58.239  -9.683  30.008  0.00  0.00     0.123 A 
ATOM     25  C   UNL d   1      58.842  -9.777  29.467  0.00  0.00     0.029 A 
ATOM     26  C   UNL d   1      59.558  -9.815  29.885  0.00  0.00     0.032 A 
ENDBRANCH   5  22
TORSDOF 3
ENDMDL
MODEL 5
REMARK VINA RESULT:      -0.3      0.971      4.697
REMARK  3 active torsions:
REMARK  status: ('A' for Active; 'I' for Inactive)
REMARK    1  A    between atoms: C_9  and  N_1 
REMARK       I    between atoms: C_8  and  N_2 
REMARK    2  A    between atoms: C_3  and  C_9 
REMARK    3  A    between atoms: C_13  and  C_8 
ROOT
ATOM      1  N   UNL d   1      58.747   0.036  30.164  0.00  0.00    -0.193 N 
ATOM      2  C   UNL d   1      58.038   0.451  31.219  0.00  0.00     0.055 A 
ATOM      3  N   UNL d   1      59.276   0.171  30.800  0.00  0.00    -0.163 NA
ATOM      4  C   UNL d   1      57.994   0.210  30.432  0.00  0.00     0.089 A 
ATOM      5  C   UNL d   1      58.961  -0.224  29.414  0.00  0.00     0.303 C 
ATOM      6  C   UNL d   1      58.827   0.427  31.447  0.00  0.00     0.104 A 
ATOM      7  O   UNL d   1      58.367  -0.332  28.840  0.00  0.00    -0.263 OA
ATOM      8  C   UNL d   1      57.305   0.151  29.977  0.00  0.00     0.021 C 
ATOM      9  C   UNL d   1      59.129   0.623  32.193  0.00  0.00     0.023 C 
ENDROOT
BRANCH   2  10
ATOM     10  C   UNL d   1      57.393   0.677  31.696  0.00  0.00     0.089 C 
BRANCH  10  11
ATOM     11  N   UNL d   1      57.002   0.116  32.161  0.00  0.00    -0.240 N 
ATOM     12  C   UNL d   1      56.957   0.120  32.978  0.00  0.00     0.267 A 
ATOM     13  C   UNL d   1      56.515  -0.543  33.203  0.00  0.00     0.061 A 
ATOM     14  O   UNL d   1      57.292   0.682  33.482  0.00  0.00    -0.267 OA
ATOM     15  C   UNL d   1      56.293  -0.819  33.945  0.00  0.00     0.005 A 
ATOM     16  C   UNL d   1      56.291  -0.950  32.530  0.00  0.00     0.061 A 
ATOM     17  C   UNL d   1      55.844  -1.507  34.012  0.00  0.00     0.000 A 
ATOM     18  C   UNL d   1      55.617  -1.918  33.333  0.00  0.00     0.000 A 
ATOM     19  C   UNL d   1      55.840  -1.641  32.591  0.00  0.00     0.005 A 
ATOM     20  C   UNL d   1      56.591  -0.545  31.875  0.00  0.00     0.267 A 
ATOM     21  O   UNL d   1      56.496  -0.763  31.082  0.00  0.00    -0.267 OA
ENDBRANCH  10  11
ENDBRANCH   2  10
BRANCH   5  22
ATOM     22  C   UNL d   1      59.752  -0.374  29.240  0.00  0.00     0.158 A 
ATOM     23  O   UNL d   1      60.103  -1.120  29.194  0.00  0.00    -0.300 OA
ATOM     24  C   UNL d   1      60.899  -1.011  29.006  0.00  0.00     0.123 A 
ATOM     25  C   UNL d   1      61.040  -0.210  28.937  0.00  0.00     0.029 A 
ATOM     26  C   UNL d   1      60.327   0.190  29.082  0.00  0.00     0.032 A 
ENDBRANCH   5  22
TORSDOF 3
ENDMDL
