MODEL 1
REMARK VINA RESULT:      70.5      0.000      0.000
REMARK  7 active torsions:
REMARK  status: ('A' for Active; 'I' for Inactive)
REMARK    1  A    between atoms: N_4  and  S_1 
REMARK    2  A    between atoms: C_8  and  S_1 
REMARK    3  A    between atoms: N_2  and  C_3 
REMARK    4  A    between atoms: C_3  and  C_6 
REMARK    5  A    between atoms: C_7  and  C_3 
REMARK    6  A    between atoms: C_6  and  N_4 
REMARK    7  A    between atoms: C_17  and  N_5 
ROOT
ATOM      1  C   UNL d   1      60.449  48.955  50.765  0.00  0.00     0.107 C 
ENDROOT
BRANCH   1   2
ATOM      2  N   UNL d   1      60.692  48.197  50.547  0.00  0.00    -0.298 N 
ATOM      3  C   UNL d   1      61.258  48.098  49.955  0.00  0.00     0.100 A 
ATOM      4  C   UNL d   1      61.501  47.340  49.737  0.00  0.00     0.100 A 
ATOM      5  N   UNL d   1      61.177  46.680  50.111  0.00  0.00    -0.301 N 
ATOM      6  C   UNL d   1      60.612  46.782  50.701  0.00  0.00     0.100 A 
ATOM      7  C   UNL d   1      60.368  47.537  50.921  0.00  0.00     0.100 A 
BRANCH   5   8
ATOM      8  C   UNL d   1      61.419  45.929  49.894  0.00  0.00     0.064 A 
ATOM      9  C   UNL d   1      61.873  45.819  49.220  0.00  0.00     0.018 A 
ATOM     10  C   UNL d   1      62.117  45.064  49.000  0.00  0.00     0.002 A 
ATOM     11  C   UNL d   1      61.903  44.415  49.461  0.00  0.00     0.000 A 
ATOM     12  C   UNL d   1      61.446  44.523  50.140  0.00  0.00     0.002 A 
ATOM     13  C   UNL d   1      61.205  45.279  50.355  0.00  0.00     0.018 A 
ENDBRANCH   5   8
ENDBRANCH   1   2
BRANCH   1  14
ATOM     14  C   UNL d   1      60.039  49.442  50.238  0.00  0.00     0.132 C 
BRANCH  14  15
ATOM     15  N   UNL d   1      59.209  49.528  50.323  0.00  0.00    -0.155 NA
BRANCH  15  16
ATOM     16  S   UNL d   1      58.737  49.617  49.656  0.00  0.00     0.285 S 
ATOM     17  O   UNL d   1      58.253  49.707  48.991  0.00  0.00    -0.198 OA
ATOM     18  O   UNL d   1      59.413  49.652  49.177  0.00  0.00    -0.198 OA
BRANCH  16  19
ATOM     19  C   UNL d   1      58.062  49.582  50.141  0.00  0.00     0.105 A 
ATOM     20  C   UNL d   1      57.317  49.469  49.805  0.00  0.00     0.015 A 
ATOM     21  C   UNL d   1      56.642  49.432  50.279  0.00  0.00     0.030 A 
ATOM     22  C   UNL d   1      56.725  49.512  51.105  0.00  0.00     0.140 A 
ATOM     23  C   UNL d   1      57.470  49.625  51.441  0.00  0.00     0.030 A 
ATOM     24  F   UNL d   1      56.043  49.476  51.592  0.00  0.00    -0.204 F 
ATOM     25  C   UNL d   1      58.138  49.660  50.959  0.00  0.00     0.015 A 
ENDBRANCH  16  19
ENDBRANCH  15  16
ENDBRANCH  14  15
ENDBRANCH   1  14
BRANCH   1  26
ATOM     26  C   UNL d   1      60.619  49.240  51.535  0.00  0.00     0.118 A 
ATOM     27  O   UNL d   1      60.009  49.447  52.047  0.00  0.00    -0.304 OA
ATOM     28  C   UNL d   1      60.348  49.706  52.758  0.00  0.00     0.123 A 
ATOM     29  C   UNL d   1      61.158  49.658  52.682  0.00  0.00     0.029 A 
ATOM     30  C   UNL d   1      61.329  49.370  51.926  0.00  0.00     0.028 A 
ENDBRANCH   1  26
TORSDOF 7
ENDMDL
