MODEL 1
REMARK VINA RESULT:      -2.1      0.000      0.000
REMARK  4 active torsions:
REMARK  status: ('A' for Active; 'I' for Inactive)
REMARK    1  A    between atoms: N_2  and  S_1 
REMARK    2  A    between atoms: C_4  and  S_1 
REMARK    3  A    between atoms: C_11  and  C_3 
REMARK    4  A    between atoms: O_17  and  C_9 
ROOT
ATOM      1  S   UNL d   1      59.212   0.207  29.857  0.00  0.00     0.273 S 
ATOM      2  O   UNL d   1      58.836   0.402  29.142  0.00  0.00    -0.200 OA
ATOM      3  O   UNL d   1      59.583   0.014  30.565  0.00  0.00    -0.200 OA
ENDROOT
BRANCH   1   4
ATOM      4  N   UNL d   1      59.922   0.106  29.457  0.00  0.00    -0.213 N 
ATOM      5  C   UNL d   1      60.174  -0.580  29.078  0.00  0.00     0.157 A 
ATOM      6  N   UNL d   1      60.917  -0.437  28.749  0.00  0.00    -0.224 NA
ATOM      7  C   UNL d   1      61.128   0.347  28.926  0.00  0.00     0.120 A 
ATOM      8  C   UNL d   1      60.513   0.682  29.363  0.00  0.00     0.114 A 
BRANCH   5   9
ATOM      9  C   UNL d   1      59.752  -1.290  29.036  0.00  0.00     0.035 A 
ATOM     10  C   UNL d   1      59.133  -1.373  28.503  0.00  0.00     0.003 A 
ATOM     11  C   UNL d   1      58.708  -2.082  28.457  0.00  0.00     0.000 A 
ATOM     12  C   UNL d   1      58.915  -2.717  28.960  0.00  0.00     0.000 A 
ATOM     13  C   UNL d   1      59.533  -2.633  29.492  0.00  0.00     0.000 A 
ATOM     14  C   UNL d   1      59.955  -1.923  29.534  0.00  0.00     0.003 A 
ENDBRANCH   5   9
ENDBRANCH   1   4
BRANCH   1  15
ATOM     15  C   UNL d   1      58.493   0.308  30.262  0.00  0.00     0.106 A 
ATOM     16  C   UNL d   1      58.445   0.137  31.074  0.00  0.00     0.039 A 
ATOM     17  C   UNL d   1      57.735   0.238  31.475  0.00  0.00     0.122 A 
ATOM     18  C   UNL d   1      57.068   0.510  31.066  0.00  0.00     0.162 A 
ATOM     19  C   UNL d   1      57.113   0.680  30.261  0.00  0.00     0.032 A 
ATOM     20  F   UNL d   1      56.356   0.611  31.467  0.00  0.00    -0.202 F 
ATOM     21  C   UNL d   1      57.826   0.579  29.864  0.00  0.00     0.015 A 
BRANCH  17  22
ATOM     22  O   UNL d   1      57.689   0.068  32.279  0.00  0.00    -0.326 OA
ATOM     23  C   UNL d   1      57.678   0.678  32.829  0.00  0.00     0.181 C 
ENDBRANCH  17  22
ENDBRANCH   1  15
TORSDOF 4
ENDMDL
MODEL 2
REMARK VINA RESULT:      -1.6      1.241      2.127
REMARK  4 active torsions:
REMARK  status: ('A' for Active; 'I' for Inactive)
REMARK    1  A    between atoms: N_2  and  S_1 
REMARK    2  A    between atoms: C_4  and  S_1 
REMARK    3  A    between atoms: C_11  and  C_3 
REMARK    4  A    between atoms: O_17  and  C_9 
ROOT
ATOM      1  S   UNL d   1      58.143  -1.017  29.964  0.00  0.00     0.273 S 
ATOM      2  O   UNL d   1      58.398  -1.557  30.542  0.00  0.00    -0.200 OA
ATOM      3  O   UNL d   1      57.890  -0.483  29.393  0.00  0.00    -0.200 OA
ENDROOT
BRANCH   1   4
ATOM      4  N   UNL d   1      58.550  -1.440  29.389  0.00  0.00    -0.213 N 
ATOM      5  C   UNL d   1      59.309  -1.281  29.115  0.00  0.00     0.157 A 
ATOM      6  N   UNL d   1      59.500  -1.841  28.540  0.00  0.00    -0.224 NA
ATOM      7  C   UNL d   1      58.851  -2.353  28.457  0.00  0.00     0.120 A 
ATOM      8  C   UNL d   1      58.265  -2.105  28.981  0.00  0.00     0.114 A 
BRANCH   5   9
ATOM      9  C   UNL d   1      59.796  -0.664  29.373  0.00  0.00     0.035 A 
ATOM     10  C   UNL d   1      59.783   0.062  28.991  0.00  0.00     0.003 A 
ATOM     11  C   UNL d   1      60.268   0.682  29.246  0.00  0.00     0.000 A 
ATOM     12  C   UNL d   1      60.775   0.563  29.899  0.00  0.00     0.000 A 
ATOM     13  C   UNL d   1      60.788  -0.163  30.281  0.00  0.00     0.000 A 
ATOM     14  C   UNL d   1      60.301  -0.780  30.023  0.00  0.00     0.003 A 
ENDBRANCH   5   9
ENDBRANCH   1   4
BRANCH   1  15
ATOM     15  C   UNL d   1      57.731  -0.590  30.546  0.00  0.00     0.106 A 
ATOM     16  C   UNL d   1      57.434  -0.980  31.216  0.00  0.00     0.039 A 
ATOM     17  C   UNL d   1      57.027  -0.557  31.792  0.00  0.00     0.122 A 
ATOM     18  C   UNL d   1      56.915   0.259  31.701  0.00  0.00     0.162 A 
ATOM     19  C   UNL d   1      57.209   0.647  31.036  0.00  0.00     0.032 A 
ATOM     20  F   UNL d   1      56.507   0.682  32.277  0.00  0.00    -0.202 F 
ATOM     21  C   UNL d   1      57.616   0.221  30.463  0.00  0.00     0.015 A 
BRANCH  17  22
ATOM     22  O   UNL d   1      56.732  -0.945  32.456  0.00  0.00    -0.326 OA
ATOM     23  C   UNL d   1      56.202  -1.567  32.368  0.00  0.00     0.181 C 
ENDBRANCH  17  22
ENDBRANCH   1  15
TORSDOF 4
ENDMDL
