MODEL 1
REMARK VINA RESULT:      -2.2      0.000      0.000
REMARK  9 active torsions:
REMARK  status: ('A' for Active; 'I' for Inactive)
REMARK    1  A    between atoms: C_2  and  S_1 
REMARK    2  A    between atoms: N_3  and  S_1 
REMARK    3  A    between atoms: C_14  and  N_3 
REMARK    4  A    between atoms: C_15  and  N_3 
REMARK    5  A    between atoms: C_6  and  C_7 
REMARK    6  A    between atoms: C_7  and  C_8 
REMARK    7  A    between atoms: C_8  and  C_12 
REMARK    8  A    between atoms: C_21  and  C_14 
REMARK    9  A    between atoms: C_20  and  C_15 
ROOT
ATOM      1  C   UNL d   1     -41.923-122.704 -51.429  0.00  0.00     0.104 A 
ATOM      2  C   UNL d   1     -41.387-123.306 -51.618  0.00  0.00     0.012 A 
ATOM      3  C   UNL d   1     -42.197-122.182 -52.026  0.00  0.00     0.013 A 
ATOM      4  C   UNL d   1     -41.933-122.269 -52.791  0.00  0.00     0.001 A 
ATOM      5  C   UNL d   1     -41.124-123.394 -52.384  0.00  0.00     0.001 A 
ATOM      6  C   UNL d   1     -41.389-122.881 -52.980  0.00  0.00     0.000 A 
ATOM      7  C   UNL d   1     -41.123-123.817 -51.026  0.00  0.00     0.001 C 
ENDROOT
BRANCH   1   8
ATOM      8  S   UNL d   1     -42.194-122.614 -50.643  0.00  0.00     0.272 S 
ATOM      9  O   UNL d   1     -41.819-121.876 -50.599  0.00  0.00    -0.200 OA
ATOM     10  O   UNL d   1     -42.565-123.345 -50.688  0.00  0.00    -0.200 OA
BRANCH   8  11
ATOM     11  N   UNL d   1     -42.458-122.527 -49.877  0.00  0.00    -0.223 N 
BRANCH  11  12
ATOM     12  C   UNL d   1     -41.952-122.719 -49.234  0.00  0.00     0.137 C 
BRANCH  12  13
ATOM     13  C   UNL d   1     -42.256-122.781 -48.482  0.00  0.00     0.254 C 
ATOM     14  O   UNL d   1     -41.841-123.183 -47.897  0.00  0.00    -0.281 OA
ENDBRANCH  12  13
ENDBRANCH  11  12
BRANCH  11  15
ATOM     15  C   UNL d   1     -43.225-122.248 -49.727  0.00  0.00     0.137 C 
BRANCH  15  16
ATOM     16  C   UNL d   1     -43.863-122.772 -49.788  0.00  0.00     0.254 C 
ATOM     17  O   UNL d   1     -44.593-122.483 -50.042  0.00  0.00    -0.281 OA
ENDBRANCH  15  16
ENDBRANCH  11  15
ENDBRANCH   8  11
ENDBRANCH   1   8
BRANCH   4  18
ATOM     18  C   UNL d   1     -42.194-121.762 -53.386  0.00  0.00     0.006 C 
BRANCH  18  19
ATOM     19  C   UNL d   1     -42.010-121.919 -54.167  0.00  0.00     0.070 C 
BRANCH  19  20
ATOM     20  C   UNL d   1     -42.513-121.699 -54.778  0.00  0.00     0.211 C 
ATOM     21  O   UNL d   1     -42.201-121.286 -55.436  0.00  0.00    -0.644 OA
ATOM     22  O   UNL d   1     -43.302-121.875 -54.753  0.00  0.00    -0.644 OA
ENDBRANCH  19  20
ENDBRANCH  18  19
ENDBRANCH   4  18
TORSDOF 9
ENDMDL
MODEL 2
REMARK VINA RESULT:       0.7      1.361      4.486
REMARK  9 active torsions:
REMARK  status: ('A' for Active; 'I' for Inactive)
REMARK    1  A    between atoms: C_2  and  S_1 
REMARK    2  A    between atoms: N_3  and  S_1 
REMARK    3  A    between atoms: C_14  and  N_3 
REMARK    4  A    between atoms: C_15  and  N_3 
REMARK    5  A    between atoms: C_6  and  C_7 
REMARK    6  A    between atoms: C_7  and  C_8 
REMARK    7  A    between atoms: C_8  and  C_12 
REMARK    8  A    between atoms: C_21  and  C_14 
REMARK    9  A    between atoms: C_20  and  C_15 
ROOT
ATOM      1  C   UNL d   1     -41.606-122.548 -51.002  0.00  0.00     0.104 A 
ATOM      2  C   UNL d   1     -41.334-123.324 -51.095  0.00  0.00     0.012 A 
ATOM      3  C   UNL d   1     -41.822-122.265 -50.243  0.00  0.00     0.013 A 
ATOM      4  C   UNL d   1     -41.763-122.758 -49.597  0.00  0.00     0.001 A 
ATOM      5  C   UNL d   1     -41.274-123.816 -50.449  0.00  0.00     0.001 A 
ATOM      6  C   UNL d   1     -41.486-123.545 -49.694  0.00  0.00     0.000 A 
ATOM      7  C   UNL d   1     -41.123-123.596 -51.845  0.00  0.00     0.001 C 
ENDROOT
BRANCH   1   8
ATOM      8  S   UNL d   1     -41.667-122.042 -51.666  0.00  0.00     0.272 S 
ATOM      9  O   UNL d   1     -42.088-122.628 -52.074  0.00  0.00    -0.200 OA
ATOM     10  O   UNL d   1     -41.250-121.462 -51.262  0.00  0.00    -0.200 OA
BRANCH   8  11
ATOM     11  N   UNL d   1     -41.726-121.550 -52.312  0.00  0.00    -0.223 N 
BRANCH  11  12
ATOM     12  C   UNL d   1     -42.361-121.643 -52.854  0.00  0.00     0.137 C 
BRANCH  12  13
ATOM     13  C   UNL d   1     -42.211-121.697 -53.652  0.00  0.00     0.254 C 
ATOM     14  O   UNL d   1     -42.823-121.835 -54.183  0.00  0.00    -0.281 OA
ENDBRANCH  12  13
ENDBRANCH  11  12
BRANCH  11  15
ATOM     15  C   UNL d   1     -41.161-120.955 -52.440  0.00  0.00     0.137 C 
BRANCH  15  16
ATOM     16  C   UNL d   1     -41.378-120.279 -52.866  0.00  0.00     0.254 C 
ATOM     17  O   UNL d   1     -41.123-119.541 -52.600  0.00  0.00    -0.281 OA
ENDBRANCH  15  16
ENDBRANCH  11  15
ENDBRANCH   8  11
ENDBRANCH   1   8
BRANCH   4  18
ATOM     18  C   UNL d   1     -41.972-122.492 -48.846  0.00  0.00     0.006 C 
BRANCH  18  19
ATOM     19  C   UNL d   1     -41.551-122.743 -48.191  0.00  0.00     0.070 C 
BRANCH  19  20
ATOM     20  C   UNL d   1     -41.903-122.797 -47.451  0.00  0.00     0.211 C 
ATOM     21  O   UNL d   1     -42.707-122.581 -47.364  0.00  0.00    -0.644 OA
ATOM     22  O   UNL d   1     -41.485-123.054 -46.808  0.00  0.00    -0.644 OA
ENDBRANCH  19  20
ENDBRANCH  18  19
ENDBRANCH   4  18
TORSDOF 9
ENDMDL
