MODEL 1
REMARK VINA RESULT:      43.3      0.000      0.000
REMARK  7 active torsions:
REMARK  status: ('A' for Active; 'I' for Inactive)
REMARK    1  A    between atoms: S_10  and  C_9 
REMARK    2  A    between atoms: C_15  and  S_10 
REMARK    3  A    between atoms: C_11  and  C_15 
REMARK       I    between atoms: N_16  and  C_11 
REMARK    4  A    between atoms: C_24  and  N_16 
REMARK    5  A    between atoms: C_21  and  C_24 
REMARK    6  A    between atoms: C_25  and  C_21 
REMARK    7  A    between atoms: O_23  and  C_25 
ROOT
ATOM      1  C   UNL d   1     -51.174  25.367  33.335  0.00  0.00     0.004 A 
ATOM      2  C   UNL d   1     -51.934  25.665  33.334  0.00  0.00     0.000 A 
ATOM      3  C   UNL d   1     -51.034  24.550  33.326  0.00  0.00     0.039 A 
ATOM      4  C   UNL d   1     -51.652  24.017  33.317  0.00  0.00     0.196 A 
ATOM      5  C   UNL d   1     -52.569  25.128  33.324  0.00  0.00     0.003 A 
ATOM      6  C   UNL d   1     -52.425  24.290  33.316  0.00  0.00     0.039 A 
ATOM      7  C   UNL d   1     -50.539  25.903  33.344  0.00  0.00     0.006 A 
ATOM      8  C   UNL d   1     -52.074  26.480  33.342  0.00  0.00     0.001 A 
ATOM      9  C   UNL d   1     -50.678  26.719  33.352  0.00  0.00     0.030 A 
ATOM     10  O   UNL d   1     -51.512  23.197  33.309  0.00  0.00    -0.287 OA
ATOM     11  C   UNL d   1     -51.452  26.991  33.351  0.00  0.00     0.006 A 
ATOM     12  C   UNL d   1     -50.257  24.255  33.327  0.00  0.00     0.003 A 
ATOM     13  C   UNL d   1     -53.346  25.423  33.323  0.00  0.00     0.000 A 
ATOM     14  C   UNL d   1     -53.064  23.775  33.307  0.00  0.00     0.003 A 
ATOM     15  C   UNL d   1     -49.762  25.608  33.345  0.00  0.00     0.001 A 
ATOM     16  C   UNL d   1     -49.594  24.825  33.337  0.00  0.00     0.000 A 
ATOM     17  C   UNL d   1     -53.843  24.048  33.306  0.00  0.00     0.000 A 
ATOM     18  C   UNL d   1     -53.992  24.918  33.314  0.00  0.00     0.000 A 
ENDROOT
BRANCH   9  19
ATOM     19  S   UNL d   1     -50.045  27.266  33.362  0.00  0.00    -0.081 SA
BRANCH  19  20
ATOM     20  C   UNL d   1     -49.878  27.695  34.052  0.00  0.00     0.098 C 
BRANCH  20  21
ATOM     21  C   UNL d   1     -49.157  28.010  34.174  0.00  0.00     0.286 C 
ATOM     22  O   UNL d   1     -48.611  28.039  33.562  0.00  0.00    -0.265 OA
ATOM     23  N   UNL d   1     -48.951  28.309  34.910  0.00  0.00    -0.206 NA
BRANCH  23  24
ATOM     24  C   UNL d   1     -48.205  28.641  35.055  0.00  0.00     0.104 C 
BRANCH  24  25
ATOM     25  C   UNL d   1     -48.045  28.944  35.794  0.00  0.00     0.047 C 
BRANCH  25  26
ATOM     26  C   UNL d   1     -47.803  29.724  35.855  0.00  0.00     0.118 C 
BRANCH  26  27
ATOM     27  O   UNL d   1     -47.163  29.995  35.449  0.00  0.00    -0.326 OA
ATOM     28  C   UNL d   1     -46.948  30.787  35.473  0.00  0.00     0.181 C 
ENDBRANCH  26  27
ENDBRANCH  25  26
ENDBRANCH  24  25
ENDBRANCH  23  24
ENDBRANCH  20  21
ENDBRANCH  19  20
ENDBRANCH   9  19
TORSDOF 7
ENDMDL
