MODEL 1
REMARK VINA RESULT:      -2.4      0.000      0.000
REMARK  6 active torsions:
REMARK  status: ('A' for Active; 'I' for Inactive)
REMARK    1  A    between atoms: S_2  and  C_1 
REMARK    2  A    between atoms: C_9  and  S_2 
REMARK    3  A    between atoms: N_10  and  C_6 
REMARK    4  A    between atoms: C_13  and  N_10 
REMARK    5  A    between atoms: N_12  and  C_14 
REMARK    6  A    between atoms: C_14  and  C_13 
ROOT
ATOM      1  C   UNL d   1      32.786  18.667 -23.340  0.00  0.00     0.187 A 
ATOM      2  N   UNL d   1      32.830  18.941 -22.568  0.00  0.00    -0.208 NA
ATOM      3  C   UNL d   1      33.041  19.270 -23.842  0.00  0.00     0.118 A 
ATOM      4  S   UNL d   1      33.241  19.916 -23.373  0.00  0.00    -0.035 SA
ATOM      5  C   UNL d   1      33.111  19.715 -22.590  0.00  0.00     0.196 A 
ATOM      6 CL   UNL d   1      33.087  19.234 -24.665  0.00  0.00    -0.073 Cl
ENDROOT
BRANCH   1   7
ATOM      7  S   UNL d   1      32.533  17.922 -23.577  0.00  0.00     0.228 S 
ATOM      8  O   UNL d   1      31.823  18.198 -23.879  0.00  0.00    -0.216 OA
ATOM      9  O   UNL d   1      33.240  17.639 -23.276  0.00  0.00    -0.216 OA
BRANCH   7  10
ATOM     10  C   UNL d   1      32.351  17.138 -23.784  0.00  0.00     0.089 A 
ATOM     11  C   UNL d   1      32.952  16.629 -24.020  0.00  0.00     0.011 A 
ATOM     12  C   UNL d   1      32.773  15.844 -24.229  0.00  0.00     0.001 A 
ATOM     13  C   UNL d   1      31.988  15.576 -24.198  0.00  0.00     0.000 A 
ATOM     14  C   UNL d   1      31.381  16.095 -23.959  0.00  0.00     0.001 A 
ATOM     15  C   UNL d   1      31.559  16.875 -23.752  0.00  0.00     0.011 A 
ENDBRANCH   7  10
ENDBRANCH   1   7
BRANCH   5  16
ATOM     16  N   UNL d   1      33.241  20.202 -21.941  0.00  0.00    -0.218 NA
BRANCH  16  17
ATOM     17  C   UNL d   1      32.645  20.707 -21.697  0.00  0.00     0.120 C 
BRANCH  17  18
ATOM     18  C   UNL d   1      32.583  20.913 -20.905  0.00  0.00     0.101 C 
BRANCH  18  19
ATOM     19  N   UNL d   1      32.489  21.715 -20.725  0.00  0.00    -0.299 N 
ATOM     20  C   UNL d   1      32.060  22.190 -21.236  0.00  0.00     0.100 C 
ATOM     21  C   UNL d   1      32.822  22.028 -20.046  0.00  0.00     0.100 C 
ENDBRANCH  18  19
ENDBRANCH  17  18
ENDBRANCH  16  17
ENDBRANCH   5  16
TORSDOF 6
ENDMDL
MODEL 2
REMARK VINA RESULT:      -2.3      1.912      5.111
REMARK  6 active torsions:
REMARK  status: ('A' for Active; 'I' for Inactive)
REMARK    1  A    between atoms: S_2  and  C_1 
REMARK    2  A    between atoms: C_9  and  S_2 
REMARK    3  A    between atoms: N_10  and  C_6 
REMARK    4  A    between atoms: C_13  and  N_10 
REMARK    5  A    between atoms: N_12  and  C_14 
REMARK    6  A    between atoms: C_14  and  C_13 
ROOT
ATOM      1  C   UNL d   1      32.948  20.595 -21.874  0.00  0.00     0.187 A 
ATOM      2  N   UNL d   1      32.917  20.474 -22.685  0.00  0.00    -0.208 NA
ATOM      3  C   UNL d   1      33.149  19.880 -21.515  0.00  0.00     0.118 A 
ATOM      4  S   UNL d   1      33.241  19.320 -22.111  0.00  0.00    -0.035 SA
ATOM      5  C   UNL d   1      33.099  19.684 -22.830  0.00  0.00     0.196 A 
ATOM      6 CL   UNL d   1      33.241  19.749 -20.705  0.00  0.00    -0.073 Cl
ENDROOT
BRANCH   1   7
ATOM      7  S   UNL d   1      32.804  21.303 -21.483  0.00  0.00     0.228 S 
ATOM      8  O   UNL d   1      32.370  20.949 -20.884  0.00  0.00    -0.216 OA
ATOM      9  O   UNL d   1      33.236  21.664 -22.078  0.00  0.00    -0.216 OA
BRANCH   7  10
ATOM     10  C   UNL d   1      32.704  22.058 -21.150  0.00  0.00     0.089 A 
ATOM     11  C   UNL d   1      32.131  22.563 -21.451  0.00  0.00     0.011 A 
ATOM     12  C   UNL d   1      32.028  23.320 -21.120  0.00  0.00     0.001 A 
ATOM     13  C   UNL d   1      32.505  23.562 -20.485  0.00  0.00     0.000 A 
ATOM     14  C   UNL d   1      33.086  23.047 -20.182  0.00  0.00     0.001 A 
ATOM     15  C   UNL d   1      33.188  22.295 -20.512  0.00  0.00     0.011 A 
ENDBRANCH   7  10
ENDBRANCH   1   7
BRANCH   5  16
ATOM     16  N   UNL d   1      33.132  19.322 -23.567  0.00  0.00    -0.218 NA
BRANCH  16  17
ATOM     17  C   UNL d   1      32.745  18.609 -23.678  0.00  0.00     0.120 C 
BRANCH  17  18
ATOM     18  C   UNL d   1      32.697  18.285 -24.431  0.00  0.00     0.101 C 
BRANCH  18  19
ATOM     19  N   UNL d   1      32.164  17.663 -24.544  0.00  0.00    -0.299 N 
ATOM     20  C   UNL d   1      31.364  17.828 -24.603  0.00  0.00     0.100 C 
ATOM     21  C   UNL d   1      32.435  16.891 -24.597  0.00  0.00     0.100 C 
ENDBRANCH  18  19
ENDBRANCH  17  18
ENDBRANCH  16  17
ENDBRANCH   5  16
TORSDOF 6
ENDMDL
MODEL 3
REMARK VINA RESULT:      -1.3      2.679      3.905
REMARK  6 active torsions:
REMARK  status: ('A' for Active; 'I' for Inactive)
REMARK    1  A    between atoms: S_2  and  C_1 
REMARK    2  A    between atoms: C_9  and  S_2 
REMARK    3  A    between atoms: N_10  and  C_6 
REMARK    4  A    between atoms: C_13  and  N_10 
REMARK    5  A    between atoms: N_12  and  C_14 
REMARK    6  A    between atoms: C_14  and  C_13 
ROOT
ATOM      1  C   UNL d   1      30.696  16.417 -23.862  0.00  0.00     0.187 A 
ATOM      2  N   UNL d   1      31.030  16.992 -24.343  0.00  0.00    -0.208 NA
ATOM      3  C   UNL d   1      31.301  16.060 -23.430  0.00  0.00     0.118 A 
ATOM      4  S   UNL d   1      32.008  16.420 -23.648  0.00  0.00    -0.035 SA
ATOM      5  C   UNL d   1      31.843  16.993 -24.209  0.00  0.00     0.196 A 
ATOM      6 CL   UNL d   1      31.215  15.453 -22.878  0.00  0.00    -0.073 Cl
ENDROOT
BRANCH   1   7
ATOM      7  S   UNL d   1      29.898  16.226 -23.817  0.00  0.00     0.228 S 
ATOM      8  O   UNL d   1      29.847  16.394 -23.015  0.00  0.00    -0.216 OA
ATOM      9  O   UNL d   1      29.942  16.057 -24.617  0.00  0.00    -0.216 OA
BRANCH   7  10
ATOM     10  C   UNL d   1      29.095  16.015 -23.854  0.00  0.00     0.089 A 
ATOM     11  C   UNL d   1      28.617  16.113 -23.194  0.00  0.00     0.011 A 
ATOM     12  C   UNL d   1      27.812  15.903 -23.228  0.00  0.00     0.001 A 
ATOM     13  C   UNL d   1      27.495  15.594 -23.930  0.00  0.00     0.000 A 
ATOM     14  C   UNL d   1      27.983  15.496 -24.599  0.00  0.00     0.001 A 
ATOM     15  C   UNL d   1      28.783  15.705 -24.564  0.00  0.00     0.011 A 
ENDBRANCH   7  10
ENDBRANCH   1   7
BRANCH   5  16
ATOM     16  N   UNL d   1      32.393  17.482 -24.574  0.00  0.00    -0.218 NA
BRANCH  16  17
ATOM     17  C   UNL d   1      32.438  18.268 -24.348  0.00  0.00     0.120 C 
BRANCH  17  18
ATOM     18  C   UNL d   1      32.693  18.833 -24.887  0.00  0.00     0.101 C 
BRANCH  18  19
ATOM     19  N   UNL d   1      32.978  19.548 -24.584  0.00  0.00    -0.299 N 
ATOM     20  C   UNL d   1      32.993  20.208 -25.068  0.00  0.00     0.100 C 
ATOM     21  C   UNL d   1      33.241  19.592 -23.810  0.00  0.00     0.100 C 
ENDBRANCH  18  19
ENDBRANCH  17  18
ENDBRANCH  16  17
ENDBRANCH   5  16
TORSDOF 6
ENDMDL
MODEL 4
REMARK VINA RESULT:       0.4      1.778      4.697
REMARK  6 active torsions:
REMARK  status: ('A' for Active; 'I' for Inactive)
REMARK    1  A    between atoms: S_2  and  C_1 
REMARK    2  A    between atoms: C_9  and  S_2 
REMARK    3  A    between atoms: N_10  and  C_6 
REMARK    4  A    between atoms: C_13  and  N_10 
REMARK    5  A    between atoms: N_12  and  C_14 
REMARK    6  A    between atoms: C_14  and  C_13 
ROOT
ATOM      1  C   UNL d   1      32.507  19.116 -23.014  0.00  0.00     0.187 A 
ATOM      2  N   UNL d   1      32.037  19.117 -23.687  0.00  0.00    -0.208 NA
ATOM      3  C   UNL d   1      32.758  18.342 -22.877  0.00  0.00     0.118 A 
ATOM      4  S   UNL d   1      32.439  17.868 -23.470  0.00  0.00    -0.035 SA
ATOM      5  C   UNL d   1      31.996  18.344 -23.969  0.00  0.00     0.196 A 
ATOM      6 CL   UNL d   1      33.241  18.087 -22.259  0.00  0.00    -0.073 Cl
ENDROOT
BRANCH   1   7
ATOM      7  S   UNL d   1      32.698  19.769 -22.554  0.00  0.00     0.228 S 
ATOM      8  O   UNL d   1      32.808  19.326 -21.873  0.00  0.00    -0.216 OA
ATOM      9  O   UNL d   1      32.590  20.217 -23.231  0.00  0.00    -0.216 OA
BRANCH   7  10
ATOM     10  C   UNL d   1      32.879  20.478 -22.159  0.00  0.00     0.089 A 
ATOM     11  C   UNL d   1      32.996  20.472 -21.347  0.00  0.00     0.011 A 
ATOM     12  C   UNL d   1      33.177  21.180 -20.948  0.00  0.00     0.001 A 
ATOM     13  C   UNL d   1      33.240  21.890 -21.373  0.00  0.00     0.000 A 
ATOM     14  C   UNL d   1      33.121  21.892 -22.199  0.00  0.00     0.001 A 
ATOM     15  C   UNL d   1      32.941  21.188 -22.594  0.00  0.00     0.011 A 
ENDBRANCH   7  10
ENDBRANCH   1   7
BRANCH   5  16
ATOM     16  N   UNL d   1      31.583  18.092 -24.632  0.00  0.00    -0.218 NA
BRANCH  16  17
ATOM     17  C   UNL d   1      30.889  17.669 -24.533  0.00  0.00     0.120 C 
BRANCH  17  18
ATOM     18  C   UNL d   1      30.789  16.952 -24.920  0.00  0.00     0.101 C 
BRANCH  18  19
ATOM     19  N   UNL d   1      30.018  16.660 -24.989  0.00  0.00    -0.299 N 
ATOM     20  C   UNL d   1      29.388  17.183 -24.949  0.00  0.00     0.100 C 
ATOM     21  C   UNL d   1      29.887  15.859 -25.096  0.00  0.00     0.100 C 
ENDBRANCH  18  19
ENDBRANCH  17  18
ENDBRANCH  16  17
ENDBRANCH   5  16
TORSDOF 6
ENDMDL
