MODEL 1
REMARK VINA RESULT:      -4.0      0.000      0.000
REMARK  2 active torsions:
REMARK  status: ('A' for Active; 'I' for Inactive)
REMARK    1  A    between atoms: C_7  and  C_1 
REMARK    2  A    between atoms: C_5  and  C_3 
ROOT
ATOM      1  C   UNL d   1     -41.541-121.598 -52.114  0.00  0.00     0.067 A 
ATOM      2  N   UNL d   1     -41.472-122.939 -53.074  0.00  0.00    -0.244 NA
ATOM      3  C   UNL d   1     -41.611-122.202 -53.414  0.00  0.00     0.104 A 
ATOM      4  C   UNL d   1     -41.646-121.531 -52.937  0.00  0.00     0.027 A 
ATOM      5  C   UNL d   1     -41.402-122.336 -51.775  0.00  0.00     0.024 A 
ATOM      6  C   UNL d   1     -41.367-123.006 -52.250  0.00  0.00     0.082 A 
ATOM      7  C   UNL d   1     -41.298-122.402 -50.959  0.00  0.00     0.002 A 
ATOM      8  C   UNL d   1     -41.227-123.751 -51.912  0.00  0.00     0.019 A 
ATOM      9  C   UNL d   1     -41.159-123.138 -50.619  0.00  0.00     0.000 A 
ATOM     10  C   UNL d   1     -41.123-123.817 -51.096  0.00  0.00     0.002 A 
ENDROOT
BRANCH   3  11
ATOM     11  C   UNL d   1     -41.716-122.136 -54.234  0.00  0.00     0.118 A 
ATOM     12  O   UNL d   1     -41.140-122.105 -54.824  0.00  0.00    -0.304 OA
ATOM     13  C   UNL d   1     -41.530-122.038 -55.548  0.00  0.00     0.123 A 
ATOM     14  C   UNL d   1     -42.332-122.028 -55.407  0.00  0.00     0.029 A 
ATOM     15  C   UNL d   1     -42.446-122.089 -54.592  0.00  0.00     0.028 A 
ENDBRANCH   3  11
BRANCH   1  16
ATOM     16  C   UNL d   1     -41.577-120.915 -51.632  0.00  0.00     0.211 C 
ATOM     17  O   UNL d   1     -41.123-120.256 -51.830  0.00  0.00    -0.644 OA
ATOM     18  O   UNL d   1     -42.064-120.904 -50.964  0.00  0.00    -0.644 OA
ENDBRANCH   1  16
TORSDOF 2
ENDMDL
MODEL 2
REMARK VINA RESULT:      -3.9      1.233      3.239
REMARK  2 active torsions:
REMARK  status: ('A' for Active; 'I' for Inactive)
REMARK    1  A    between atoms: C_7  and  C_1 
REMARK    2  A    between atoms: C_5  and  C_3 
ROOT
ATOM      1  C   UNL d   1     -42.218-121.936 -53.738  0.00  0.00     0.067 A 
ATOM      2  N   UNL d   1     -41.429-123.118 -52.898  0.00  0.00    -0.244 NA
ATOM      3  C   UNL d   1     -41.777-122.494 -52.491  0.00  0.00     0.104 A 
ATOM      4  C   UNL d   1     -42.172-121.902 -52.907  0.00  0.00     0.027 A 
ATOM      5  C   UNL d   1     -41.869-122.561 -54.145  0.00  0.00     0.024 A 
ATOM      6  C   UNL d   1     -41.475-123.152 -53.730  0.00  0.00     0.082 A 
ATOM      7  C   UNL d   1     -41.915-122.594 -54.968  0.00  0.00     0.002 A 
ATOM      8  C   UNL d   1     -41.123-123.784 -54.136  0.00  0.00     0.019 A 
ATOM      9  C   UNL d   1     -41.567-123.219 -55.376  0.00  0.00     0.000 A 
ATOM     10  C   UNL d   1     -41.168-123.817 -54.960  0.00  0.00     0.002 A 
ENDROOT
BRANCH   3  11
ATOM     11  C   UNL d   1     -41.732-122.460 -51.663  0.00  0.00     0.118 A 
ATOM     12  O   UNL d   1     -42.140-122.914 -51.108  0.00  0.00    -0.304 OA
ATOM     13  C   UNL d   1     -41.897-122.666 -50.359  0.00  0.00     0.123 A 
ATOM     14  C   UNL d   1     -41.350-122.070 -50.452  0.00  0.00     0.029 A 
ATOM     15  C   UNL d   1     -41.248-121.944 -51.260  0.00  0.00     0.028 A 
ENDBRANCH   3  11
BRANCH   1  16
ATOM     16  C   UNL d   1     -42.619-121.334 -54.158  0.00  0.00     0.211 C 
ATOM     17  O   UNL d   1     -42.236-120.617 -54.301  0.00  0.00    -0.644 OA
ATOM     18  O   UNL d   1     -43.390-121.459 -54.426  0.00  0.00    -0.644 OA
ENDBRANCH   1  16
TORSDOF 2
ENDMDL
MODEL 3
REMARK VINA RESULT:      -3.0      2.035      2.870
REMARK  2 active torsions:
REMARK  status: ('A' for Active; 'I' for Inactive)
REMARK    1  A    between atoms: C_7  and  C_1 
REMARK    2  A    between atoms: C_5  and  C_3 
ROOT
ATOM      1  C   UNL d   1     -42.942-122.887 -50.104  0.00  0.00     0.067 A 
ATOM      2  N   UNL d   1     -41.350-123.182 -50.425  0.00  0.00    -0.244 NA
ATOM      3  C   UNL d   1     -41.857-122.978 -51.040  0.00  0.00     0.104 A 
ATOM      4  C   UNL d   1     -42.653-122.830 -50.883  0.00  0.00     0.027 A 
ATOM      5  C   UNL d   1     -42.433-123.092 -49.490  0.00  0.00     0.024 A 
ATOM      6  C   UNL d   1     -41.639-123.239 -49.646  0.00  0.00     0.082 A 
ATOM      7  C   UNL d   1     -42.719-123.148 -48.718  0.00  0.00     0.002 A 
ATOM      8  C   UNL d   1     -41.123-123.445 -49.029  0.00  0.00     0.019 A 
ATOM      9  C   UNL d   1     -42.212-123.352 -48.103  0.00  0.00     0.000 A 
ATOM     10  C   UNL d   1     -41.409-123.502 -48.258  0.00  0.00     0.002 A 
ENDROOT
BRANCH   3  11
ATOM     11  C   UNL d   1     -41.570-122.921 -51.816  0.00  0.00     0.118 A 
ATOM     12  O   UNL d   1     -41.389-123.530 -52.342  0.00  0.00    -0.304 OA
ATOM     13  C   UNL d   1     -41.123-123.182 -53.042  0.00  0.00     0.123 A 
ATOM     14  C   UNL d   1     -41.139-122.374 -52.948  0.00  0.00     0.029 A 
ATOM     15  C   UNL d   1     -41.416-122.213 -52.188  0.00  0.00     0.028 A 
ENDBRANCH   3  11
BRANCH   1  16
ATOM     16  C   UNL d   1     -43.749-122.737 -49.947  0.00  0.00     0.211 C 
ATOM     17  O   UNL d   1     -44.048-121.976 -50.057  0.00  0.00    -0.644 OA
ATOM     18  O   UNL d   1     -44.241-123.347 -49.684  0.00  0.00    -0.644 OA
ENDBRANCH   1  16
TORSDOF 2
ENDMDL
