MODEL 1
REMARK VINA RESULT:      87.6      0.000      0.000
REMARK  5 active torsions:
REMARK  status: ('A' for Active; 'I' for Inactive)
REMARK    1  A    between atoms: C_11  and  N_4 
REMARK    2  A    between atoms: C_12  and  N_10 
REMARK    3  A    between atoms: C_14  and  C_11 
REMARK    4  A    between atoms: O_26  and  C_13 
REMARK    5  A    between atoms: O_28  and  C_24 
ROOT
ATOM      1  C   UNL d   1      14.092  14.366  -3.654  0.00  0.00     0.191 A 
ATOM      2  C   UNL d   1      14.360  14.511  -2.886  0.00  0.00     0.173 A 
ATOM      3  C   UNL d   1      14.476  15.803  -3.630  0.00  0.00     0.722 A 
ATOM      4  N   UNL d   1      14.108  13.159  -2.542  0.00  0.00    -0.224 N 
ATOM      5  N   UNL d   1      14.144  15.056  -4.084  0.00  0.00    -0.042 NA
ATOM      6  N   UNL d   1      14.574  15.288  -2.856  0.00  0.00    -0.132 N 
ATOM      7  N   UNL d   1      13.828  13.621  -3.880  0.00  0.00    -0.240 N 
ATOM      8  C   UNL d   1      13.840  13.013  -3.310  0.00  0.00     0.343 A 
ATOM      9  C   UNL d   1      14.365  13.912  -2.345  0.00  0.00     0.288 A 
ATOM     10  N   UNL d   1      14.694  16.581  -3.587  0.00  0.00    -0.138 N 
ATOM     11  C   UNL d   1      14.868  15.660  -2.199  0.00  0.00     0.100 A 
ATOM     12  C   UNL d   1      14.993  16.932  -2.898  0.00  0.00     0.100 A 
ATOM     13  O   UNL d   1      13.574  12.256  -3.533  0.00  0.00    -0.245 OA
ATOM     14  O   UNL d   1      14.633  14.057  -1.576  0.00  0.00    -0.265 OA
ATOM     15  C   UNL d   1      15.082  16.460  -2.188  0.00  0.00     0.036 A 
ATOM     16  C   UNL d   1      13.560  13.476  -4.648  0.00  0.00     0.105 C 
ATOM     17  C   UNL d   1      15.379  16.799  -1.492  0.00  0.00     0.003 C 
ENDROOT
BRANCH  10  18
ATOM     18  C   UNL d   1      14.605  17.029  -4.277  0.00  0.00     0.104 A 
ATOM     19  C   UNL d   1      15.261  17.190  -4.750  0.00  0.00     0.113 A 
ATOM     20  C   UNL d   1      15.213  17.623  -5.431  0.00  0.00     0.050 A 
ATOM     21  C   UNL d   1      14.473  17.924  -5.675  0.00  0.00     0.096 A 
ATOM     22  C   UNL d   1      13.797  17.765  -5.200  0.00  0.00     0.026 A 
ATOM     23  C   UNL d   1      13.875  17.324  -4.515  0.00  0.00     0.022 A 
BRANCH  19  24
ATOM     24  O   UNL d   1      15.999  16.899  -4.521  0.00  0.00    -0.327 OA
ATOM     25  C   UNL d   1      16.554  16.736  -5.090  0.00  0.00     0.181 C 
ENDBRANCH  19  24
BRANCH  21  26
ATOM     26  O   UNL d   1      14.392  18.376  -6.375  0.00  0.00    -0.328 OA
ATOM     27  C   UNL d   1      14.141  19.162  -6.337  0.00  0.00     0.181 C 
ENDBRANCH  21  26
ENDBRANCH  10  18
BRANCH   4  28
ATOM     28  C   UNL d   1      13.961  12.371  -2.342  0.00  0.00     0.090 C 
BRANCH  28  29
ATOM     29  C   UNL d   1      13.758  12.173  -1.566  0.00  0.00     0.045 A 
ATOM     30  C   UNL d   1      14.348  11.981  -1.033  0.00  0.00     0.141 A 
ATOM     31  F   UNL d   1      15.138  11.984  -1.269  0.00  0.00    -0.204 F 
ATOM     32  C   UNL d   1      14.148  11.784  -0.260  0.00  0.00     0.030 A 
ATOM     33  C   UNL d   1      13.361  11.779  -0.021  0.00  0.00     0.002 A 
ATOM     34  C   UNL d   1      12.770  11.975  -0.566  0.00  0.00     0.000 A 
ATOM     35  C   UNL d   1      12.971  12.172  -1.340  0.00  0.00     0.004 A 
ENDBRANCH  28  29
ENDBRANCH   4  28
TORSDOF 5
ENDMDL
MODEL 2
REMARK VINA RESULT:      88.3      1.124      2.188
REMARK  5 active torsions:
REMARK  status: ('A' for Active; 'I' for Inactive)
REMARK    1  A    between atoms: C_11  and  N_4 
REMARK    2  A    between atoms: C_12  and  N_10 
REMARK    3  A    between atoms: C_14  and  C_11 
REMARK    4  A    between atoms: O_26  and  C_13 
REMARK    5  A    between atoms: O_28  and  C_24 
ROOT
ATOM      1  C   UNL d   1      14.894  15.923  -2.084  0.00  0.00     0.191 A 
ATOM      2  C   UNL d   1      14.563  15.219  -2.362  0.00  0.00     0.173 A 
ATOM      3  C   UNL d   1      14.553  16.179  -3.509  0.00  0.00     0.722 A 
ATOM      4  N   UNL d   1      14.743  14.630  -1.085  0.00  0.00    -0.224 N 
ATOM      5  N   UNL d   1      14.901  16.468  -2.691  0.00  0.00    -0.042 NA
ATOM      6  N   UNL d   1      14.372  15.341  -3.136  0.00  0.00    -0.132 N 
ATOM      7  N   UNL d   1      15.153  15.996  -1.307  0.00  0.00    -0.240 N 
ATOM      8  C   UNL d   1      15.073  15.334  -0.806  0.00  0.00     0.343 A 
ATOM      9  C   UNL d   1      14.493  14.588  -1.864  0.00  0.00     0.288 A 
ATOM     10  N   UNL d   1      14.356  16.287  -4.287  0.00  0.00    -0.138 N 
ATOM     11  C   UNL d   1      14.033  14.786  -3.619  0.00  0.00     0.100 A 
ATOM     12  C   UNL d   1      14.009  15.698  -4.754  0.00  0.00     0.100 A 
ATOM     13  O   UNL d   1      15.334  15.401  -0.017  0.00  0.00    -0.245 OA
ATOM     14  O   UNL d   1      14.162  13.883  -2.143  0.00  0.00    -0.265 OA
ATOM     15  C   UNL d   1      13.843  14.929  -4.413  0.00  0.00     0.036 A 
ATOM     16  C   UNL d   1      15.483  16.700  -1.029  0.00  0.00     0.105 C 
ATOM     17  C   UNL d   1      13.496  14.331  -4.870  0.00  0.00     0.003 C 
ENDROOT
BRANCH  10  18
ATOM     18  C   UNL d   1      14.519  17.032  -4.608  0.00  0.00     0.104 A 
ATOM     19  C   UNL d   1      15.231  17.161  -5.006  0.00  0.00     0.113 A 
ATOM     20  C   UNL d   1      15.425  17.874  -5.332  0.00  0.00     0.050 A 
ATOM     21  C   UNL d   1      14.891  18.514  -5.271  0.00  0.00     0.096 A 
ATOM     22  C   UNL d   1      14.163  18.393  -4.867  0.00  0.00     0.026 A 
ATOM     23  C   UNL d   1      13.993  17.660  -4.546  0.00  0.00     0.022 A 
BRANCH  19  24
ATOM     24  O   UNL d   1      15.768  16.538  -5.075  0.00  0.00    -0.327 OA
ATOM     25  C   UNL d   1      16.557  16.704  -5.171  0.00  0.00     0.181 C 
ENDBRANCH  19  24
BRANCH  21  26
ATOM     26  O   UNL d   1      15.066  19.265  -5.599  0.00  0.00    -0.328 OA
ATOM     27  C   UNL d   1      14.529  19.629  -6.112  0.00  0.00     0.181 C 
ENDBRANCH  21  26
ENDBRANCH  10  18
BRANCH   4  28
ATOM     28  C   UNL d   1      14.848  14.287  -0.340  0.00  0.00     0.090 C 
BRANCH  28  29
ATOM     29  C   UNL d   1      14.693  13.483  -0.231  0.00  0.00     0.045 A 
ATOM     30  C   UNL d   1      15.318  12.960  -0.159  0.00  0.00     0.141 A 
ATOM     31  F   UNL d   1      16.094  13.233  -0.195  0.00  0.00    -0.204 F 
ATOM     32  C   UNL d   1      15.166  12.159  -0.051  0.00  0.00     0.030 A 
ATOM     33  C   UNL d   1      14.392  11.883  -0.014  0.00  0.00     0.002 A 
ATOM     34  C   UNL d   1      13.766  12.418  -0.088  0.00  0.00     0.000 A 
ATOM     35  C   UNL d   1      13.918  13.219  -0.196  0.00  0.00     0.004 A 
ENDBRANCH  28  29
ENDBRANCH   4  28
TORSDOF 5
ENDMDL
