MODEL 1
REMARK VINA RESULT:      -8.8      0.000      0.000
REMARK  8 active torsions:
REMARK  status: ('A' for Active; 'I' for Inactive)
REMARK    1  A    between atoms: S_11  and  C_6 
REMARK    2  A    between atoms: O_23  and  C_10 
REMARK    3  A    between atoms: C_19  and  S_11 
REMARK    4  A    between atoms: C_12  and  C_19 
REMARK       I    between atoms: N_18  and  C_12 
REMARK    5  A    between atoms: O_25  and  C_13 
REMARK    6  A    between atoms: C_26  and  N_18 
REMARK    7  A    between atoms: C_20  and  C_27 
REMARK    8  A    between atoms: C_27  and  C_26 
ROOT
ATOM      1  C   UNL d   1      49.846  34.594  52.682  0.00  0.00     0.286 C 
ATOM      2  O   UNL d   1      49.693  34.489  51.878  0.00  0.00    -0.265 OA
ATOM      3  N   UNL d   1      49.339  35.055  53.147  0.00  0.00    -0.206 NA
ENDROOT
BRANCH   1   4
ATOM      4  C   UNL d   1      50.510  34.240  53.030  0.00  0.00     0.101 C 
BRANCH   4   5
ATOM      5  S   UNL d   1      51.218  34.192  52.617  0.00  0.00    -0.043 SA
BRANCH   5   6
ATOM      6  C   UNL d   1      51.873  33.819  52.959  0.00  0.00     0.198 A 
ATOM      7  N   UNL d   1      52.043  33.020  52.783  0.00  0.00    -0.200 NA
ATOM      8  C   UNL d   1      52.701  32.646  53.127  0.00  0.00     0.189 A 
ATOM      9  C   UNL d   1      53.190  33.071  53.648  0.00  0.00     0.081 A 
ATOM     10  N   UNL d   1      52.865  31.860  52.952  0.00  0.00    -0.127 N 
ATOM     11  C   UNL d   1      53.024  33.865  53.824  0.00  0.00     0.187 A 
ATOM     12  C   UNL d   1      53.870  32.851  54.065  0.00  0.00     0.029 A 
ATOM     13  N   UNL d   1      52.365  34.235  53.478  0.00  0.00    -0.197 NA
ATOM     14  O   UNL d   1      53.605  34.128  54.351  0.00  0.00    -0.289 OA
ATOM     15  C   UNL d   1      54.132  33.506  54.505  0.00  0.00     0.102 A 
ATOM     16  C   UNL d   1      54.785  33.533  54.996  0.00  0.00     0.027 C 
ATOM     17  C   UNL d   1      54.232  32.103  54.050  0.00  0.00     0.002 C 
ENDBRANCH   5   6
ENDBRANCH   4   5
ENDBRANCH   1   4
BRANCH   3  18
ATOM     18  C   UNL d   1      48.679  35.411  52.808  0.00  0.00     0.102 C 
BRANCH  18  19
ATOM     19  C   UNL d   1      48.287  36.015  53.205  0.00  0.00     0.021 C 
BRANCH  19  20
ATOM     20  C   UNL d   1      47.495  36.166  53.040  0.00  0.00     0.004 A 
ATOM     21  C   UNL d   1      46.941  36.149  53.648  0.00  0.00     0.026 A 
ATOM     22  C   UNL d   1      46.148  36.299  53.490  0.00  0.00     0.116 A 
ATOM     23  C   UNL d   1      45.904  36.466  52.721  0.00  0.00     0.116 A 
ATOM     24  C   UNL d   1      46.462  36.482  52.113  0.00  0.00     0.026 A 
ATOM     25  C   UNL d   1      47.255  36.333  52.271  0.00  0.00     0.002 A 
BRANCH  22  26
ATOM     26  O   UNL d   1      45.594  36.280  54.106  0.00  0.00    -0.326 OA
ATOM     27  C   UNL d   1      45.851  36.252  54.887  0.00  0.00     0.181 C 
ENDBRANCH  22  26
BRANCH  23  28
ATOM     28  O   UNL d   1      45.107  36.616  52.564  0.00  0.00    -0.326 OA
ATOM     29  C   UNL d   1      44.844  36.626  51.778  0.00  0.00     0.181 C 
ENDBRANCH  23  28
ENDBRANCH  19  20
ENDBRANCH  18  19
ENDBRANCH   3  18
TORSDOF 8
ENDMDL
MODEL 2
REMARK VINA RESULT:      -7.6      1.517      7.168
REMARK  8 active torsions:
REMARK  status: ('A' for Active; 'I' for Inactive)
REMARK    1  A    between atoms: S_11  and  C_6 
REMARK    2  A    between atoms: O_23  and  C_10 
REMARK    3  A    between atoms: C_19  and  S_11 
REMARK    4  A    between atoms: C_12  and  C_19 
REMARK       I    between atoms: N_18  and  C_12 
REMARK    5  A    between atoms: O_25  and  C_13 
REMARK    6  A    between atoms: C_26  and  N_18 
REMARK    7  A    between atoms: C_20  and  C_27 
REMARK    8  A    between atoms: C_27  and  C_26 
ROOT
ATOM      1  C   UNL d   1      50.213  34.443  52.202  0.00  0.00     0.286 C 
ATOM      2  O   UNL d   1      50.552  34.368  51.453  0.00  0.00    -0.265 OA
ATOM      3  N   UNL d   1      50.624  34.188  52.874  0.00  0.00    -0.206 NA
ENDROOT
BRANCH   1   4
ATOM      4  C   UNL d   1      49.457  34.773  52.286  0.00  0.00     0.101 C 
BRANCH   4   5
ATOM      5  S   UNL d   1      48.979  34.887  51.627  0.00  0.00    -0.043 SA
BRANCH   5   6
ATOM      6  C   UNL d   1      48.228  35.225  51.713  0.00  0.00     0.198 A 
ATOM      7  N   UNL d   1      48.090  35.803  52.301  0.00  0.00    -0.200 NA
ATOM      8  C   UNL d   1      47.335  36.141  52.386  0.00  0.00     0.189 A 
ATOM      9  C   UNL d   1      46.718  35.901  51.883  0.00  0.00     0.081 A 
ATOM     10  N   UNL d   1      47.203  36.709  52.964  0.00  0.00    -0.127 N 
ATOM     11  C   UNL d   1      46.853  35.327  51.299  0.00  0.00     0.187 A 
ATOM     12  C   UNL d   1      45.926  36.135  51.838  0.00  0.00     0.029 A 
ATOM     13  N   UNL d   1      47.609  34.991  51.217  0.00  0.00    -0.197 NA
ATOM     14  O   UNL d   1      46.139  35.212  50.897  0.00  0.00    -0.289 OA
ATOM     15  C   UNL d   1      45.561  35.708  51.225  0.00  0.00     0.102 A 
ATOM     16  C   UNL d   1      44.780  35.765  50.988  0.00  0.00     0.027 C 
ATOM     17  C   UNL d   1      45.554  36.700  52.321  0.00  0.00     0.002 C 
ENDBRANCH   5   6
ENDBRANCH   4   5
ENDBRANCH   1   4
BRANCH   3  18
ATOM     18  C   UNL d   1      51.375  33.860  52.797  0.00  0.00     0.102 C 
BRANCH  18  19
ATOM     19  C   UNL d   1      51.845  33.747  53.462  0.00  0.00     0.021 C 
BRANCH  19  20
ATOM     20  C   UNL d   1      52.356  33.102  53.498  0.00  0.00     0.004 A 
ATOM     21  C   UNL d   1      53.044  33.152  53.944  0.00  0.00     0.026 A 
ATOM     22  C   UNL d   1      53.560  32.512  53.984  0.00  0.00     0.116 A 
ATOM     23  C   UNL d   1      53.387  31.817  53.575  0.00  0.00     0.116 A 
ATOM     24  C   UNL d   1      52.695  31.771  53.128  0.00  0.00     0.026 A 
ATOM     25  C   UNL d   1      52.180  32.410  53.088  0.00  0.00     0.002 A 
BRANCH  22  26
ATOM     26  O   UNL d   1      54.252  32.567  54.435  0.00  0.00    -0.326 OA
ATOM     27  C   UNL d   1      54.422  33.261  54.842  0.00  0.00     0.181 C 
ENDBRANCH  22  26
BRANCH  23  28
ATOM     28  O   UNL d   1      53.905  31.175  53.616  0.00  0.00    -0.326 OA
ATOM     29  C   UNL d   1      53.677  30.449  53.287  0.00  0.00     0.181 C 
ENDBRANCH  23  28
ENDBRANCH  19  20
ENDBRANCH  18  19
ENDBRANCH   3  18
TORSDOF 8
ENDMDL
MODEL 3
REMARK VINA RESULT:      -7.5      1.554      7.209
REMARK  8 active torsions:
REMARK  status: ('A' for Active; 'I' for Inactive)
REMARK    1  A    between atoms: S_11  and  C_6 
REMARK    2  A    between atoms: O_23  and  C_10 
REMARK    3  A    between atoms: C_19  and  S_11 
REMARK    4  A    between atoms: C_12  and  C_19 
REMARK       I    between atoms: N_18  and  C_12 
REMARK    5  A    between atoms: O_25  and  C_13 
REMARK    6  A    between atoms: C_26  and  N_18 
REMARK    7  A    between atoms: C_20  and  C_27 
REMARK    8  A    between atoms: C_27  and  C_26 
ROOT
ATOM      1  C   UNL d   1      49.554  35.058  52.975  0.00  0.00     0.286 C 
ATOM      2  O   UNL d   1      49.812  35.543  53.592  0.00  0.00    -0.265 OA
ATOM      3  N   UNL d   1      50.057  34.481  52.660  0.00  0.00    -0.206 NA
ENDROOT
BRANCH   1   4
ATOM      4  C   UNL d   1      48.790  35.146  52.668  0.00  0.00     0.101 C 
BRANCH   4   5
ATOM      5  S   UNL d   1      48.378  35.849  52.775  0.00  0.00    -0.043 SA
BRANCH   5   6
ATOM      6  C   UNL d   1      47.563  35.879  52.630  0.00  0.00     0.198 A 
ATOM      7  N   UNL d   1      47.025  35.973  53.262  0.00  0.00    -0.200 NA
ATOM      8  C   UNL d   1      46.207  36.003  53.114  0.00  0.00     0.189 A 
ATOM      9  C   UNL d   1      45.928  35.939  52.334  0.00  0.00     0.081 A 
ATOM     10  N   UNL d   1      45.681  36.095  53.738  0.00  0.00    -0.127 N 
ATOM     11  C   UNL d   1      46.461  35.846  51.704  0.00  0.00     0.187 A 
ATOM     12  C   UNL d   1      45.161  35.950  52.024  0.00  0.00     0.029 A 
ATOM     13  N   UNL d   1      47.277  35.817  51.856  0.00  0.00    -0.197 NA
ATOM     14  O   UNL d   1      46.016  35.800  51.009  0.00  0.00    -0.289 OA
ATOM     15  C   UNL d   1      45.210  35.864  51.198  0.00  0.00     0.102 A 
ATOM     16  C   UNL d   1      44.585  35.845  50.672  0.00  0.00     0.027 C 
ATOM     17  C   UNL d   1      44.458  36.033  52.460  0.00  0.00     0.002 C 
ENDBRANCH   5   6
ENDBRANCH   4   5
ENDBRANCH   1   4
BRANCH   3  18
ATOM     18  C   UNL d   1      50.818  34.389  52.961  0.00  0.00     0.102 C 
BRANCH  18  19
ATOM     19  C   UNL d   1      51.379  33.964  52.536  0.00  0.00     0.021 C 
BRANCH  19  20
ATOM     20  C   UNL d   1      52.063  33.701  52.912  0.00  0.00     0.004 A 
ATOM     21  C   UNL d   1      52.243  32.899  52.917  0.00  0.00     0.026 A 
ATOM     22  C   UNL d   1      52.925  32.629  53.291  0.00  0.00     0.116 A 
ATOM     23  C   UNL d   1      53.430  33.163  53.663  0.00  0.00     0.116 A 
ATOM     24  C   UNL d   1      53.247  33.968  53.656  0.00  0.00     0.026 A 
ATOM     25  C   UNL d   1      52.566  34.237  53.283  0.00  0.00     0.002 A 
BRANCH  22  26
ATOM     26  O   UNL d   1      53.102  31.820  53.293  0.00  0.00    -0.326 OA
ATOM     27  C   UNL d   1      52.616  31.293  52.890  0.00  0.00     0.181 C 
ENDBRANCH  22  26
BRANCH  23  28
ATOM     28  O   UNL d   1      54.114  32.892  54.038  0.00  0.00    -0.326 OA
ATOM     29  C   UNL d   1      54.487  33.374  54.600  0.00  0.00     0.181 C 
ENDBRANCH  23  28
ENDBRANCH  19  20
ENDBRANCH  18  19
ENDBRANCH   3  18
TORSDOF 8
ENDMDL
MODEL 4
REMARK VINA RESULT:      -6.9      1.201      1.661
REMARK  8 active torsions:
REMARK  status: ('A' for Active; 'I' for Inactive)
REMARK    1  A    between atoms: S_11  and  C_6 
REMARK    2  A    between atoms: O_23  and  C_10 
REMARK    3  A    between atoms: C_19  and  S_11 
REMARK    4  A    between atoms: C_12  and  C_19 
REMARK       I    between atoms: N_18  and  C_12 
REMARK    5  A    between atoms: O_25  and  C_13 
REMARK    6  A    between atoms: C_26  and  N_18 
REMARK    7  A    between atoms: C_20  and  C_27 
REMARK    8  A    between atoms: C_27  and  C_26 
ROOT
ATOM      1  C   UNL d   1      49.997  34.579  52.657  0.00  0.00     0.286 C 
ATOM      2  O   UNL d   1      49.910  35.098  53.293  0.00  0.00    -0.265 OA
ATOM      3  N   UNL d   1      49.413  34.533  52.072  0.00  0.00    -0.206 NA
ENDROOT
BRANCH   1   4
ATOM      4  C   UNL d   1      50.671  34.099  52.600  0.00  0.00     0.101 C 
BRANCH   4   5
ATOM      5  S   UNL d   1      51.314  34.228  53.095  0.00  0.00    -0.043 SA
BRANCH   5   6
ATOM      6  C   UNL d   1      51.881  33.634  53.201  0.00  0.00     0.198 A 
ATOM      7  N   UNL d   1      52.593  33.798  53.606  0.00  0.00    -0.200 NA
ATOM      8  C   UNL d   1      53.162  33.200  53.712  0.00  0.00     0.189 A 
ATOM      9  C   UNL d   1      53.018  32.438  53.413  0.00  0.00     0.081 A 
ATOM     10  N   UNL d   1      53.861  33.365  54.110  0.00  0.00    -0.127 N 
ATOM     11  C   UNL d   1      52.311  32.273  53.010  0.00  0.00     0.187 A 
ATOM     12  C   UNL d   1      53.471  31.747  53.433  0.00  0.00     0.029 A 
ATOM     13  N   UNL d   1      51.745  32.872  52.906  0.00  0.00    -0.197 NA
ATOM     14  O   UNL d   1      52.335  31.477  52.785  0.00  0.00    -0.289 OA
ATOM     15  C   UNL d   1      53.050  31.145  53.043  0.00  0.00     0.102 A 
ATOM     16  C   UNL d   1      53.293  30.372  52.934  0.00  0.00     0.027 C 
ATOM     17  C   UNL d   1      54.221  31.663  53.783  0.00  0.00     0.002 C 
ENDBRANCH   5   6
ENDBRANCH   4   5
ENDBRANCH   1   4
BRANCH   3  18
ATOM     18  C   UNL d   1      48.742  35.006  52.122  0.00  0.00     0.102 C 
BRANCH  18  19
ATOM     19  C   UNL d   1      48.285  35.145  51.453  0.00  0.00     0.021 C 
BRANCH  19  20
ATOM     20  C   UNL d   1      47.521  35.444  51.534  0.00  0.00     0.004 A 
ATOM     21  C   UNL d   1      47.337  35.922  52.176  0.00  0.00     0.026 A 
ATOM     22  C   UNL d   1      46.577  36.223  52.264  0.00  0.00     0.116 A 
ATOM     23  C   UNL d   1      45.996  36.046  51.706  0.00  0.00     0.116 A 
ATOM     24  C   UNL d   1      46.184  35.566  51.062  0.00  0.00     0.026 A 
ATOM     25  C   UNL d   1      46.944  35.265  50.975  0.00  0.00     0.002 A 
BRANCH  22  26
ATOM     26  O   UNL d   1      46.395  36.705  52.913  0.00  0.00    -0.326 OA
ATOM     27  C   UNL d   1      46.691  36.518  53.657  0.00  0.00     0.181 C 
ENDBRANCH  22  26
BRANCH  23  28
ATOM     28  O   UNL d   1      45.232  36.350  51.795  0.00  0.00    -0.326 OA
ATOM     29  C   UNL d   1      44.651  36.154  51.237  0.00  0.00     0.181 C 
ENDBRANCH  23  28
ENDBRANCH  19  20
ENDBRANCH  18  19
ENDBRANCH   3  18
TORSDOF 8
ENDMDL
