MODEL 1
REMARK VINA RESULT:     -10.4      0.000      0.000
REMARK  5 active torsions:
REMARK  status: ('A' for Active; 'I' for Inactive)
REMARK    1  A    between atoms: C_11  and  C_3 
REMARK    2  A    between atoms: C_12  and  N_5 
REMARK    3  A    between atoms: C_10  and  C_14 
REMARK    4  A    between atoms: O_24  and  C_11 
REMARK    5  A    between atoms: C_25  and  O_24 
ROOT
ATOM      1  C   UNL d   1      53.485  33.632  54.407  0.00  0.00     0.086 A 
ATOM      2  C   UNL d   1      53.778  32.880  54.252  0.00  0.00     0.038 A 
ATOM      3  C   UNL d   1      53.393  32.391  53.711  0.00  0.00     0.165 A 
ATOM      4  C   UNL d   1      52.803  33.899  54.021  0.00  0.00     0.282 A 
ATOM      5  N   UNL d   1      52.419  33.413  53.482  0.00  0.00    -0.194 N 
ATOM      6  N   UNL d   1      52.711  32.658  53.324  0.00  0.00    -0.157 NA
ATOM      7  C   UNL d   1      53.983  33.984  54.966  0.00  0.00     0.137 A 
ATOM      8  C   UNL d   1      54.454  32.772  54.714  0.00  0.00     0.039 A 
ATOM      9  S   UNL d   1      54.577  33.449  55.150  0.00  0.00    -0.066 SA
ATOM     10  O   UNL d   1      52.505  34.660  54.177  0.00  0.00    -0.265 OA
ATOM     11  N   UNL d   1      53.912  34.745  55.296  0.00  0.00    -0.141 N 
ENDROOT
BRANCH   5  12
ATOM     12  C   UNL d   1      51.741  33.679  53.098  0.00  0.00     0.086 A 
ATOM     13  C   UNL d   1      51.002  33.556  53.435  0.00  0.00     0.019 A 
ATOM     14  C   UNL d   1      50.317  33.824  53.047  0.00  0.00     0.005 A 
ATOM     15  C   UNL d   1      50.378  34.213  52.326  0.00  0.00     0.072 A 
ATOM     16  C   UNL d   1      51.120  34.338  51.986  0.00  0.00     0.005 A 
ATOM     17  C   UNL d   1      51.804  34.069  52.374  0.00  0.00     0.019 A 
BRANCH  15  18
ATOM     18  C   UNL d   1      49.700  34.479  51.942  0.00  0.00     0.419 C 
ATOM     19  F   UNL d   1      49.082  34.720  51.588  0.00  0.00    -0.166 F 
ATOM     20  F   UNL d   1      49.458  34.358  51.130  0.00  0.00    -0.166 F 
ATOM     21  F   UNL d   1      49.055  34.946  52.248  0.00  0.00    -0.166 F 
ENDBRANCH  15  18
ENDBRANCH   5  12
BRANCH   3  22
ATOM     22  C   UNL d   1      53.692  31.630  53.555  0.00  0.00     0.320 C 
ATOM     23  O   UNL d   1      54.367  31.544  53.096  0.00  0.00    -0.257 OA
BRANCH  22  24
ATOM     24  O   UNL d   1      53.311  30.962  53.861  0.00  0.00    -0.270 OA
BRANCH  24  25
ATOM     25  C   UNL d   1      53.442  30.224  53.525  0.00  0.00     0.126 C 
ATOM     26  C   UNL d   1      53.084  29.548  53.852  0.00  0.00     0.029 C 
ENDBRANCH  24  25
ENDBRANCH  22  24
ENDBRANCH   3  22
TORSDOF 5
ENDMDL
MODEL 2
REMARK VINA RESULT:      -9.7      1.328      2.382
REMARK  5 active torsions:
REMARK  status: ('A' for Active; 'I' for Inactive)
REMARK    1  A    between atoms: C_11  and  C_3 
REMARK    2  A    between atoms: C_12  and  N_5 
REMARK    3  A    between atoms: C_10  and  C_14 
REMARK    4  A    between atoms: O_24  and  C_11 
REMARK    5  A    between atoms: C_25  and  O_24 
ROOT
ATOM      1  C   UNL d   1      52.934  31.377  53.254  0.00  0.00     0.086 A 
ATOM      2  C   UNL d   1      53.644  31.692  53.521  0.00  0.00     0.038 A 
ATOM      3  C   UNL d   1      53.720  32.506  53.627  0.00  0.00     0.165 A 
ATOM      4  C   UNL d   1      52.294  31.876  53.090  0.00  0.00     0.282 A 
ATOM      5  N   UNL d   1      52.368  32.687  53.195  0.00  0.00    -0.194 N 
ATOM      6  N   UNL d   1      53.080  33.006  53.463  0.00  0.00    -0.157 NA
ATOM      7  C   UNL d   1      53.028  30.557  53.205  0.00  0.00     0.137 A 
ATOM      8  C   UNL d   1      54.171  31.067  53.635  0.00  0.00     0.039 A 
ATOM      9  S   UNL d   1      53.792  30.373  53.441  0.00  0.00    -0.066 SA
ATOM     10  O   UNL d   1      51.574  31.559  52.819  0.00  0.00    -0.265 OA
ATOM     11  N   UNL d   1      52.460  29.998  52.961  0.00  0.00    -0.141 N 
ENDROOT
BRANCH   5  12
ATOM     12  C   UNL d   1      51.732  33.183  53.032  0.00  0.00     0.086 A 
ATOM     13  C   UNL d   1      51.093  33.216  53.547  0.00  0.00     0.019 A 
ATOM     14  C   UNL d   1      50.451  33.717  53.382  0.00  0.00     0.005 A 
ATOM     15  C   UNL d   1      50.453  34.181  52.704  0.00  0.00     0.072 A 
ATOM     16  C   UNL d   1      51.095  34.150  52.186  0.00  0.00     0.005 A 
ATOM     17  C   UNL d   1      51.737  33.649  52.351  0.00  0.00     0.019 A 
BRANCH  15  18
ATOM     18  C   UNL d   1      49.817  34.677  52.542  0.00  0.00     0.419 C 
ATOM     19  F   UNL d   1      49.236  35.129  52.389  0.00  0.00    -0.166 F 
ATOM     20  F   UNL d   1      49.295  34.681  51.863  0.00  0.00    -0.166 F 
ATOM     21  F   UNL d   1      49.505  35.324  53.003  0.00  0.00    -0.166 F 
ENDBRANCH  15  18
ENDBRANCH   5  12
BRANCH   3  22
ATOM     22  C   UNL d   1      54.440  32.823  53.898  0.00  0.00     0.320 C 
ATOM     23  O   UNL d   1      55.073  32.898  53.380  0.00  0.00    -0.257 OA
BRANCH  22  24
ATOM     24  O   UNL d   1      54.520  33.063  54.687  0.00  0.00    -0.270 OA
BRANCH  24  25
ATOM     25  C   UNL d   1      55.109  33.594  54.897  0.00  0.00     0.126 C 
ATOM     26  C   UNL d   1      55.137  33.901  55.670  0.00  0.00     0.029 C 
ENDBRANCH  24  25
ENDBRANCH  22  24
ENDBRANCH   3  22
TORSDOF 5
ENDMDL
MODEL 3
REMARK VINA RESULT:      -8.7      2.658      4.131
REMARK  5 active torsions:
REMARK  status: ('A' for Active; 'I' for Inactive)
REMARK    1  A    between atoms: C_11  and  C_3 
REMARK    2  A    between atoms: C_12  and  N_5 
REMARK    3  A    between atoms: C_10  and  C_14 
REMARK    4  A    between atoms: O_24  and  C_11 
REMARK    5  A    between atoms: C_25  and  O_24 
ROOT
ATOM      1  C   UNL d   1      52.990  33.948  54.015  0.00  0.00     0.086 A 
ATOM      2  C   UNL d   1      52.471  34.308  53.490  0.00  0.00     0.038 A 
ATOM      3  C   UNL d   1      52.045  33.851  52.952  0.00  0.00     0.165 A 
ATOM      4  C   UNL d   1      53.085  33.126  54.006  0.00  0.00     0.282 A 
ATOM      5  N   UNL d   1      52.661  32.669  53.472  0.00  0.00    -0.194 N 
ATOM      6  N   UNL d   1      52.140  33.028  52.943  0.00  0.00    -0.157 NA
ATOM      7  C   UNL d   1      53.331  34.543  54.477  0.00  0.00     0.137 A 
ATOM      8  C   UNL d   1      52.495  35.122  53.629  0.00  0.00     0.039 A 
ATOM      9  S   UNL d   1      53.022  35.263  54.234  0.00  0.00    -0.066 SA
ATOM     10  O   UNL d   1      53.610  32.759  54.538  0.00  0.00    -0.265 OA
ATOM     11  N   UNL d   1      53.892  34.450  55.086  0.00  0.00    -0.141 N 
ENDROOT
BRANCH   5  12
ATOM     12  C   UNL d   1      52.755  31.851  53.463  0.00  0.00     0.086 A 
ATOM     13  C   UNL d   1      53.492  31.524  53.303  0.00  0.00     0.019 A 
ATOM     14  C   UNL d   1      53.587  30.698  53.294  0.00  0.00     0.005 A 
ATOM     15  C   UNL d   1      52.945  30.207  53.444  0.00  0.00     0.072 A 
ATOM     16  C   UNL d   1      52.205  30.535  53.604  0.00  0.00     0.005 A 
ATOM     17  C   UNL d   1      52.109  31.360  53.614  0.00  0.00     0.019 A 
BRANCH  15  18
ATOM     18  C   UNL d   1      53.040  29.390  53.435  0.00  0.00     0.419 C 
ATOM     19  F   UNL d   1      53.128  28.643  53.430  0.00  0.00    -0.166 F 
ATOM     20  F   UNL d   1      53.424  28.884  54.010  0.00  0.00    -0.166 F 
ATOM     21  F   UNL d   1      52.781  28.823  52.852  0.00  0.00    -0.166 F 
ENDBRANCH  15  18
ENDBRANCH   5  12
BRANCH   3  22
ATOM     22  C   UNL d   1      51.520  34.218  52.421  0.00  0.00     0.320 C 
ATOM     23  O   UNL d   1      51.799  34.501  51.702  0.00  0.00    -0.257 OA
BRANCH  22  24
ATOM     24  O   UNL d   1      50.719  34.299  52.615  0.00  0.00    -0.270 OA
BRANCH  24  25
ATOM     25  C   UNL d   1      50.162  34.411  52.022  0.00  0.00     0.126 C 
ATOM     26  C   UNL d   1      49.361  34.524  52.219  0.00  0.00     0.029 C 
ENDBRANCH  24  25
ENDBRANCH  22  24
ENDBRANCH   3  22
TORSDOF 5
ENDMDL
MODEL 4
REMARK VINA RESULT:      -7.5      2.816      4.164
REMARK  5 active torsions:
REMARK  status: ('A' for Active; 'I' for Inactive)
REMARK    1  A    between atoms: C_11  and  C_3 
REMARK    2  A    between atoms: C_12  and  N_5 
REMARK    3  A    between atoms: C_10  and  C_14 
REMARK    4  A    between atoms: O_24  and  C_11 
REMARK    5  A    between atoms: C_25  and  O_24 
ROOT
ATOM      1  C   UNL d   1      52.336  33.725  53.004  0.00  0.00     0.086 A 
ATOM      2  C   UNL d   1      52.751  34.136  53.580  0.00  0.00     0.038 A 
ATOM      3  C   UNL d   1      53.204  33.727  54.135  0.00  0.00     0.165 A 
ATOM      4  C   UNL d   1      52.371  32.898  52.978  0.00  0.00     0.282 A 
ATOM      5  N   UNL d   1      52.822  32.489  53.530  0.00  0.00    -0.194 N 
ATOM      6  N   UNL d   1      53.240  32.900  54.109  0.00  0.00    -0.157 NA
ATOM      7  C   UNL d   1      51.940  34.280  52.536  0.00  0.00     0.137 A 
ATOM      8  C   UNL d   1      52.610  34.942  53.466  0.00  0.00     0.039 A 
ATOM      9  S   UNL d   1      52.113  35.027  52.826  0.00  0.00    -0.066 SA
ATOM     10  O   UNL d   1      51.951  32.478  52.395  0.00  0.00    -0.265 OA
ATOM     11  N   UNL d   1      51.448  34.129  51.882  0.00  0.00    -0.141 N 
ENDROOT
BRANCH   5  12
ATOM     12  C   UNL d   1      52.857  31.667  53.505  0.00  0.00     0.086 A 
ATOM     13  C   UNL d   1      52.193  31.220  53.693  0.00  0.00     0.019 A 
ATOM     14  C   UNL d   1      52.229  30.390  53.667  0.00  0.00     0.005 A 
ATOM     15  C   UNL d   1      52.927  30.014  53.454  0.00  0.00     0.072 A 
ATOM     16  C   UNL d   1      53.595  30.461  53.265  0.00  0.00     0.005 A 
ATOM     17  C   UNL d   1      53.560  31.291  53.291  0.00  0.00     0.019 A 
BRANCH  15  18
ATOM     18  C   UNL d   1      52.963  29.192  53.429  0.00  0.00     0.419 C 
ATOM     19  F   UNL d   1      52.993  28.441  53.403  0.00  0.00    -0.166 F 
ATOM     20  F   UNL d   1      52.712  28.660  52.807  0.00  0.00    -0.166 F 
ATOM     21  F   UNL d   1      53.257  28.646  54.015  0.00  0.00    -0.166 F 
ENDBRANCH  15  18
ENDBRANCH   5  12
BRANCH   3  22
ATOM     22  C   UNL d   1      53.624  34.147  54.718  0.00  0.00     0.320 C 
ATOM     23  O   UNL d   1      53.218  34.496  55.341  0.00  0.00    -0.257 OA
BRANCH  22  24
ATOM     24  O   UNL d   1      54.448  34.214  54.671  0.00  0.00    -0.270 OA
BRANCH  24  25
ATOM     25  C   UNL d   1      54.906  34.130  55.348  0.00  0.00     0.126 C 
ATOM     26  C   UNL d   1      55.726  34.005  55.282  0.00  0.00     0.029 C 
ENDBRANCH  24  25
ENDBRANCH  22  24
ENDBRANCH   3  22
TORSDOF 5
ENDMDL
