MODEL 1
REMARK VINA RESULT:      22.9      0.000      0.000
REMARK  6 active torsions:
REMARK  status: ('A' for Active; 'I' for Inactive)
REMARK    1  A    between atoms: C_6  and  C_1 
REMARK    2  A    between atoms: C_7  and  C_3 
REMARK    3  A    between atoms: O_11  and  C_6 
REMARK    4  A    between atoms: O_12  and  C_7 
REMARK    5  A    between atoms: C_14  and  O_11 
REMARK    6  A    between atoms: C_15  and  O_12 
ROOT
ATOM      1  C   UNL d   1     -57.733 -98.891 -44.451  0.00  0.00     0.083 A 
ATOM      2  C   UNL d   1     -57.127 -98.863 -45.030  0.00  0.00     0.030 A 
ATOM      3  C   UNL d   1     -56.410 -98.922 -44.623  0.00  0.00     0.145 A 
ATOM      4  N   UNL d   1     -56.553 -98.985 -43.825  0.00  0.00    -0.240 NA
ATOM      5  C   UNL d   1     -57.379 -98.965 -43.719  0.00  0.00     0.087 A 
ATOM      6  C   UNL d   1     -57.241 -98.792 -45.828  0.00  0.00     0.002 C 
ATOM      7  C   UNL d   1     -57.789 -99.012 -43.002  0.00  0.00     0.021 C 
ENDROOT
BRANCH   1   8
ATOM      8  C   UNL d   1     -58.545 -98.853 -44.580  0.00  0.00     0.302 C 
ATOM      9  O   UNL d   1     -59.049 -98.859 -43.960  0.00  0.00    -0.259 OA
BRANCH   8  10
ATOM     10  O   UNL d   1     -58.829 -98.807 -45.371  0.00  0.00    -0.271 OA
BRANCH  10  11
ATOM     11  C   UNL d   1     -59.598 -98.941 -45.544  0.00  0.00     0.126 C 
ATOM     12  C   UNL d   1     -59.889 -98.828 -46.310  0.00  0.00     0.029 C 
ENDBRANCH  10  11
ENDBRANCH   8  10
ENDBRANCH   1   8
BRANCH   3  13
ATOM     13  C   UNL d   1     -55.673 -98.915 -45.002  0.00  0.00     0.318 C 
ATOM     14  O   UNL d   1     -55.608 -98.785 -45.787  0.00  0.00    -0.257 OA
BRANCH  13  15
ATOM     15  O   UNL d   1     -55.001 -99.044 -44.563  0.00  0.00    -0.270 OA
BRANCH  15  16
ATOM     16  C   UNL d   1     -54.988 -99.600 -43.961  0.00  0.00     0.126 C 
ATOM     17  C   UNL d   1     -54.718-100.354 -44.095  0.00  0.00     0.029 C 
ENDBRANCH  15  16
ENDBRANCH  13  15
ENDBRANCH   3  13
TORSDOF 6
ENDMDL
MODEL 2
REMARK VINA RESULT:      23.1      0.917      1.739
REMARK  6 active torsions:
REMARK  status: ('A' for Active; 'I' for Inactive)
REMARK    1  A    between atoms: C_6  and  C_1 
REMARK    2  A    between atoms: C_7  and  C_3 
REMARK    3  A    between atoms: O_11  and  C_6 
REMARK    4  A    between atoms: O_12  and  C_7 
REMARK    5  A    between atoms: C_14  and  O_11 
REMARK    6  A    between atoms: C_15  and  O_12 
ROOT
ATOM      1  C   UNL d   1     -57.688 -98.967 -44.631  0.00  0.00     0.083 A 
ATOM      2  C   UNL d   1     -57.030 -99.038 -44.116  0.00  0.00     0.030 A 
ATOM      3  C   UNL d   1     -56.354 -98.961 -44.586  0.00  0.00     0.145 A 
ATOM      4  N   UNL d   1     -56.572 -98.848 -45.362  0.00  0.00    -0.240 NA
ATOM      5  C   UNL d   1     -57.404 -98.851 -45.388  0.00  0.00     0.087 A 
ATOM      6  C   UNL d   1     -57.068 -99.157 -43.317  0.00  0.00     0.002 C 
ATOM      7  C   UNL d   1     -57.880 -98.756 -46.058  0.00  0.00     0.021 C 
ENDROOT
BRANCH   1   8
ATOM      8  C   UNL d   1     -58.485 -99.005 -44.427  0.00  0.00     0.302 C 
ATOM      9  O   UNL d   1     -59.020 -99.276 -44.955  0.00  0.00    -0.259 OA
BRANCH   8  10
ATOM     10  O   UNL d   1     -58.720 -98.756 -43.659  0.00  0.00    -0.271 OA
BRANCH  10  11
ATOM     11  C   UNL d   1     -59.202 -99.205 -43.206  0.00  0.00     0.126 C 
ATOM     12  C   UNL d   1     -59.766 -98.859 -42.710  0.00  0.00     0.029 C 
ENDBRANCH  10  11
ENDBRANCH   8  10
ENDBRANCH   1   8
BRANCH   3  13
ATOM     13  C   UNL d   1     -55.585 -98.999 -44.281  0.00  0.00     0.318 C 
ATOM     14  O   UNL d   1     -55.418 -98.761 -43.538  0.00  0.00    -0.257 OA
BRANCH  13  15
ATOM     15  O   UNL d   1     -54.987 -99.287 -44.750  0.00  0.00    -0.270 OA
BRANCH  15  16
ATOM     16  C   UNL d   1     -54.724-100.060 -44.676  0.00  0.00     0.126 C 
ATOM     17  C   UNL d   1     -54.981-100.531 -44.067  0.00  0.00     0.029 C 
ENDBRANCH  15  16
ENDBRANCH  13  15
ENDBRANCH   3  13
TORSDOF 6
ENDMDL
