MODEL 1
REMARK VINA RESULT:      18.7      0.000      0.000
REMARK  6 active torsions:
REMARK  status: ('A' for Active; 'I' for Inactive)
REMARK    1  A    between atoms: C_7  and  C_4 
REMARK    2  A    between atoms: O_17  and  C_6 
REMARK    3  A    between atoms: C_8  and  C_7 
REMARK    4  A    between atoms: C_12  and  C_8 
REMARK    5  A    between atoms: O_21  and  C_11 
REMARK    6  A    between atoms: O_22  and  C_18 
ROOT
ATOM      1  C   UNL d   1      45.184 -14.843  44.464  0.00  0.00     0.090 A 
ATOM      2  C   UNL d   1      44.579 -15.395  44.533  0.00  0.00     0.302 A 
ATOM      3  O   UNL d   1      44.922 -16.083  44.345  0.00  0.00    -0.273 OA
ATOM      4  C   UNL d   1      45.681 -15.980  44.170  0.00  0.00     0.107 A 
ATOM      5  C   UNL d   1      45.865 -15.202  44.240  0.00  0.00     0.030 A 
ATOM      6  C   UNL d   1      45.170 -14.007  44.592  0.00  0.00     0.121 A 
ATOM      7  C   UNL d   1      46.552 -14.770  44.132  0.00  0.00     0.004 A 
ATOM      8  O   UNL d   1      43.766 -15.249  44.758  0.00  0.00    -0.259 OA
ATOM      9  C   UNL d   1      45.872 -13.578  44.480  0.00  0.00     0.117 A 
ATOM     10  C   UNL d   1      46.539 -13.954  44.257  0.00  0.00     0.026 A 
ENDROOT
BRANCH   4  11
ATOM     11  C   UNL d   1      46.219 -16.588  43.945  0.00  0.00     0.067 C 
BRANCH  11  12
ATOM     12  C   UNL d   1      46.141 -17.391  44.135  0.00  0.00     0.198 C 
ATOM     13  O   UNL d   1      45.903 -17.548  44.955  0.00  0.00    -0.286 OA
BRANCH  12  14
ATOM     14  C   UNL d   1      46.259 -17.974  43.657  0.00  0.00     0.039 A 
ATOM     15  C   UNL d   1      46.185 -17.845  42.877  0.00  0.00     0.005 A 
ATOM     16  C   UNL d   1      46.315 -18.483  42.352  0.00  0.00     0.024 A 
ATOM     17  C   UNL d   1      46.523 -19.274  42.580  0.00  0.00     0.094 A 
ATOM     18  C   UNL d   1      46.591 -19.368  43.417  0.00  0.00     0.024 A 
ATOM     19  C   UNL d   1      46.463 -18.746  43.879  0.00  0.00     0.005 A 
BRANCH  17  20
ATOM     20  O   UNL d   1      46.645 -19.883  42.051  0.00  0.00    -0.328 OA
ATOM     21  C   UNL d   1      46.541 -19.795  41.096  0.00  0.00     0.181 C 
ENDBRANCH  17  20
ENDBRANCH  12  14
ENDBRANCH  11  12
ENDBRANCH   4  11
BRANCH   6  22
ATOM     22  O   UNL d   1      44.497 -13.613  44.819  0.00  0.00    -0.326 OA
ATOM     23  C   UNL d   1      44.168 -13.080  44.336  0.00  0.00     0.181 C 
ENDBRANCH   6  22
BRANCH   9  24
ATOM     24  O   UNL d   1      45.919 -12.759  44.590  0.00  0.00    -0.326 OA
ATOM     25  C   UNL d   1      46.583 -12.420  44.896  0.00  0.00     0.181 C 
ENDBRANCH   9  24
TORSDOF 6
ENDMDL
