MODEL 1
REMARK VINA RESULT:      11.3      0.000      0.000
REMARK  2 active torsions:
REMARK  status: ('A' for Active; 'I' for Inactive)
REMARK    1  A    between atoms: C_6  and  C_1 
REMARK    2  A    between atoms: C_8  and  C_5 
ROOT
ATOM      1  C   UNL d   1      59.531  49.629  50.888  0.00  0.00     0.169 A 
ATOM      2  C   UNL d   1      58.950  49.617  50.288  0.00  0.00     0.048 A 
ATOM      3  N   UNL d   1      58.323  49.704  51.465  0.00  0.00    -0.148 NA
ATOM      4  N   UNL d   1      59.135  49.683  51.616  0.00  0.00    -0.142 NA
ATOM      5  C   UNL d   1      58.219  49.662  50.637  0.00  0.00     0.105 A 
ENDROOT
BRANCH   5   6
ATOM      6  C   UNL d   1      57.513  49.666  50.252  0.00  0.00     0.019 A 
ATOM      7  C   UNL d   1      56.810  49.655  50.684  0.00  0.00     0.002 A 
ATOM      8  C   UNL d   1      56.078  49.659  50.301  0.00  0.00     0.000 A 
ATOM      9  C   UNL d   1      56.062  49.673  49.476  0.00  0.00     0.000 A 
ATOM     10  C   UNL d   1      56.763  49.683  49.033  0.00  0.00     0.000 A 
ATOM     11  C   UNL d   1      57.482  49.679  49.428  0.00  0.00     0.002 A 
ENDBRANCH   5   6
BRANCH   1  12
ATOM     12  C   UNL d   1      60.331  49.593  50.750  0.00  0.00     0.231 C 
ATOM     13  O   UNL d   1      60.871  49.562  51.340  0.00  0.00    -0.643 OA
ATOM     14  O   UNL d   1      60.623  49.588  49.981  0.00  0.00    -0.643 OA
ENDBRANCH   1  12
TORSDOF 2
ENDMDL
MODEL 2
REMARK VINA RESULT:      13.6      1.943      3.462
REMARK  2 active torsions:
REMARK  status: ('A' for Active; 'I' for Inactive)
REMARK    1  A    between atoms: C_6  and  C_1 
REMARK    2  A    between atoms: C_8  and  C_5 
ROOT
ATOM      1  C   UNL d   1      57.491  49.602  49.940  0.00  0.00     0.169 A 
ATOM      2  C   UNL d   1      58.063  49.599  50.549  0.00  0.00     0.048 A 
ATOM      3  N   UNL d   1      58.707  49.701  49.382  0.00  0.00    -0.148 NA
ATOM      4  N   UNL d   1      57.898  49.665  49.218  0.00  0.00    -0.142 NA
ATOM      5  C   UNL d   1      58.798  49.659  50.211  0.00  0.00     0.105 A 
ENDROOT
BRANCH   5   6
ATOM      6  C   UNL d   1      59.498  49.675  50.608  0.00  0.00     0.019 A 
ATOM      7  C   UNL d   1      60.208  49.676  50.188  0.00  0.00     0.002 A 
ATOM      8  C   UNL d   1      60.933  49.692  50.582  0.00  0.00     0.000 A 
ATOM      9  C   UNL d   1      60.935  49.708  51.408  0.00  0.00     0.000 A 
ATOM     10  C   UNL d   1      60.228  49.707  51.838  0.00  0.00     0.000 A 
ATOM     11  C   UNL d   1      59.515  49.691  51.433  0.00  0.00     0.002 A 
ENDBRANCH   5   6
BRANCH   1  12
ATOM     12  C   UNL d   1      56.689  49.551  50.064  0.00  0.00     0.231 C 
ATOM     13  O   UNL d   1      56.351  49.701  50.774  0.00  0.00    -0.643 OA
ATOM     14  O   UNL d   1      56.184  49.337  49.450  0.00  0.00    -0.643 OA
ENDBRANCH   1  12
TORSDOF 2
ENDMDL
