MODEL 1
REMARK VINA RESULT:      86.4      0.000      0.000
REMARK  2 active torsions:
REMARK  status: ('A' for Active; 'I' for Inactive)
REMARK    1  A    between atoms: N_9  and  C_2 
REMARK    2  A    between atoms: C_4  and  N_10 
ROOT
ATOM      1  C   UNL d   1     -50.824  25.894  33.733  0.00  0.00     0.152 A 
ATOM      2  C   UNL d   1     -51.004  26.696  33.807  0.00  0.00     0.174 A 
ATOM      3  C   UNL d   1     -51.412  25.357  33.517  0.00  0.00     0.111 A 
ATOM      4  O   UNL d   1     -50.122  25.473  33.838  0.00  0.00    -0.302 OA
ATOM      5  N   UNL d   1     -51.771  26.961  33.665  0.00  0.00    -0.207 NA
ATOM      6  C   UNL d   1     -51.076  24.606  33.487  0.00  0.00     0.043 A 
ATOM      7  N   UNL d   1     -52.179  25.623  33.374  0.00  0.00    -0.225 NA
ATOM      8  C   UNL d   1     -50.277  24.677  33.686  0.00  0.00     0.102 A 
ATOM      9  C   UNL d   1     -52.358  26.425  33.448  0.00  0.00     0.164 A 
ATOM     10  C   UNL d   1     -51.391  23.867  33.306  0.00  0.00     0.004 A 
ATOM     11  C   UNL d   1     -49.794  24.007  33.703  0.00  0.00     0.025 A 
ATOM     12  C   UNL d   1     -53.126  26.691  33.306  0.00  0.00     0.042 C 
ATOM     13  C   UNL d   1     -50.907  23.196  33.323  0.00  0.00     0.000 A 
ATOM     14  C   UNL d   1     -50.109  23.268  33.521  0.00  0.00     0.002 A 
ENDROOT
BRANCH   2  15
ATOM     15  N   UNL d   1     -50.414  27.231  34.024  0.00  0.00    -0.285 N 
ATOM     16  C   UNL d   1     -50.206  27.843  33.510  0.00  0.00     0.101 A 
ATOM     17  C   UNL d   1     -49.617  28.379  33.726  0.00  0.00     0.117 A 
ATOM     18  N   UNL d   1     -49.236  28.302  34.455  0.00  0.00    -0.135 N 
ATOM     19  C   UNL d   1     -49.444  27.691  34.966  0.00  0.00     0.117 A 
ATOM     20  C   UNL d   1     -50.034  27.155  34.751  0.00  0.00     0.101 A 
BRANCH  18  21
ATOM     21  C   UNL d   1     -48.647  28.838  34.670  0.00  0.00     0.735 A 
ATOM     22  N   UNL d   1     -48.703  29.628  34.439  0.00  0.00    -0.060 NA
ATOM     23  C   UNL d   1     -48.116  30.164  34.653  0.00  0.00     0.101 A 
ATOM     24  C   UNL d   1     -48.173  30.955  34.422  0.00  0.00     0.021 C 
ATOM     25  C   UNL d   1     -47.468  29.911  35.099  0.00  0.00     0.040 A 
ATOM     26  C   UNL d   1     -47.412  29.122  35.330  0.00  0.00     0.101 A 
ATOM     27  N   UNL d   1     -48.001  28.585  35.115  0.00  0.00    -0.060 NA
ATOM     28  C   UNL d   1     -46.766  28.868  35.776  0.00  0.00     0.021 C 
ENDBRANCH  18  21
ENDBRANCH   2  15
TORSDOF 2
ENDMDL
MODEL 2
REMARK VINA RESULT:      86.6      1.403      5.879
REMARK  2 active torsions:
REMARK  status: ('A' for Active; 'I' for Inactive)
REMARK    1  A    between atoms: N_9  and  C_2 
REMARK    2  A    between atoms: C_4  and  N_10 
ROOT
ATOM      1  C   UNL d   1     -48.130  30.140  34.908  0.00  0.00     0.152 A 
ATOM      2  C   UNL d   1     -48.096  29.374  35.214  0.00  0.00     0.174 A 
ATOM      3  C   UNL d   1     -47.646  30.730  35.222  0.00  0.00     0.111 A 
ATOM      4  O   UNL d   1     -48.581  30.475  34.305  0.00  0.00    -0.302 OA
ATOM      5  N   UNL d   1     -47.579  29.197  35.831  0.00  0.00    -0.207 NA
ATOM      6  C   UNL d   1     -47.797  31.429  34.814  0.00  0.00     0.043 A 
ATOM      7  N   UNL d   1     -47.129  30.553  35.839  0.00  0.00    -0.225 NA
ATOM      8  C   UNL d   1     -48.377  31.272  34.246  0.00  0.00     0.102 A 
ATOM      9  C   UNL d   1     -47.096  29.787  36.144  0.00  0.00     0.164 A 
ATOM     10  C   UNL d   1     -47.484  32.188  34.884  0.00  0.00     0.004 A 
ATOM     11  C   UNL d   1     -48.642  31.875  33.749  0.00  0.00     0.025 A 
ATOM     12  C   UNL d   1     -46.579  29.610  36.761  0.00  0.00     0.042 C 
ATOM     13  C   UNL d   1     -47.751  32.792  34.386  0.00  0.00     0.000 A 
ATOM     14  C   UNL d   1     -48.329  32.634  33.819  0.00  0.00     0.002 A 
ENDROOT
BRANCH   2  15
ATOM     15  N   UNL d   1     -48.581  28.784  34.899  0.00  0.00    -0.285 N 
ATOM     16  C   UNL d   1     -48.775  28.797  34.097  0.00  0.00     0.101 A 
ATOM     17  C   UNL d   1     -49.260  28.208  33.781  0.00  0.00     0.117 A 
ATOM     18  N   UNL d   1     -49.550  27.607  34.268  0.00  0.00    -0.135 N 
ATOM     19  C   UNL d   1     -49.355  27.596  35.068  0.00  0.00     0.117 A 
ATOM     20  C   UNL d   1     -48.871  28.184  35.385  0.00  0.00     0.101 A 
BRANCH  18  21
ATOM     21  C   UNL d   1     -50.035  27.019  33.952  0.00  0.00     0.735 A 
ATOM     22  N   UNL d   1     -49.725  26.273  33.789  0.00  0.00    -0.060 NA
ATOM     23  C   UNL d   1     -50.207  25.684  33.473  0.00  0.00     0.101 A 
ATOM     24  C   UNL d   1     -49.896  24.937  33.310  0.00  0.00     0.021 C 
ATOM     25  C   UNL d   1     -51.003  25.842  33.319  0.00  0.00     0.040 A 
ATOM     26  C   UNL d   1     -51.313  26.589  33.482  0.00  0.00     0.101 A 
ATOM     27  N   UNL d   1     -50.829  27.178  33.798  0.00  0.00    -0.060 NA
ATOM     28  C   UNL d   1     -52.108  26.747  33.328  0.00  0.00     0.021 C 
ENDBRANCH  18  21
ENDBRANCH   2  15
TORSDOF 2
ENDMDL
