MODEL 1
REMARK VINA RESULT:      -8.9      0.000      0.000
REMARK  4 active torsions:
REMARK  status: ('A' for Active; 'I' for Inactive)
REMARK    1  A    between atoms: C_2  and  S_1 
REMARK    2  A    between atoms: N_3  and  S_1 
REMARK    3  A    between atoms: C_7  and  N_3 
REMARK    4  A    between atoms: C_8  and  C_4 
ROOT
ATOM      1  S   UNL d   1     -48.278  13.677  22.865  0.00  0.00     0.285 S 
ATOM      2  O   UNL d   1     -48.240  13.644  22.040  0.00  0.00    -0.198 OA
ATOM      3  O   UNL d   1     -48.318  13.711  23.698  0.00  0.00    -0.198 OA
ENDROOT
BRANCH   1   4
ATOM      4  C   UNL d   1     -47.574  13.232  22.918  0.00  0.00     0.105 A 
ATOM      5  C   UNL d   1     -46.874  13.539  22.609  0.00  0.00     0.012 A 
ATOM      6  C   UNL d   1     -46.176  13.105  22.658  0.00  0.00     0.001 A 
ATOM      7  C   UNL d   1     -46.864  14.291  22.243  0.00  0.00     0.001 C 
ATOM      8  C   UNL d   1     -45.475  13.412  22.349  0.00  0.00     0.000 C 
ATOM      9  C   UNL d   1     -46.180  12.350  23.024  0.00  0.00     0.000 A 
ATOM     10  C   UNL d   1     -46.888  12.049  23.332  0.00  0.00     0.001 A 
ATOM     11  C   UNL d   1     -47.584  12.488  23.280  0.00  0.00     0.012 A 
ATOM     12  C   UNL d   1     -46.897  11.296  23.698  0.00  0.00     0.000 C 
ATOM     13  C   UNL d   1     -48.290  12.192  23.586  0.00  0.00     0.001 C 
ENDBRANCH   1   4
BRANCH   1  14
ATOM     14  N   UNL d   1     -48.979  14.120  22.815  0.00  0.00    -0.158 NA
BRANCH  14  15
ATOM     15  C   UNL d   1     -49.610  13.845  22.355  0.00  0.00     0.100 A 
ATOM     16  C   UNL d   1     -50.338  14.244  22.367  0.00  0.00     0.083 A 
ATOM     17  C   UNL d   1     -50.967  13.973  21.911  0.00  0.00     0.008 A 
ATOM     18  C   UNL d   1     -50.875  13.303  21.438  0.00  0.00     0.000 A 
ATOM     19  C   UNL d   1     -50.156  12.905  21.423  0.00  0.00     0.002 A 
ATOM     20  C   UNL d   1     -49.519  13.175  21.882  0.00  0.00     0.020 A 
BRANCH  16  21
ATOM     21  C   UNL d   1     -50.434  14.915  22.839  0.00  0.00     0.212 C 
ATOM     22  O   UNL d   1     -50.229  15.659  22.550  0.00  0.00    -0.644 OA
ATOM     23  O   UNL d   1     -50.735  14.843  23.604  0.00  0.00    -0.644 OA
ENDBRANCH  16  21
ENDBRANCH  14  15
ENDBRANCH   1  14
TORSDOF 4
ENDMDL
MODEL 2
REMARK VINA RESULT:      -8.6      1.400      3.730
REMARK  4 active torsions:
REMARK  status: ('A' for Active; 'I' for Inactive)
REMARK    1  A    between atoms: C_2  and  S_1 
REMARK    2  A    between atoms: N_3  and  S_1 
REMARK    3  A    between atoms: C_7  and  N_3 
REMARK    4  A    between atoms: C_8  and  C_4 
ROOT
ATOM      1  S   UNL d   1     -48.476  12.611  22.513  0.00  0.00     0.285 S 
ATOM      2  O   UNL d   1     -48.499  13.026  23.229  0.00  0.00    -0.198 OA
ATOM      3  O   UNL d   1     -48.450  12.194  21.792  0.00  0.00    -0.198 OA
ENDROOT
BRANCH   1   4
ATOM      4  C   UNL d   1     -49.310  12.599  22.489  0.00  0.00     0.105 A 
ATOM      5  C   UNL d   1     -49.705  12.975  21.870  0.00  0.00     0.012 A 
ATOM      6  C   UNL d   1     -50.528  12.967  21.840  0.00  0.00     0.001 A 
ATOM      7  C   UNL d   1     -49.276  13.368  21.268  0.00  0.00     0.001 C 
ATOM      8  C   UNL d   1     -50.923  13.343  21.221  0.00  0.00     0.000 C 
ATOM      9  C   UNL d   1     -50.962  12.575  22.440  0.00  0.00     0.000 A 
ATOM     10  C   UNL d   1     -50.558  12.199  23.059  0.00  0.00     0.001 A 
ATOM     11  C   UNL d   1     -49.733  12.211  23.084  0.00  0.00     0.012 A 
ATOM     12  C   UNL d   1     -50.986  11.806  23.661  0.00  0.00     0.000 C 
ATOM     13  C   UNL d   1     -49.327  11.838  23.698  0.00  0.00     0.001 C 
ENDBRANCH   1   4
BRANCH   1  14
ATOM     14  N   UNL d   1     -47.646  12.622  22.535  0.00  0.00    -0.158 NA
BRANCH  14  15
ATOM     15  C   UNL d   1     -47.244  13.339  22.641  0.00  0.00     0.100 A 
ATOM     16  C   UNL d   1     -46.431  13.338  22.811  0.00  0.00     0.083 A 
ATOM     17  C   UNL d   1     -46.030  14.049  22.916  0.00  0.00     0.008 A 
ATOM     18  C   UNL d   1     -46.434  14.765  22.853  0.00  0.00     0.000 A 
ATOM     19  C   UNL d   1     -47.239  14.770  22.685  0.00  0.00     0.002 A 
ATOM     20  C   UNL d   1     -47.648  14.055  22.578  0.00  0.00     0.020 A 
BRANCH  16  21
ATOM     21  C   UNL d   1     -46.023  12.624  22.874  0.00  0.00     0.212 C 
ATOM     22  O   UNL d   1     -45.674  12.283  22.210  0.00  0.00    -0.644 OA
ATOM     23  O   UNL d   1     -45.962  12.246  23.605  0.00  0.00    -0.644 OA
ENDBRANCH  16  21
ENDBRANCH  14  15
ENDBRANCH   1  14
TORSDOF 4
ENDMDL
MODEL 3
REMARK VINA RESULT:      -6.4      7.960      9.958
REMARK  4 active torsions:
REMARK  status: ('A' for Active; 'I' for Inactive)
REMARK    1  A    between atoms: C_2  and  S_1 
REMARK    2  A    between atoms: N_3  and  S_1 
REMARK    3  A    between atoms: C_7  and  N_3 
REMARK    4  A    between atoms: C_8  and  C_4 
ROOT
ATOM      1  S   UNL d   1     -40.060  14.454  18.595  0.00  0.00     0.285 S 
ATOM      2  O   UNL d   1     -39.662  15.136  18.841  0.00  0.00    -0.198 OA
ATOM      3  O   UNL d   1     -40.462  13.765  18.351  0.00  0.00    -0.198 OA
ENDROOT
BRANCH   1   4
ATOM      4  C   UNL d   1     -39.690  14.502  17.849  0.00  0.00     0.105 A 
ATOM      5  C   UNL d   1     -39.802  15.172  17.381  0.00  0.00     0.012 A 
ATOM      6  C   UNL d   1     -39.441  15.225  16.644  0.00  0.00     0.001 A 
ATOM      7  C   UNL d   1     -40.284  15.802  17.649  0.00  0.00     0.001 C 
ATOM      8  C   UNL d   1     -39.553  15.895  16.175  0.00  0.00     0.000 C 
ATOM      9  C   UNL d   1     -38.958  14.597  16.371  0.00  0.00     0.000 A 
ATOM     10  C   UNL d   1     -38.849  13.927  16.847  0.00  0.00     0.001 A 
ATOM     11  C   UNL d   1     -39.215  13.879  17.585  0.00  0.00     0.012 A 
ATOM     12  C   UNL d   1     -38.368  13.297  16.579  0.00  0.00     0.000 C 
ATOM     13  C   UNL d   1     -39.110  13.214  18.062  0.00  0.00     0.001 C 
ENDBRANCH   1   4
BRANCH   1  14
ATOM     14  N   UNL d   1     -40.429  14.404  19.338  0.00  0.00    -0.158 NA
BRANCH  14  15
ATOM     15  C   UNL d   1     -39.975  14.435  20.030  0.00  0.00     0.100 A 
ATOM     16  C   UNL d   1     -40.347  14.485  20.770  0.00  0.00     0.083 A 
ATOM     17  C   UNL d   1     -39.898  14.516  21.458  0.00  0.00     0.008 A 
ATOM     18  C   UNL d   1     -39.074  14.499  21.415  0.00  0.00     0.000 A 
ATOM     19  C   UNL d   1     -38.701  14.449  20.683  0.00  0.00     0.002 A 
ATOM     20  C   UNL d   1     -39.151  14.417  19.986  0.00  0.00     0.020 A 
BRANCH  16  21
ATOM     21  C   UNL d   1     -41.171  14.503  20.817  0.00  0.00     0.212 C 
ATOM     22  O   UNL d   1     -41.571  15.223  20.842  0.00  0.00    -0.644 OA
ATOM     23  O   UNL d   1     -41.599  13.798  20.841  0.00  0.00    -0.644 OA
ENDBRANCH  16  21
ENDBRANCH  14  15
ENDBRANCH   1  14
TORSDOF 4
ENDMDL
MODEL 4
REMARK VINA RESULT:      -6.0      8.281     10.351
REMARK  4 active torsions:
REMARK  status: ('A' for Active; 'I' for Inactive)
REMARK    1  A    between atoms: C_2  and  S_1 
REMARK    2  A    between atoms: N_3  and  S_1 
REMARK    3  A    between atoms: C_7  and  N_3 
REMARK    4  A    between atoms: C_8  and  C_4 
ROOT
ATOM      1  S   UNL d   1     -39.561  15.234  18.997  0.00  0.00     0.285 S 
ATOM      2  O   UNL d   1     -38.833  14.873  19.150  0.00  0.00    -0.198 OA
ATOM      3  O   UNL d   1     -40.294  15.599  18.838  0.00  0.00    -0.198 OA
ENDROOT
BRANCH   1   4
ATOM      4  C   UNL d   1     -39.767  15.172  19.802  0.00  0.00     0.105 A 
ATOM      5  C   UNL d   1     -40.451  14.765  20.018  0.00  0.00     0.012 A 
ATOM      6  C   UNL d   1     -40.660  14.699  20.811  0.00  0.00     0.001 A 
ATOM      7  C   UNL d   1     -40.939  14.415  19.434  0.00  0.00     0.001 C 
ATOM      8  C   UNL d   1     -41.345  14.292  21.027  0.00  0.00     0.000 C 
ATOM      9  C   UNL d   1     -40.175  15.048  21.399  0.00  0.00     0.000 A 
ATOM     10  C   UNL d   1     -39.489  15.455  21.175  0.00  0.00     0.001 A 
ATOM     11  C   UNL d   1     -39.285  15.517  20.378  0.00  0.00     0.012 A 
ATOM     12  C   UNL d   1     -39.001  15.805  21.758  0.00  0.00     0.000 C 
ATOM     13  C   UNL d   1     -38.602  15.922  20.151  0.00  0.00     0.001 C 
ENDBRANCH   1   4
BRANCH   1  14
ATOM     14  N   UNL d   1     -39.358  15.298  18.193  0.00  0.00    -0.158 NA
BRANCH  14  15
ATOM     15  C   UNL d   1     -39.108  14.627  17.775  0.00  0.00     0.100 A 
ATOM     16  C   UNL d   1     -38.927  14.685  16.967  0.00  0.00     0.083 A 
ATOM     17  C   UNL d   1     -38.679  14.021  16.550  0.00  0.00     0.008 A 
ATOM     18  C   UNL d   1     -38.608  13.294  16.934  0.00  0.00     0.000 A 
ATOM     19  C   UNL d   1     -38.786  13.233  17.735  0.00  0.00     0.002 A 
ATOM     20  C   UNL d   1     -39.037  13.901  18.160  0.00  0.00     0.020 A 
BRANCH  16  21
ATOM     21  C   UNL d   1     -38.997  15.410  16.579  0.00  0.00     0.212 C 
ATOM     22  O   UNL d   1     -38.353  15.922  16.534  0.00  0.00    -0.644 OA
ATOM     23  O   UNL d   1     -39.714  15.627  16.233  0.00  0.00    -0.644 OA
ENDBRANCH  16  21
ENDBRANCH  14  15
ENDBRANCH   1  14
TORSDOF 4
ENDMDL
