MODEL 1
REMARK VINA RESULT:      27.3      0.000      0.000
REMARK  7 active torsions:
REMARK  status: ('A' for Active; 'I' for Inactive)
REMARK    1  A    between atoms: C_17  and  N_1 
REMARK       I    between atoms: C_4  and  N_7 
REMARK    2  A    between atoms: C_8  and  C_4 
REMARK    3  A    between atoms: N_7  and  C_26 
REMARK    4  A    between atoms: C_9  and  N_7 
REMARK    5  A    between atoms: C_27  and  C_17 
REMARK    6  A    between atoms: C_26  and  C_28 
REMARK    7  A    between atoms: C_28  and  C_27 
ROOT
ATOM      1  C   UNL d   1      46.367 -17.976  41.979  0.00  0.00     0.287 C 
ATOM      2  N   UNL d   1      46.435 -17.845  42.793  0.00  0.00    -0.272 N 
ATOM      3  O   UNL d   1      46.462 -17.361  41.460  0.00  0.00    -0.264 OA
ENDROOT
BRANCH   2   4
ATOM      4  C   UNL d   1      46.598 -17.102  43.067  0.00  0.00     0.083 C 
BRANCH   4   5
ATOM      5  C   UNL d   1      45.978 -16.601  43.300  0.00  0.00     0.021 C 
BRANCH   5   6
ATOM      6  C   UNL d   1      46.116 -15.806  43.407  0.00  0.00     0.021 C 
BRANCH   6   7
ATOM      7  C   UNL d   1      45.877 -15.445  44.109  0.00  0.00     0.086 C 
BRANCH   7   8
ATOM      8  N   UNL d   1      45.516 -14.688  44.080  0.00  0.00    -0.240 N 
ATOM      9  C   UNL d   1      44.849 -14.483  44.452  0.00  0.00     0.267 A 
ATOM     10  C   UNL d   1      44.687 -13.698  44.280  0.00  0.00     0.061 A 
ATOM     11  O   UNL d   1      44.364 -14.988  44.953  0.00  0.00    -0.267 OA
ATOM     12  C   UNL d   1      44.083 -13.202  44.506  0.00  0.00     0.005 A 
ATOM     13  C   UNL d   1      45.299 -13.426  43.777  0.00  0.00     0.061 A 
ATOM     14  C   UNL d   1      44.077 -12.419  44.231  0.00  0.00     0.000 A 
ATOM     15  C   UNL d   1      44.689 -12.146  43.728  0.00  0.00     0.000 A 
ATOM     16  C   UNL d   1      45.294 -12.664  43.509  0.00  0.00     0.005 A 
ATOM     17  C   UNL d   1      45.811 -14.055  43.659  0.00  0.00     0.267 A 
ATOM     18  O   UNL d   1      46.519 -14.029  43.179  0.00  0.00    -0.267 OA
ENDBRANCH   7   8
ENDBRANCH   6   7
ENDBRANCH   5   6
ENDBRANCH   4   5
ENDBRANCH   2   4
BRANCH   2  19
ATOM     19  C   UNL d   1      46.339 -18.467  43.330  0.00  0.00     0.067 A 
ATOM     20  C   UNL d   1      45.935 -18.351  44.043  0.00  0.00     0.018 A 
ATOM     21  C   UNL d   1      45.839 -18.973  44.580  0.00  0.00     0.013 A 
ATOM     22  C   UNL d   1      46.147 -19.711  44.404  0.00  0.00     0.058 A 
ATOM     23  C   UNL d   1      46.549 -19.823  43.692  0.00  0.00     0.013 A 
ATOM     24 CL   UNL d   1      46.050 -20.329  44.942  0.00  0.00    -0.082 Cl
ATOM     25  C   UNL d   1      46.647 -19.205  43.154  0.00  0.00     0.018 A 
ENDBRANCH   2  19
BRANCH   1  26
ATOM     26  C   UNL d   1      46.202 -18.729  41.702  0.00  0.00     0.156 A 
ATOM     27  O   UNL d   1      45.884 -19.407  42.051  0.00  0.00    -0.300 OA
ATOM     28  C   UNL d   1      45.849 -20.007  41.491  0.00  0.00     0.123 A 
ATOM     29  C   UNL d   1      46.135 -19.714  40.815  0.00  0.00     0.029 A 
ATOM     30  C   UNL d   1      46.364 -18.915  40.914  0.00  0.00     0.032 A 
ENDBRANCH   1  26
TORSDOF 7
ENDMDL
