MODEL 1
REMARK VINA RESULT:      63.8      0.000      0.000
REMARK  4 active torsions:
REMARK  status: ('A' for Active; 'I' for Inactive)
REMARK    1  A    between atoms: N_6  and  C_1 
REMARK       I    between atoms: C_9  and  N_6 
REMARK    2  A    between atoms: C_15  and  C_9 
REMARK    3  A    between atoms: C_13  and  C_16 
REMARK    4  A    between atoms: C_19  and  C_13 
ROOT
ATOM      1  C   UNL d   1      46.143 -18.057  41.593  0.00  0.00     0.123 A 
ATOM      2  C   UNL d   1      46.267 -17.623  42.284  0.00  0.00     0.092 A 
ATOM      3  C   UNL d   1      46.359 -18.157  42.900  0.00  0.00     0.013 A 
ATOM      4  C   UNL d   1      46.293 -18.913  42.602  0.00  0.00     0.029 A 
ATOM      5  S   UNL d   1      46.158 -18.860  41.787  0.00  0.00    -0.070 SA
ATOM      6  C   UNL d   1      46.363 -19.571  43.103  0.00  0.00     0.104 A 
ATOM      7  N   UNL d   1      46.499 -19.458  43.907  0.00  0.00    -0.294 NA
ATOM      8  C   UNL d   1      46.293 -16.806  42.330  0.00  0.00     0.103 C 
ATOM      9  C   UNL d   1      46.566 -18.690  44.209  0.00  0.00     0.099 A 
ATOM     10  C   UNL d   1      46.496 -18.037  43.707  0.00  0.00    -0.004 A 
ATOM     11  N   UNL d   1      46.319 -15.995  42.382  0.00  0.00    -0.191 NA
ATOM     12  C   UNL d   1      46.231 -19.892  42.355  0.00  0.00     0.029 C 
ATOM     13  C   UNL d   1      46.401 -20.330  43.431  0.00  0.00     0.029 C 
ATOM     14  C   UNL d   1      46.637 -19.337  44.715  0.00  0.00     0.029 C 
ATOM     15  C   UNL d   1      46.633 -17.923  44.511  0.00  0.00     0.029 C 
ENDROOT
BRANCH   1  16
ATOM     16  N   UNL d   1      46.023 -17.748  40.834  0.00  0.00    -0.201 NA
ATOM     17  C   UNL d   1      45.267 -17.744  40.505  0.00  0.00     0.280 C 
ATOM     18  O   UNL d   1      44.628 -18.046  40.925  0.00  0.00    -0.265 OA
BRANCH  17  19
ATOM     19  C   UNL d   1      45.148 -17.440  39.758  0.00  0.00     0.058 A 
ATOM     20  C   UNL d   1      44.412 -17.132  39.548  0.00  0.00     0.005 A 
ATOM     21  C   UNL d   1      44.292 -16.823  38.789  0.00  0.00     0.003 A 
ATOM     22  C   UNL d   1      44.909 -16.823  38.241  0.00  0.00     0.039 A 
ATOM     23  C   UNL d   1      45.633 -17.127  38.453  0.00  0.00     0.003 A 
ATOM     24  C   UNL d   1      45.754 -17.436  39.212  0.00  0.00     0.005 A 
BRANCH  22  25
ATOM     25  C   UNL d   1      44.785 -16.514  37.487  0.00  0.00     0.196 C 
ATOM     26  O   UNL d   1      44.363 -16.943  36.933  0.00  0.00    -0.287 OA
BRANCH  25  27
ATOM     27  C   UNL d   1      45.087 -15.775  37.294  0.00  0.00     0.039 A 
ATOM     28  C   UNL d   1      45.829 -15.701  36.958  0.00  0.00     0.003 A 
ATOM     29  C   UNL d   1      46.131 -14.962  36.764  0.00  0.00     0.000 A 
ATOM     30  C   UNL d   1      45.679 -14.285  36.912  0.00  0.00     0.000 A 
ATOM     31  C   UNL d   1      44.929 -14.355  37.251  0.00  0.00     0.000 A 
ATOM     32  C   UNL d   1      44.635 -15.098  37.441  0.00  0.00     0.003 A 
ENDBRANCH  25  27
ENDBRANCH  22  25
ENDBRANCH  17  19
ENDBRANCH   1  16
TORSDOF 4
ENDMDL
