MODEL 1
REMARK VINA RESULT:      40.0      0.000      0.000
REMARK  5 active torsions:
REMARK  status: ('A' for Active; 'I' for Inactive)
REMARK    1  A    between atoms: C_11  and  C_3 
REMARK    2  A    between atoms: C_14  and  C_7 
REMARK    3  A    between atoms: O_18  and  C_11 
REMARK    4  A    between atoms: C_16  and  C_20 
REMARK    5  A    between atoms: C_20  and  O_18 
ROOT
ATOM      1  C   UNL d   1     -58.204 -98.763 -45.473  0.00  0.00     0.172 A 
ATOM      2  C   UNL d   1     -58.628 -98.761 -44.770  0.00  0.00     0.094 A 
ATOM      3  C   UNL d   1     -57.419 -98.766 -44.022  0.00  0.00     0.081 A 
ATOM      4  C   UNL d   1     -59.457 -98.758 -44.795  0.00  0.00     0.286 A 
ATOM      5  N   UNL d   1     -58.591 -98.761 -46.195  0.00  0.00    -0.172 NA
ATOM      6  N   UNL d   1     -59.842 -98.757 -45.521  0.00  0.00    -0.152 NA
ATOM      7  C   UNL d   1     -58.238 -98.763 -44.046  0.00  0.00     0.014 A 
ATOM      8  C   UNL d   1     -56.983 -98.768 -44.727  0.00  0.00     0.088 A 
ATOM      9  N   UNL d   1     -57.381 -98.766 -45.456  0.00  0.00    -0.226 NA
ATOM     10  C   UNL d   1     -59.410 -98.758 -46.219  0.00  0.00     0.373 A 
ATOM     11  O   UNL d   1     -59.894 -98.757 -44.090  0.00  0.00    -0.265 OA
ATOM     12  O   UNL d   1     -59.796 -98.757 -46.950  0.00  0.00    -0.242 OA
ATOM     13  C   UNL d   1     -56.162 -98.771 -44.707  0.00  0.00     0.021 C 
ENDROOT
BRANCH   3  14
ATOM     14  C   UNL d   1     -57.022 -98.768 -43.302  0.00  0.00     0.302 C 
ATOM     15  O   UNL d   1     -57.454 -98.760 -42.595  0.00  0.00    -0.259 OA
BRANCH  14  16
ATOM     16  O   UNL d   1     -56.197 -98.776 -43.280  0.00  0.00    -0.271 OA
BRANCH  16  17
ATOM     17  C   UNL d   1     -55.789 -99.494 -43.323  0.00  0.00     0.126 C 
BRANCH  17  18
ATOM     18  C   UNL d   1     -55.000 -99.506 -43.569  0.00  0.00     0.027 C 
ATOM     19  C   UNL d   1     -54.802 -99.782 -44.317  0.00  0.00     0.002 C 
ENDBRANCH  17  18
ENDBRANCH  16  17
ENDBRANCH  14  16
ENDBRANCH   3  14
BRANCH   7  20
ATOM     20  C   UNL d   1     -58.672 -98.761 -43.344  0.00  0.00     0.001 A 
ATOM     21  C   UNL d   1     -58.278 -98.761 -42.618  0.00  0.00     0.000 A 
ATOM     22  C   UNL d   1     -58.712 -98.760 -41.910  0.00  0.00     0.000 A 
ATOM     23  C   UNL d   1     -59.534 -98.758 -41.937  0.00  0.00     0.000 A 
ATOM     24  C   UNL d   1     -59.928 -98.759 -42.663  0.00  0.00     0.000 A 
ATOM     25  C   UNL d   1     -59.491 -98.760 -43.368  0.00  0.00     0.000 A 
ENDBRANCH   7  20
TORSDOF 5
ENDMDL
