MODEL 1
REMARK VINA RESULT:      -9.2      0.000      0.000
REMARK  5 active torsions:
REMARK  status: ('A' for Active; 'I' for Inactive)
REMARK    1  A    between atoms: N_10  and  C_3 
REMARK    2  A    between atoms: C_11  and  C_5 
REMARK    3  A    between atoms: C_15  and  C_9 
REMARK    4  A    between atoms: C_16  and  N_10 
REMARK       I    between atoms: C_12  and  N_13 
REMARK    5  A    between atoms: N_13  and  C_17 
ROOT
ATOM      1  C   UNL d   1      52.548  33.926  53.735  0.00  0.00     0.168 A 
ATOM      2  N   UNL d   1      51.878  34.276  53.424  0.00  0.00    -0.184 N 
ATOM      3  C   UNL d   1      51.368  33.831  52.992  0.00  0.00     0.218 A 
ATOM      4  N   UNL d   1      52.258  35.501  53.989  0.00  0.00    -0.162 NA
ATOM      5  C   UNL d   1      53.059  34.359  54.164  0.00  0.00     0.055 A 
ATOM      6  N   UNL d   1      52.682  33.142  53.602  0.00  0.00    -0.227 NA
ATOM      7  C   UNL d   1      51.515  33.023  52.860  0.00  0.00     0.071 A 
ATOM      8  C   UNL d   1      52.927  35.150  54.300  0.00  0.00     0.104 A 
ATOM      9  C   UNL d   1      52.170  32.706  53.171  0.00  0.00     0.087 A 
ATOM     10  C   UNL d   1      53.437  35.579  54.727  0.00  0.00     0.023 C 
ENDROOT
BRANCH   3  11
ATOM     11  N   UNL d   1      50.680  34.188  52.671  0.00  0.00    -0.383 NA
BRANCH  11  12
ATOM     12  C   UNL d   1      49.948  34.454  52.390  0.00  0.00     0.134 A 
ATOM     13  C   UNL d   1      49.385  34.764  52.904  0.00  0.00     0.034 A 
ATOM     14  C   UNL d   1      48.639  35.034  52.607  0.00  0.00     0.022 A 
ATOM     15  C   UNL d   1      48.473  34.988  51.794  0.00  0.00     0.085 A 
ATOM     16  C   UNL d   1      49.041  34.675  51.267  0.00  0.00     0.022 A 
ATOM     17  C   UNL d   1      49.787  34.403  51.556  0.00  0.00     0.034 A 
BRANCH  15  18
ATOM     18  N   UNL d   1      47.739  35.253  51.497  0.00  0.00    -0.208 NA
ATOM     19  C   UNL d   1      47.416  35.965  51.762  0.00  0.00     0.279 C 
ATOM     20  O   UNL d   1      46.686  36.229  51.467  0.00  0.00    -0.265 OA
ATOM     21  C   UNL d   1      47.822  36.424  52.329  0.00  0.00     0.068 C 
ENDBRANCH  15  18
ENDBRANCH  11  12
ENDBRANCH   3  11
BRANCH   9  22
ATOM     22  C   UNL d   1      52.316  31.881  53.035  0.00  0.00     0.018 C 
ATOM     23  C   UNL d   1      51.869  31.301  53.468  0.00  0.00     0.002 C 
ATOM     24  C   UNL d   1      52.900  31.640  52.474  0.00  0.00     0.002 C 
ENDBRANCH   9  22
BRANCH   5  25
ATOM     25  C   UNL d   1      53.735  34.004  54.478  0.00  0.00     0.004 A 
ATOM     26  C   UNL d   1      53.706  33.660  55.205  0.00  0.00     0.000 A 
ATOM     27  C   UNL d   1      54.372  33.311  55.514  0.00  0.00     0.000 A 
ATOM     28  C   UNL d   1      55.053  33.313  55.090  0.00  0.00     0.000 A 
ATOM     29  C   UNL d   1      55.078  33.662  54.357  0.00  0.00     0.000 A 
ATOM     30  C   UNL d   1      54.418  34.003  54.059  0.00  0.00     0.000 A 
ENDBRANCH   5  25
TORSDOF 5
ENDMDL
MODEL 2
REMARK VINA RESULT:      -8.9      0.835      2.051
REMARK  5 active torsions:
REMARK  status: ('A' for Active; 'I' for Inactive)
REMARK    1  A    between atoms: N_10  and  C_3 
REMARK    2  A    between atoms: C_11  and  C_5 
REMARK    3  A    between atoms: C_15  and  C_9 
REMARK    4  A    between atoms: C_16  and  N_10 
REMARK       I    between atoms: C_12  and  N_13 
REMARK    5  A    between atoms: N_13  and  C_17 
ROOT
ATOM      1  C   UNL d   1      52.446  33.461  53.351  0.00  0.00     0.168 A 
ATOM      2  N   UNL d   1      51.727  33.543  52.971  0.00  0.00    -0.184 N 
ATOM      3  C   UNL d   1      51.368  34.262  52.966  0.00  0.00     0.218 A 
ATOM      4  N   UNL d   1      51.758  32.188  52.619  0.00  0.00    -0.162 NA
ATOM      5  C   UNL d   1      52.810  32.753  53.361  0.00  0.00     0.055 A 
ATOM      6  N   UNL d   1      52.779  34.100  53.711  0.00  0.00    -0.227 NA
ATOM      7  C   UNL d   1      51.719  34.916  53.341  0.00  0.00     0.071 A 
ATOM      8  C   UNL d   1      52.477  32.105  52.998  0.00  0.00     0.104 A 
ATOM      9  C   UNL d   1      52.416  34.811  53.702  0.00  0.00     0.087 A 
ATOM     10  C   UNL d   1      52.840  31.402  53.010  0.00  0.00     0.023 C 
ENDROOT
BRANCH   3  11
ATOM     11  N   UNL d   1      50.630  34.351  52.578  0.00  0.00    -0.383 NA
BRANCH  11  12
ATOM     12  C   UNL d   1      49.882  34.517  52.262  0.00  0.00     0.134 A 
ATOM     13  C   UNL d   1      49.265  34.764  52.747  0.00  0.00     0.034 A 
ATOM     14  C   UNL d   1      48.504  34.933  52.415  0.00  0.00     0.022 A 
ATOM     15  C   UNL d   1      48.378  34.849  51.598  0.00  0.00     0.085 A 
ATOM     16  C   UNL d   1      49.002  34.598  51.101  0.00  0.00     0.022 A 
ATOM     17  C   UNL d   1      49.763  34.429  51.424  0.00  0.00     0.034 A 
BRANCH  15  18
ATOM     18  N   UNL d   1      47.630  35.014  51.267  0.00  0.00    -0.208 NA
ATOM     19  C   UNL d   1      47.232  35.710  51.463  0.00  0.00     0.279 C 
ATOM     20  O   UNL d   1      46.487  35.874  51.133  0.00  0.00    -0.265 OA
ATOM     21  C   UNL d   1      47.577  36.255  51.993  0.00  0.00     0.068 C 
ENDBRANCH  15  18
ENDBRANCH  11  12
ENDBRANCH   3  11
BRANCH   9  22
ATOM     22  C   UNL d   1      52.771  35.481  54.083  0.00  0.00     0.018 C 
ATOM     23  C   UNL d   1      52.537  35.681  54.876  0.00  0.00     0.002 C 
ATOM     24  C   UNL d   1      53.351  35.943  53.678  0.00  0.00     0.002 C 
ENDBRANCH   9  22
BRANCH   5  25
ATOM     25  C   UNL d   1      53.536  32.670  53.745  0.00  0.00     0.004 A 
ATOM     26  C   UNL d   1      53.556  32.488  54.528  0.00  0.00     0.000 A 
ATOM     27  C   UNL d   1      54.272  32.406  54.906  0.00  0.00     0.000 A 
ATOM     28  C   UNL d   1      54.952  32.507  54.492  0.00  0.00     0.000 A 
ATOM     29  C   UNL d   1      54.927  32.691  53.702  0.00  0.00     0.000 A 
ATOM     30  C   UNL d   1      54.218  32.770  53.336  0.00  0.00     0.000 A 
ENDBRANCH   5  25
TORSDOF 5
ENDMDL
