MODEL 1
REMARK VINA RESULT:      28.1      0.000      0.000
REMARK  3 active torsions:
REMARK  status: ('A' for Active; 'I' for Inactive)
REMARK       I    between atoms: C_3  and  N_1 
REMARK    1  A    between atoms: C_6  and  C_3 
REMARK    2  A    between atoms: O_9  and  C_6 
REMARK    3  A    between atoms: C_10  and  O_9 
ROOT
ATOM      1  N   UNL d   1      42.777 -16.246  36.472  0.00  0.00    -0.272 N 
ATOM      2  C   UNL d   1      42.394 -15.525  36.608  0.00  0.00     0.067 A 
ATOM      3  C   UNL d   1      43.599 -16.377  36.478  0.00  0.00     0.290 C 
ATOM      4  C   UNL d   1      42.222 -16.806  36.332  0.00  0.00     0.083 A 
ATOM      5  C   UNL d   1      41.591 -15.651  36.550  0.00  0.00     0.018 A 
ATOM      6  O   UNL d   1      43.887 -17.133  36.330  0.00  0.00    -0.264 OA
ATOM      7  C   UNL d   1      41.470 -16.446  36.377  0.00  0.00     0.021 A 
ATOM      8  C   UNL d   1      42.670 -14.773  36.778  0.00  0.00     0.018 A 
ATOM      9  C   UNL d   1      41.058 -15.028  36.659  0.00  0.00     0.002 A 
ATOM     10  C   UNL d   1      42.155 -14.153  36.888  0.00  0.00     0.002 A 
ATOM     11  C   UNL d   1      41.333 -14.286  36.827  0.00  0.00     0.000 A 
ENDROOT
BRANCH   3  12
ATOM     12  C   UNL d   1      44.108 -15.747  36.631  0.00  0.00     0.184 C 
BRANCH  12  13
ATOM     13  O   UNL d   1      44.903 -15.905  36.818  0.00  0.00    -0.300 OA
BRANCH  13  14
ATOM     14  C   UNL d   1      45.439 -15.287  36.878  0.00  0.00     0.100 A 
ATOM     15  C   UNL d   1      45.318 -14.686  37.440  0.00  0.00     0.025 A 
ATOM     16  C   UNL d   1      45.852 -14.067  37.504  0.00  0.00     0.002 A 
ATOM     17  C   UNL d   1      46.512 -14.041  37.008  0.00  0.00     0.000 A 
ATOM     18  C   UNL d   1      46.646 -14.632  36.442  0.00  0.00     0.002 A 
ATOM     19  C   UNL d   1      46.097 -15.260  36.385  0.00  0.00     0.025 A 
ENDBRANCH  13  14
ENDBRANCH  12  13
ENDBRANCH   3  12
TORSDOF 3
ENDMDL
MODEL 2
REMARK VINA RESULT:      30.6      7.485      8.451
REMARK  3 active torsions:
REMARK  status: ('A' for Active; 'I' for Inactive)
REMARK       I    between atoms: C_3  and  N_1 
REMARK    1  A    between atoms: C_6  and  C_3 
REMARK    2  A    between atoms: O_9  and  C_6 
REMARK    3  A    between atoms: C_10  and  O_9 
ROOT
ATOM      1  N   UNL d   1      46.369 -18.312  43.030  0.00  0.00    -0.272 N 
ATOM      2  C   UNL d   1      46.370 -18.855  43.654  0.00  0.00     0.067 A 
ATOM      3  C   UNL d   1      46.221 -17.495  43.085  0.00  0.00     0.290 C 
ATOM      4  C   UNL d   1      46.534 -18.705  42.352  0.00  0.00     0.083 A 
ATOM      5  C   UNL d   1      46.540 -19.591  43.350  0.00  0.00     0.018 A 
ATOM      6  O   UNL d   1      46.242 -17.035  42.404  0.00  0.00    -0.264 OA
ATOM      7  C   UNL d   1      46.645 -19.513  42.538  0.00  0.00     0.021 A 
ATOM      8  C   UNL d   1      46.239 -18.775  44.459  0.00  0.00     0.018 A 
ATOM      9  C   UNL d   1      46.581 -20.253  43.845  0.00  0.00     0.002 A 
ATOM     10  C   UNL d   1      46.277 -19.419  44.955  0.00  0.00     0.002 A 
ATOM     11  C   UNL d   1      46.451 -20.172  44.639  0.00  0.00     0.000 A 
ENDROOT
BRANCH   3  12
ATOM     12  C   UNL d   1      46.057 -17.163  43.822  0.00  0.00     0.184 C 
BRANCH  12  13
ATOM     13  O   UNL d   1      46.372 -16.416  44.008  0.00  0.00    -0.300 OA
BRANCH  13  14
ATOM     14  C   UNL d   1      45.885 -15.832  44.315  0.00  0.00     0.100 A 
ATOM     15  C   UNL d   1      46.128 -15.037  44.298  0.00  0.00     0.025 A 
ATOM     16  C   UNL d   1      45.644 -14.450  44.604  0.00  0.00     0.002 A 
ATOM     17  C   UNL d   1      44.913 -14.650  44.930  0.00  0.00     0.000 A 
ATOM     18  C   UNL d   1      44.655 -15.438  44.955  0.00  0.00     0.002 A 
ATOM     19  C   UNL d   1      45.155 -16.030  44.641  0.00  0.00     0.025 A 
ENDBRANCH  13  14
ENDBRANCH  12  13
ENDBRANCH   3  12
TORSDOF 3
ENDMDL
