MODEL 1
REMARK VINA RESULT:      -4.0      0.000      0.000
REMARK  10 active torsions:
REMARK  status: ('A' for Active; 'I' for Inactive)
REMARK       I    between atoms: N_8  and  C_1 
REMARK    1  A    between atoms: C_11  and  C_1 
REMARK    2  A    between atoms: C_2  and  C_12 
REMARK       I    between atoms: N_7  and  C_2 
REMARK    3  A    between atoms: C_3  and  C_19 
REMARK    4  A    between atoms: C_4  and  C_20 
REMARK    5  A    between atoms: C_19  and  N_7 
REMARK    6  A    between atoms: C_20  and  N_8 
REMARK    7  A    between atoms: C_23  and  C_11 
REMARK    8  A    between atoms: C_12  and  C_22 
REMARK    9  A    between atoms: S_21  and  C_23 
REMARK   10  A    between atoms: C_22  and  S_21 
ROOT
ATOM      1  S   UNL d   1     -41.858-121.825 -51.187  0.00  0.00    -0.086 SA
ENDROOT
BRANCH   1   2
ATOM      2  C   UNL d   1     -41.193-122.063 -51.641  0.00  0.00     0.040 C 
BRANCH   2   3
ATOM      3  C   UNL d   1     -41.226-122.024 -52.476  0.00  0.00     0.070 C 
BRANCH   3   4
ATOM      4  C   UNL d   1     -41.259-122.747 -52.915  0.00  0.00     0.280 C 
ATOM      5  N   UNL d   1     -41.435-122.717 -53.759  0.00  0.00    -0.204 NA
ATOM      6  O   UNL d   1     -41.123-123.484 -52.538  0.00  0.00    -0.265 OA
BRANCH   5   7
ATOM      7  C   UNL d   1     -41.568-122.003 -54.134  0.00  0.00     0.127 C 
BRANCH   7   8
ATOM      8  C   UNL d   1     -41.940-121.972 -54.869  0.00  0.00     0.119 A 
ATOM      9  O   UNL d   1     -41.499-121.667 -55.533  0.00  0.00    -0.304 OA
ATOM     10  C   UNL d   1     -42.020-121.708 -56.184  0.00  0.00     0.123 A 
ATOM     11  C   UNL d   1     -42.736-122.012 -55.965  0.00  0.00     0.029 A 
ATOM     12  C   UNL d   1     -42.681-122.176 -55.138  0.00  0.00     0.028 A 
ENDBRANCH   7   8
ENDBRANCH   5   7
ENDBRANCH   3   4
ENDBRANCH   2   3
ENDBRANCH   1   2
BRANCH   1  13
ATOM     13  C   UNL d   1     -42.095-122.318 -50.546  0.00  0.00     0.040 C 
BRANCH  13  14
ATOM     14  C   UNL d   1     -42.912-122.331 -50.304  0.00  0.00     0.070 C 
BRANCH  14  15
ATOM     15  C   UNL d   1     -43.098-122.609 -49.553  0.00  0.00     0.280 C 
ATOM     16  N   UNL d   1     -42.461-122.705 -48.974  0.00  0.00    -0.204 NA
ATOM     17  O   UNL d   1     -43.880-122.802 -49.328  0.00  0.00    -0.265 OA
BRANCH  16  18
ATOM     18  C   UNL d   1     -42.658-122.979 -48.241  0.00  0.00     0.127 C 
BRANCH  18  19
ATOM     19  C   UNL d   1     -42.074-123.100 -47.649  0.00  0.00     0.119 A 
ATOM     20  O   UNL d   1     -41.668-122.512 -47.235  0.00  0.00    -0.304 OA
ATOM     21  C   UNL d   1     -41.132-122.914 -46.692  0.00  0.00     0.123 A 
ATOM     22  C   UNL d   1     -41.248-123.696 -46.811  0.00  0.00     0.029 A 
ATOM     23  C   UNL d   1     -41.799-123.816 -47.371  0.00  0.00     0.028 A 
ENDBRANCH  18  19
ENDBRANCH  16  18
ENDBRANCH  14  15
ENDBRANCH  13  14
ENDBRANCH   1  13
TORSDOF 10
ENDMDL
MODEL 2
REMARK VINA RESULT:      -3.2      0.585      6.455
REMARK  10 active torsions:
REMARK  status: ('A' for Active; 'I' for Inactive)
REMARK       I    between atoms: N_8  and  C_1 
REMARK    1  A    between atoms: C_11  and  C_1 
REMARK    2  A    between atoms: C_2  and  C_12 
REMARK       I    between atoms: N_7  and  C_2 
REMARK    3  A    between atoms: C_3  and  C_19 
REMARK    4  A    between atoms: C_4  and  C_20 
REMARK    5  A    between atoms: C_19  and  N_7 
REMARK    6  A    between atoms: C_20  and  N_8 
REMARK    7  A    between atoms: C_23  and  C_11 
REMARK    8  A    between atoms: C_12  and  C_22 
REMARK    9  A    between atoms: S_21  and  C_23 
REMARK   10  A    between atoms: C_22  and  S_21 
ROOT
ATOM      1  S   UNL d   1     -41.950-122.166 -51.288  0.00  0.00    -0.086 SA
ENDROOT
BRANCH   1   2
ATOM      2  C   UNL d   1     -42.032-122.446 -50.501  0.00  0.00     0.040 C 
BRANCH   2   3
ATOM      3  C   UNL d   1     -42.741-122.300 -50.081  0.00  0.00     0.070 C 
BRANCH   3   4
ATOM      4  C   UNL d   1     -43.189-122.959 -49.799  0.00  0.00     0.280 C 
ATOM      5  N   UNL d   1     -43.099-123.208 -48.978  0.00  0.00    -0.204 NA
ATOM      6  O   UNL d   1     -43.717-123.368 -50.308  0.00  0.00    -0.265 OA
BRANCH   5   7
ATOM      7  C   UNL d   1     -42.587-122.816 -48.475  0.00  0.00     0.127 C 
BRANCH   7   8
ATOM      8  C   UNL d   1     -42.242-123.201 -47.834  0.00  0.00     0.119 A 
ATOM      9  O   UNL d   1     -41.427-123.448 -47.901  0.00  0.00    -0.304 OA
ATOM     10  C   UNL d   1     -41.246-123.814 -47.172  0.00  0.00     0.123 A 
ATOM     11  C   UNL d   1     -41.883-123.807 -46.676  0.00  0.00     0.029 A 
ATOM     12  C   UNL d   1     -42.507-123.421 -47.096  0.00  0.00     0.028 A 
ENDBRANCH   7   8
ENDBRANCH   5   7
ENDBRANCH   3   4
ENDBRANCH   2   3
ENDBRANCH   1   2
BRANCH   1  13
ATOM     13  C   UNL d   1     -41.270-122.408 -51.724  0.00  0.00     0.040 C 
BRANCH  13  14
ATOM     14  C   UNL d   1     -41.123-122.075 -52.494  0.00  0.00     0.070 C 
BRANCH  14  15
ATOM     15  C   UNL d   1     -41.278-122.532 -53.159  0.00  0.00     0.280 C 
ATOM     16  N   UNL d   1     -41.364-122.138 -53.926  0.00  0.00    -0.204 NA
ATOM     17  O   UNL d   1     -41.355-123.364 -53.123  0.00  0.00    -0.265 OA
BRANCH  16  18
ATOM     18  C   UNL d   1     -41.516-122.599 -54.571  0.00  0.00     0.127 C 
BRANCH  18  19
ATOM     19  C   UNL d   1     -41.881-122.281 -55.258  0.00  0.00     0.119 A 
ATOM     20  O   UNL d   1     -41.501-122.071 -55.960  0.00  0.00    -0.304 OA
ATOM     21  C   UNL d   1     -42.110-121.776 -56.494  0.00  0.00     0.123 A 
ATOM     22  C   UNL d   1     -42.797-121.825 -56.090  0.00  0.00     0.029 A 
ATOM     23  C   UNL d   1     -42.674-122.121 -55.363  0.00  0.00     0.028 A 
ENDBRANCH  18  19
ENDBRANCH  16  18
ENDBRANCH  14  15
ENDBRANCH  13  14
ENDBRANCH   1  13
TORSDOF 10
ENDMDL
