MODEL 1
REMARK VINA RESULT:      -8.4      0.000      0.000
REMARK  3 active torsions:
REMARK  status: ('A' for Active; 'I' for Inactive)
REMARK    1  A    between atoms: C_3  and  C_5 
REMARK    2  A    between atoms: O_13  and  C_6 
REMARK    3  A    between atoms: O_15  and  C_8 
ROOT
ATOM      1  C   UNL d   1      53.803  32.119  53.902  0.00  0.00     0.021 A 
ATOM      2  C   UNL d   1      53.191  32.365  53.415  0.00  0.00     0.028 A 
ATOM      3  C   UNL d   1      52.735  31.822  53.006  0.00  0.00     0.116 A 
ATOM      4  C   UNL d   1      52.893  31.016  53.085  0.00  0.00     0.116 A 
ATOM      5  C   UNL d   1      53.962  31.304  53.982  0.00  0.00     0.004 A 
ATOM      6  C   UNL d   1      53.507  30.753  53.573  0.00  0.00     0.026 A 
ENDROOT
BRANCH   1   7
ATOM      7  C   UNL d   1      54.257  32.670  54.311  0.00  0.00     0.103 A 
ATOM      8  N   UNL d   1      54.890  33.042  53.936  0.00  0.00    -0.145 NA
ATOM      9  N   UNL d   1      55.346  33.594  54.345  0.00  0.00    -0.106 NA
ATOM     10  C   UNL d   1      55.167  33.772  55.128  0.00  0.00     0.297 A 
ATOM     11  O   UNL d   1      55.624  34.328  55.544  0.00  0.00    -0.264 OA
ATOM     12  C   UNL d   1      54.527  33.396  55.507  0.00  0.00     0.066 A 
ATOM     13  C   UNL d   1      54.072  32.845  55.099  0.00  0.00     0.026 A 
ENDBRANCH   1   7
BRANCH   3  14
ATOM     14  O   UNL d   1      52.122  32.080  52.518  0.00  0.00    -0.326 OA
ATOM     15  C   UNL d   1      51.815  32.841  52.610  0.00  0.00     0.181 C 
ENDBRANCH   3  14
BRANCH   4  16
ATOM     16  O   UNL d   1      52.435  30.463  52.674  0.00  0.00    -0.326 OA
ATOM     17  C   UNL d   1      52.519  29.660  52.833  0.00  0.00     0.181 C 
ENDBRANCH   4  16
TORSDOF 3
ENDMDL
MODEL 2
REMARK VINA RESULT:      -8.3      2.047      3.826
REMARK  3 active torsions:
REMARK  status: ('A' for Active; 'I' for Inactive)
REMARK    1  A    between atoms: C_3  and  C_5 
REMARK    2  A    between atoms: O_13  and  C_6 
REMARK    3  A    between atoms: O_15  and  C_8 
ROOT
ATOM      1  C   UNL d   1      52.622  33.598  53.704  0.00  0.00     0.021 A 
ATOM      2  C   UNL d   1      52.986  32.870  53.601  0.00  0.00     0.028 A 
ATOM      3  C   UNL d   1      53.681  32.689  53.993  0.00  0.00     0.116 A 
ATOM      4  C   UNL d   1      54.021  33.245  54.498  0.00  0.00     0.116 A 
ATOM      5  C   UNL d   1      52.966  34.160  54.215  0.00  0.00     0.004 A 
ATOM      6  C   UNL d   1      53.666  33.983  54.611  0.00  0.00     0.026 A 
ENDROOT
BRANCH   1   7
ATOM      7  C   UNL d   1      51.923  33.774  53.308  0.00  0.00     0.103 A 
ATOM      8  N   UNL d   1      51.202  33.504  53.603  0.00  0.00    -0.145 NA
ATOM      9  N   UNL d   1      50.501  33.681  53.206  0.00  0.00    -0.106 NA
ATOM     10  C   UNL d   1      50.524  34.126  52.515  0.00  0.00     0.297 A 
ATOM     11  O   UNL d   1      49.820  34.306  52.112  0.00  0.00    -0.264 OA
ATOM     12  C   UNL d   1      51.253  34.398  52.217  0.00  0.00     0.066 A 
ATOM     13  C   UNL d   1      51.952  34.223  52.613  0.00  0.00     0.026 A 
ENDBRANCH   1   7
BRANCH   3  14
ATOM     14  O   UNL d   1      54.040  31.953  53.882  0.00  0.00    -0.326 OA
ATOM     15  C   UNL d   1      53.597  31.321  53.587  0.00  0.00     0.181 C 
ENDBRANCH   3  14
BRANCH   4  16
ATOM     16  O   UNL d   1      54.724  33.067  54.896  0.00  0.00    -0.326 OA
ATOM     17  C   UNL d   1      55.133  33.660  55.294  0.00  0.00     0.181 C 
ENDBRANCH   4  16
TORSDOF 3
ENDMDL
MODEL 3
REMARK VINA RESULT:      -8.1      1.637      3.777
REMARK  3 active torsions:
REMARK  status: ('A' for Active; 'I' for Inactive)
REMARK    1  A    between atoms: C_3  and  C_5 
REMARK    2  A    between atoms: O_13  and  C_6 
REMARK    3  A    between atoms: O_15  and  C_8 
ROOT
ATOM      1  C   UNL d   1      53.231  32.925  53.852  0.00  0.00     0.021 A 
ATOM      2  C   UNL d   1      53.849  33.117  54.355  0.00  0.00     0.028 A 
ATOM      3  C   UNL d   1      53.916  33.869  54.671  0.00  0.00     0.116 A 
ATOM      4  C   UNL d   1      53.355  34.443  54.479  0.00  0.00     0.116 A 
ATOM      5  C   UNL d   1      52.664  33.505  53.658  0.00  0.00     0.004 A 
ATOM      6  C   UNL d   1      52.726  34.264  53.972  0.00  0.00     0.026 A 
ENDROOT
BRANCH   1   7
ATOM      7  C   UNL d   1      53.169  32.167  53.538  0.00  0.00     0.103 A 
ATOM      8  N   UNL d   1      52.842  32.056  52.789  0.00  0.00    -0.145 NA
ATOM      9  N   UNL d   1      52.779  31.296  52.475  0.00  0.00    -0.106 NA
ATOM     10  C   UNL d   1      53.045  30.650  52.910  0.00  0.00     0.297 A 
ATOM     11  O   UNL d   1      52.983  29.883  52.597  0.00  0.00    -0.264 OA
ATOM     12  C   UNL d   1      53.375  30.763  53.667  0.00  0.00     0.066 A 
ATOM     13  C   UNL d   1      53.438  31.521  53.981  0.00  0.00     0.026 A 
ENDBRANCH   1   7
BRANCH   3  14
ATOM     14  O   UNL d   1      54.542  34.052  55.177  0.00  0.00    -0.326 OA
ATOM     15  C   UNL d   1      55.282  33.705  55.058  0.00  0.00     0.181 C 
ENDBRANCH   3  14
BRANCH   4  16
ATOM     16  O   UNL d   1      53.419  35.205  54.795  0.00  0.00    -0.326 OA
ATOM     17  C   UNL d   1      52.850  35.772  54.617  0.00  0.00     0.181 C 
ENDBRANCH   4  16
TORSDOF 3
ENDMDL
MODEL 4
REMARK VINA RESULT:      -7.9      1.962      3.517
REMARK  3 active torsions:
REMARK  status: ('A' for Active; 'I' for Inactive)
REMARK    1  A    between atoms: C_3  and  C_5 
REMARK    2  A    between atoms: O_13  and  C_6 
REMARK    3  A    between atoms: O_15  and  C_8 
ROOT
ATOM      1  C   UNL d   1      52.878  32.974  53.468  0.00  0.00     0.021 A 
ATOM      2  C   UNL d   1      52.220  33.379  53.195  0.00  0.00     0.028 A 
ATOM      3  C   UNL d   1      52.128  34.179  53.342  0.00  0.00     0.116 A 
ATOM      4  C   UNL d   1      52.706  34.583  53.770  0.00  0.00     0.116 A 
ATOM      5  C   UNL d   1      53.462  33.382  53.901  0.00  0.00     0.004 A 
ATOM      6  C   UNL d   1      53.375  34.187  54.052  0.00  0.00     0.026 A 
ENDROOT
BRANCH   1   7
ATOM      7  C   UNL d   1      52.964  32.170  53.317  0.00  0.00     0.103 A 
ATOM      8  N   UNL d   1      52.680  31.849  52.612  0.00  0.00    -0.145 NA
ATOM      9  N   UNL d   1      52.766  31.044  52.460  0.00  0.00    -0.106 NA
ATOM     10  C   UNL d   1      53.136  30.560  53.015  0.00  0.00     0.297 A 
ATOM     11  O   UNL d   1      53.224  29.748  52.865  0.00  0.00    -0.264 OA
ATOM     12  C   UNL d   1      53.422  30.884  53.727  0.00  0.00     0.066 A 
ATOM     13  C   UNL d   1      53.336  31.688  53.879  0.00  0.00     0.026 A 
ENDBRANCH   1   7
BRANCH   3  14
ATOM     14  O   UNL d   1      51.462  34.578  53.063  0.00  0.00    -0.326 OA
ATOM     15  C   UNL d   1      50.767  34.160  52.909  0.00  0.00     0.181 C 
ENDBRANCH   3  14
BRANCH   4  16
ATOM     16  O   UNL d   1      52.618  35.392  53.921  0.00  0.00    -0.326 OA
ATOM     17  C   UNL d   1      53.075  35.753  54.503  0.00  0.00     0.181 C 
ENDBRANCH   4  16
TORSDOF 3
ENDMDL
MODEL 5
REMARK VINA RESULT:      -7.8      2.000      3.279
REMARK  3 active torsions:
REMARK  status: ('A' for Active; 'I' for Inactive)
REMARK    1  A    between atoms: C_3  and  C_5 
REMARK    2  A    between atoms: O_13  and  C_6 
REMARK    3  A    between atoms: O_15  and  C_8 
ROOT
ATOM      1  C   UNL d   1      52.336  32.568  53.212  0.00  0.00     0.021 A 
ATOM      2  C   UNL d   1      52.981  32.742  53.687  0.00  0.00     0.028 A 
ATOM      3  C   UNL d   1      53.553  32.178  53.843  0.00  0.00     0.116 A 
ATOM      4  C   UNL d   1      53.481  31.424  53.516  0.00  0.00     0.116 A 
ATOM      5  C   UNL d   1      52.263  31.805  52.882  0.00  0.00     0.004 A 
ATOM      6  C   UNL d   1      52.836  31.234  53.035  0.00  0.00     0.026 A 
ENDROOT
BRANCH   1   7
ATOM      7  C   UNL d   1      51.764  33.139  53.060  0.00  0.00     0.103 A 
ATOM      8  N   UNL d   1      51.049  33.127  53.472  0.00  0.00    -0.145 NA
ATOM      9  N   UNL d   1      50.476  33.699  53.320  0.00  0.00    -0.106 NA
ATOM     10  C   UNL d   1      50.618  34.282  52.757  0.00  0.00     0.297 A 
ATOM     11  O   UNL d   1      50.043  34.860  52.601  0.00  0.00    -0.264 OA
ATOM     12  C   UNL d   1      51.340  34.294  52.341  0.00  0.00     0.066 A 
ATOM     13  C   UNL d   1      51.913  33.723  52.493  0.00  0.00     0.026 A 
ENDBRANCH   1   7
BRANCH   3  14
ATOM     14  O   UNL d   1      54.199  32.364  54.322  0.00  0.00    -0.326 OA
ATOM     15  C   UNL d   1      54.137  32.974  54.876  0.00  0.00     0.181 C 
ENDBRANCH   3  14
BRANCH   4  16
ATOM     16  O   UNL d   1      54.058  30.851  53.670  0.00  0.00    -0.326 OA
ATOM     17  C   UNL d   1      53.892  30.056  53.535  0.00  0.00     0.181 C 
ENDBRANCH   4  16
TORSDOF 3
ENDMDL
MODEL 6
REMARK VINA RESULT:      -7.4      1.776      1.913
REMARK  3 active torsions:
REMARK  status: ('A' for Active; 'I' for Inactive)
REMARK    1  A    between atoms: C_3  and  C_5 
REMARK    2  A    between atoms: O_13  and  C_6 
REMARK    3  A    between atoms: O_15  and  C_8 
ROOT
ATOM      1  C   UNL d   1      53.175  33.237  53.846  0.00  0.00     0.021 A 
ATOM      2  C   UNL d   1      52.515  32.894  53.503  0.00  0.00     0.028 A 
ATOM      3  C   UNL d   1      52.523  32.111  53.266  0.00  0.00     0.116 A 
ATOM      4  C   UNL d   1      53.205  31.660  53.376  0.00  0.00     0.116 A 
ATOM      5  C   UNL d   1      53.865  32.781  53.957  0.00  0.00     0.004 A 
ATOM      6  C   UNL d   1      53.879  31.993  53.721  0.00  0.00     0.026 A 
ENDROOT
BRANCH   1   7
ATOM      7  C   UNL d   1      53.160  34.025  54.081  0.00  0.00     0.103 A 
ATOM      8  N   UNL d   1      53.256  34.221  54.877  0.00  0.00    -0.145 NA
ATOM      9  N   UNL d   1      53.241  35.010  55.113  0.00  0.00    -0.106 NA
ATOM     10  C   UNL d   1      53.130  35.603  54.552  0.00  0.00     0.297 A 
ATOM     11  O   UNL d   1      53.115  36.400  54.787  0.00  0.00    -0.264 OA
ATOM     12  C   UNL d   1      53.034  35.405  53.749  0.00  0.00     0.066 A 
ATOM     13  C   UNL d   1      53.049  34.617  53.513  0.00  0.00     0.026 A 
ENDBRANCH   1   7
BRANCH   3  14
ATOM     14  O   UNL d   1      51.853  31.774  52.921  0.00  0.00    -0.326 OA
ATOM     15  C   UNL d   1      51.108  32.101  53.066  0.00  0.00     0.181 C 
ENDBRANCH   3  14
BRANCH   4  16
ATOM     16  O   UNL d   1      53.219  30.867  53.138  0.00  0.00    -0.326 OA
ATOM     17  C   UNL d   1      53.777  30.352  53.457  0.00  0.00     0.181 C 
ENDBRANCH   4  16
TORSDOF 3
ENDMDL
MODEL 7
REMARK VINA RESULT:      -7.2      1.388      2.446
REMARK  3 active torsions:
REMARK  status: ('A' for Active; 'I' for Inactive)
REMARK    1  A    between atoms: C_3  and  C_5 
REMARK    2  A    between atoms: O_13  and  C_6 
REMARK    3  A    between atoms: O_15  and  C_8 
ROOT
ATOM      1  C   UNL d   1      52.889  33.842  53.835  0.00  0.00     0.021 A 
ATOM      2  C   UNL d   1      52.550  33.122  53.641  0.00  0.00     0.028 A 
ATOM      3  C   UNL d   1      51.859  33.087  53.204  0.00  0.00     0.116 A 
ATOM      4  C   UNL d   1      51.499  33.786  52.954  0.00  0.00     0.116 A 
ATOM      5  C   UNL d   1      52.526  34.549  53.582  0.00  0.00     0.004 A 
ATOM      6  C   UNL d   1      51.830  34.520  53.142  0.00  0.00     0.026 A 
ENDROOT
BRANCH   1   7
ATOM      7  C   UNL d   1      53.584  33.870  54.274  0.00  0.00     0.103 A 
ATOM      8  N   UNL d   1      53.654  34.401  54.902  0.00  0.00    -0.145 NA
ATOM      9  N   UNL d   1      54.350  34.430  55.343  0.00  0.00    -0.106 NA
ATOM     10  C   UNL d   1      54.974  33.927  55.155  0.00  0.00     0.297 A 
ATOM     11  O   UNL d   1      55.677  33.952  55.597  0.00  0.00    -0.264 OA
ATOM     12  C   UNL d   1      54.903  33.390  54.522  0.00  0.00     0.066 A 
ATOM     13  C   UNL d   1      54.208  33.362  54.081  0.00  0.00     0.026 A 
ENDBRANCH   1   7
BRANCH   3  14
ATOM     14  O   UNL d   1      51.524  32.356  53.014  0.00  0.00    -0.326 OA
ATOM     15  C   UNL d   1      52.001  31.683  52.978  0.00  0.00     0.181 C 
ENDBRANCH   3  14
BRANCH   4  16
ATOM     16  O   UNL d   1      50.800  33.756  52.512  0.00  0.00    -0.326 OA
ATOM     17  C   UNL d   1      50.323  34.424  52.452  0.00  0.00     0.181 C 
ENDBRANCH   4  16
TORSDOF 3
ENDMDL
MODEL 8
REMARK VINA RESULT:      -7.2      2.620      4.273
REMARK  3 active torsions:
REMARK  status: ('A' for Active; 'I' for Inactive)
REMARK    1  A    between atoms: C_3  and  C_5 
REMARK    2  A    between atoms: O_13  and  C_6 
REMARK    3  A    between atoms: O_15  and  C_8 
ROOT
ATOM      1  C   UNL d   1      52.330  34.116  53.602  0.00  0.00     0.021 A 
ATOM      2  C   UNL d   1      52.617  34.796  53.959  0.00  0.00     0.028 A 
ATOM      3  C   UNL d   1      53.273  34.769  54.448  0.00  0.00     0.116 A 
ATOM      4  C   UNL d   1      53.650  34.048  54.585  0.00  0.00     0.116 A 
ATOM      5  C   UNL d   1      52.711  33.387  53.741  0.00  0.00     0.004 A 
ATOM      6  C   UNL d   1      53.371  33.354  54.232  0.00  0.00     0.026 A 
ENDROOT
BRANCH   1   7
ATOM      7  C   UNL d   1      51.671  34.149  53.112  0.00  0.00     0.103 A 
ATOM      8  N   UNL d   1      50.913  34.131  53.436  0.00  0.00    -0.145 NA
ATOM      9  N   UNL d   1      50.252  34.165  52.945  0.00  0.00    -0.106 NA
ATOM     10  C   UNL d   1      50.351  34.217  52.129  0.00  0.00     0.297 A 
ATOM     11  O   UNL d   1      49.687  34.251  51.631  0.00  0.00    -0.264 OA
ATOM     12  C   UNL d   1      51.117  34.235  51.802  0.00  0.00     0.066 A 
ATOM     13  C   UNL d   1      51.777  34.201  52.292  0.00  0.00     0.026 A 
ENDBRANCH   1   7
BRANCH   3  14
ATOM     14  O   UNL d   1      53.554  35.460  54.802  0.00  0.00    -0.326 OA
ATOM     15  C   UNL d   1      53.098  36.148  54.781  0.00  0.00     0.181 C 
ENDBRANCH   3  14
BRANCH   4  16
ATOM     16  O   UNL d   1      54.313  34.016  55.079  0.00  0.00    -0.326 OA
ATOM     17  C   UNL d   1      54.742  33.317  55.145  0.00  0.00     0.181 C 
ENDBRANCH   4  16
TORSDOF 3
ENDMDL
MODEL 9
REMARK VINA RESULT:      -5.4      1.991      2.371
REMARK  3 active torsions:
REMARK  status: ('A' for Active; 'I' for Inactive)
REMARK    1  A    between atoms: C_3  and  C_5 
REMARK    2  A    between atoms: O_13  and  C_6 
REMARK    3  A    between atoms: O_15  and  C_8 
ROOT
ATOM      1  C   UNL d   1      52.922  31.529  53.389  0.00  0.00     0.021 A 
ATOM      2  C   UNL d   1      52.294  31.008  53.317  0.00  0.00     0.028 A 
ATOM      3  C   UNL d   1      52.392  30.209  53.463  0.00  0.00     0.116 A 
ATOM      4  C   UNL d   1      53.133  29.923  53.685  0.00  0.00     0.116 A 
ATOM      5  C   UNL d   1      53.672  31.241  53.614  0.00  0.00     0.004 A 
ATOM      6  C   UNL d   1      53.776  30.437  53.762  0.00  0.00     0.026 A 
ENDROOT
BRANCH   1   7
ATOM      7  C   UNL d   1      52.817  32.331  53.241  0.00  0.00     0.103 A 
ATOM      8  N   UNL d   1      52.527  32.582  52.510  0.00  0.00    -0.145 NA
ATOM      9  N   UNL d   1      52.422  33.386  52.362  0.00  0.00    -0.106 NA
ATOM     10  C   UNL d   1      52.606  33.937  52.944  0.00  0.00     0.297 A 
ATOM     11  O   UNL d   1      52.502  34.749  52.798  0.00  0.00    -0.264 OA
ATOM     12  C   UNL d   1      52.899  33.684  53.682  0.00  0.00     0.066 A 
ATOM     13  C   UNL d   1      53.005  32.881  53.831  0.00  0.00     0.026 A 
ENDBRANCH   1   7
BRANCH   3  14
ATOM     14  O   UNL d   1      51.752  29.692  53.387  0.00  0.00    -0.326 OA
ATOM     15  C   UNL d   1      50.998  29.935  53.622  0.00  0.00     0.181 C 
ENDBRANCH   3  14
BRANCH   4  16
ATOM     16  O   UNL d   1      53.237  29.116  53.834  0.00  0.00    -0.326 OA
ATOM     17  C   UNL d   1      53.702  28.871  54.467  0.00  0.00     0.181 C 
ENDBRANCH   4  16
TORSDOF 3
ENDMDL
