MODEL 1
REMARK VINA RESULT:      -4.1      0.000      0.000
REMARK  6 active torsions:
REMARK  status: ('A' for Active; 'I' for Inactive)
REMARK    1  A    between atoms: C_6  and  N_1 
REMARK    2  A    between atoms: C_12  and  C_6 
REMARK    3  A    between atoms: O_18  and  C_7 
REMARK    4  A    between atoms: O_19  and  C_10 
REMARK    5  A    between atoms: C_21  and  O_19 
REMARK    6  A    between atoms: C_23  and  C_21 
ROOT
ATOM      1  C   UNL d   1      58.153  -0.059  29.897  0.00  0.00     0.117 A 
ATOM      2  C   UNL d   1      58.107  -0.877  30.022  0.00  0.00     0.122 A 
ATOM      3  C   UNL d   1      57.782   0.450  30.422  0.00  0.00     0.028 A 
ATOM      4  C   UNL d   1      57.371   0.154  31.062  0.00  0.00     0.020 A 
ATOM      5  C   UNL d   1      57.693  -1.173  30.667  0.00  0.00     0.027 A 
ATOM      6  C   UNL d   1      57.322  -0.652  31.190  0.00  0.00     0.004 A 
ENDROOT
BRANCH   4   7
ATOM      7  C   UNL d   1      57.001   0.673  31.585  0.00  0.00     0.085 C 
BRANCH   7   8
ATOM      8  N   UNL d   1      57.201   0.661  32.386  0.00  0.00    -0.251 N 
ATOM      9  C   UNL d   1      57.959   0.665  32.736  0.00  0.00     0.378 A 
ATOM     10  O   UNL d   1      57.863   0.648  33.558  0.00  0.00    -0.258 OA
ATOM     11  O   UNL d   1      58.673   0.681  32.327  0.00  0.00    -0.237 OA
ATOM     12  C   UNL d   1      57.049   0.635  33.719  0.00  0.00     0.121 A 
ATOM     13  C   UNL d   1      56.640   0.643  32.995  0.00  0.00     0.092 A 
ATOM     14  C   UNL d   1      56.619   0.617  34.425  0.00  0.00     0.026 A 
ATOM     15  C   UNL d   1      55.819   0.633  32.978  0.00  0.00     0.020 A 
ATOM     16  C   UNL d   1      55.400   0.614  33.689  0.00  0.00     0.002 A 
ATOM     17  C   UNL d   1      55.798   0.606  34.409  0.00  0.00     0.002 A 
ATOM     18  C   UNL d   1      54.571   0.604  33.667  0.00  0.00     0.000 C 
ENDBRANCH   7   8
ENDBRANCH   4   7
BRANCH   1  19
ATOM     19  O   UNL d   1      58.565   0.233  29.255  0.00  0.00    -0.326 OA
ATOM     20  C   UNL d   1      59.179   0.678  29.581  0.00  0.00     0.181 C 
ENDBRANCH   1  19
BRANCH   2  21
ATOM     21  O   UNL d   1      58.478  -1.391  29.498  0.00  0.00    -0.303 OA
BRANCH  21  22
ATOM     22  C   UNL d   1      58.450  -2.197  29.633  0.00  0.00     0.123 C 
BRANCH  22  23
ATOM     23  C   UNL d   1      59.054  -2.685  29.351  0.00  0.00     0.027 C 
ATOM     24  C   UNL d   1      58.872  -3.354  28.908  0.00  0.00     0.002 C 
ENDBRANCH  22  23
ENDBRANCH  21  22
ENDBRANCH   2  21
TORSDOF 6
ENDMDL
MODEL 2
REMARK VINA RESULT:      -2.6      1.274      4.687
REMARK  6 active torsions:
REMARK  status: ('A' for Active; 'I' for Inactive)
REMARK    1  A    between atoms: C_6  and  N_1 
REMARK    2  A    between atoms: C_12  and  C_6 
REMARK    3  A    between atoms: O_18  and  C_7 
REMARK    4  A    between atoms: O_19  and  C_10 
REMARK    5  A    between atoms: C_21  and  O_19 
REMARK    6  A    between atoms: C_23  and  C_21 
ROOT
ATOM      1  C   UNL d   1      56.976  -0.799  32.014  0.00  0.00     0.117 A 
ATOM      2  C   UNL d   1      57.198  -0.143  32.469  0.00  0.00     0.122 A 
ATOM      3  C   UNL d   1      57.220  -0.850  31.233  0.00  0.00     0.028 A 
ATOM      4  C   UNL d   1      57.679  -0.259  30.905  0.00  0.00     0.020 A 
ATOM      5  C   UNL d   1      57.660   0.451  32.136  0.00  0.00     0.027 A 
ATOM      6  C   UNL d   1      57.901   0.391  31.349  0.00  0.00     0.004 A 
ENDROOT
BRANCH   4   7
ATOM      7  C   UNL d   1      57.921  -0.318  30.119  0.00  0.00     0.085 C 
BRANCH   7   8
ATOM      8  N   UNL d   1      58.705  -0.506  29.944  0.00  0.00    -0.251 N 
ATOM      9  C   UNL d   1      59.396  -0.060  30.088  0.00  0.00     0.378 A 
ATOM     10  O   UNL d   1      60.044  -0.492  29.809  0.00  0.00    -0.258 OA
ATOM     11  O   UNL d   1      59.418   0.681  30.446  0.00  0.00    -0.237 OA
ATOM     12  C   UNL d   1      59.759  -1.204  29.493  0.00  0.00     0.121 A 
ATOM     13  C   UNL d   1      58.932  -1.213  29.576  0.00  0.00     0.092 A 
ATOM     14  C   UNL d   1      60.137  -1.849  29.139  0.00  0.00     0.026 A 
ATOM     15  C   UNL d   1      58.492  -1.854  29.311  0.00  0.00     0.020 A 
ATOM     16  C   UNL d   1      58.879  -2.493  28.959  0.00  0.00     0.002 A 
ATOM     17  C   UNL d   1      59.698  -2.490  28.874  0.00  0.00     0.002 A 
ATOM     18  C   UNL d   1      58.431  -3.137  28.693  0.00  0.00     0.000 C 
ENDBRANCH   7   8
ENDBRANCH   4   7
BRANCH   1  19
ATOM     19  O   UNL d   1      56.517  -1.388  32.345  0.00  0.00    -0.326 OA
ATOM     20  C   UNL d   1      55.843  -1.425  31.871  0.00  0.00     0.181 C 
ENDBRANCH   1  19
BRANCH   2  21
ATOM     21  O   UNL d   1      56.955  -0.088  33.252  0.00  0.00    -0.303 OA
BRANCH  21  22
ATOM     22  C   UNL d   1      56.958   0.638  33.627  0.00  0.00     0.123 C 
BRANCH  22  23
ATOM     23  C   UNL d   1      57.073   0.682  34.444  0.00  0.00     0.027 C 
ATOM     24  C   UNL d   1      56.427   0.677  34.953  0.00  0.00     0.002 C 
ENDBRANCH  22  23
ENDBRANCH  21  22
ENDBRANCH   2  21
TORSDOF 6
ENDMDL
MODEL 3
REMARK VINA RESULT:      -2.2      8.143     10.195
REMARK  6 active torsions:
REMARK  status: ('A' for Active; 'I' for Inactive)
REMARK    1  A    between atoms: C_6  and  N_1 
REMARK    2  A    between atoms: C_12  and  C_6 
REMARK    3  A    between atoms: O_18  and  C_7 
REMARK    4  A    between atoms: O_19  and  C_10 
REMARK    5  A    between atoms: C_21  and  O_19 
REMARK    6  A    between atoms: C_23  and  C_21 
ROOT
ATOM      1  C   UNL d   1      60.283  -8.655  35.474  0.00  0.00     0.117 A 
ATOM      2  C   UNL d   1      59.862  -7.942  35.435  0.00  0.00     0.122 A 
ATOM      3  C   UNL d   1      60.073  -9.274  34.979  0.00  0.00     0.028 A 
ATOM      4  C   UNL d   1      59.455  -9.189  34.452  0.00  0.00     0.020 A 
ATOM      5  C   UNL d   1      59.240  -7.859  34.904  0.00  0.00     0.027 A 
ATOM      6  C   UNL d   1      59.036  -8.488  34.410  0.00  0.00     0.004 A 
ENDROOT
BRANCH   4   7
ATOM      7  C   UNL d   1      59.251  -9.818  33.958  0.00  0.00     0.085 C 
BRANCH   7   8
ATOM      8  N   UNL d   1      59.468  -9.800  33.162  0.00  0.00    -0.251 N 
ATOM      9  C   UNL d   1      60.232  -9.782  32.828  0.00  0.00     0.378 A 
ATOM     10  O   UNL d   1      60.153  -9.769  32.004  0.00  0.00    -0.258 OA
ATOM     11  O   UNL d   1      60.938  -9.778  33.252  0.00  0.00    -0.237 OA
ATOM     12  C   UNL d   1      59.343  -9.779  31.826  0.00  0.00     0.121 A 
ATOM     13  C   UNL d   1      58.919  -9.798  32.541  0.00  0.00     0.092 A 
ATOM     14  C   UNL d   1      58.928  -9.772  31.110  0.00  0.00     0.026 A 
ATOM     15  C   UNL d   1      58.098  -9.811  32.541  0.00  0.00     0.020 A 
ATOM     16  C   UNL d   1      57.694  -9.805  31.821  0.00  0.00     0.002 A 
ATOM     17  C   UNL d   1      58.107  -9.785  31.109  0.00  0.00     0.002 A 
ATOM     18  C   UNL d   1      56.865  -9.818  31.825  0.00  0.00     0.000 C 
ENDBRANCH   7   8
ENDBRANCH   4   7
BRANCH   1  19
ATOM     19  O   UNL d   1      60.901  -8.736  36.002  0.00  0.00    -0.326 OA
ATOM     20  C   UNL d   1      60.925  -9.541  36.180  0.00  0.00     0.181 C 
ENDBRANCH   1  19
BRANCH   2  21
ATOM     21  O   UNL d   1      60.069  -7.319  35.929  0.00  0.00    -0.303 OA
BRANCH  21  22
ATOM     22  C   UNL d   1      60.365  -6.627  35.609  0.00  0.00     0.123 C 
BRANCH  22  23
ATOM     23  C   UNL d   1      60.175  -5.899  35.946  0.00  0.00     0.027 C 
ATOM     24  C   UNL d   1      60.575  -5.219  35.716  0.00  0.00     0.002 C 
ENDBRANCH  22  23
ENDBRANCH  21  22
ENDBRANCH   2  21
TORSDOF 6
ENDMDL
MODEL 4
REMARK VINA RESULT:      -1.8      0.817      1.478
REMARK  6 active torsions:
REMARK  status: ('A' for Active; 'I' for Inactive)
REMARK    1  A    between atoms: C_6  and  N_1 
REMARK    2  A    between atoms: C_12  and  C_6 
REMARK    3  A    between atoms: O_18  and  C_7 
REMARK    4  A    between atoms: O_19  and  C_10 
REMARK    5  A    between atoms: C_21  and  O_19 
REMARK    6  A    between atoms: C_23  and  C_21 
ROOT
ATOM      1  C   UNL d   1      58.043  -0.939  30.341  0.00  0.00     0.117 A 
ATOM      2  C   UNL d   1      58.564  -0.426  29.951  0.00  0.00     0.122 A 
ATOM      3  C   UNL d   1      57.495  -0.633  30.869  0.00  0.00     0.028 A 
ATOM      4  C   UNL d   1      57.463   0.171  31.010  0.00  0.00     0.020 A 
ATOM      5  C   UNL d   1      58.529   0.383  30.094  0.00  0.00     0.027 A 
ATOM      6  C   UNL d   1      57.975   0.682  30.628  0.00  0.00     0.004 A 
ENDROOT
BRANCH   4   7
ATOM      7  C   UNL d   1      56.909   0.470  31.543  0.00  0.00     0.085 C 
BRANCH   7   8
ATOM      8  N   UNL d   1      57.107   0.543  32.342  0.00  0.00    -0.251 N 
ATOM      9  C   UNL d   1      57.860   0.635  32.689  0.00  0.00     0.378 A 
ATOM     10  O   UNL d   1      57.762   0.682  33.509  0.00  0.00    -0.258 OA
ATOM     11  O   UNL d   1      58.573   0.671  32.278  0.00  0.00    -0.237 OA
ATOM     12  C   UNL d   1      56.951   0.620  33.672  0.00  0.00     0.121 A 
ATOM     13  C   UNL d   1      56.546   0.534  32.951  0.00  0.00     0.092 A 
ATOM     14  C   UNL d   1      56.520   0.629  34.378  0.00  0.00     0.026 A 
ATOM     15  C   UNL d   1      55.728   0.459  32.937  0.00  0.00     0.020 A 
ATOM     16  C   UNL d   1      55.309   0.469  33.648  0.00  0.00     0.002 A 
ATOM     17  C   UNL d   1      55.703   0.554  34.365  0.00  0.00     0.002 A 
ATOM     18  C   UNL d   1      54.483   0.393  33.628  0.00  0.00     0.000 C 
ENDBRANCH   7   8
ENDBRANCH   4   7
BRANCH   1  19
ATOM     19  O   UNL d   1      58.078  -1.742  30.197  0.00  0.00    -0.326 OA
ATOM     20  C   UNL d   1      57.291  -1.990  30.182  0.00  0.00     0.181 C 
ENDBRANCH   1  19
BRANCH   2  21
ATOM     21  O   UNL d   1      59.114  -0.728  29.421  0.00  0.00    -0.303 OA
BRANCH  21  22
ATOM     22  C   UNL d   1      59.712  -0.248  29.138  0.00  0.00     0.123 C 
BRANCH  22  23
ATOM     23  C   UNL d   1      60.286  -0.555  28.631  0.00  0.00     0.027 C 
ATOM     24  C   UNL d   1      61.068  -0.309  28.694  0.00  0.00     0.002 C 
ENDBRANCH  22  23
ENDBRANCH  21  22
ENDBRANCH   2  21
TORSDOF 6
ENDMDL
MODEL 5
REMARK VINA RESULT:      -1.6      1.400      4.662
REMARK  6 active torsions:
REMARK  status: ('A' for Active; 'I' for Inactive)
REMARK    1  A    between atoms: C_6  and  N_1 
REMARK    2  A    between atoms: C_12  and  C_6 
REMARK    3  A    between atoms: O_18  and  C_7 
REMARK    4  A    between atoms: O_19  and  C_10 
REMARK    5  A    between atoms: C_21  and  O_19 
REMARK    6  A    between atoms: C_23  and  C_21 
ROOT
ATOM      1  C   UNL d   1      55.894  -0.773  33.053  0.00  0.00     0.117 A 
ATOM      2  C   UNL d   1      55.686  -0.006  33.289  0.00  0.00     0.122 A 
ATOM      3  C   UNL d   1      56.362  -0.877  32.387  0.00  0.00     0.028 A 
ATOM      4  C   UNL d   1      56.621  -0.230  31.961  0.00  0.00     0.020 A 
ATOM      5  C   UNL d   1      55.949   0.643  32.858  0.00  0.00     0.027 A 
ATOM      6  C   UNL d   1      56.420   0.528  32.190  0.00  0.00     0.004 A 
ENDROOT
BRANCH   4   7
ATOM      7  C   UNL d   1      57.092  -0.344  31.293  0.00  0.00     0.085 C 
BRANCH   7   8
ATOM      8  N   UNL d   1      57.832   0.018  31.247  0.00  0.00    -0.251 N 
ATOM      9  C   UNL d   1      58.256   0.421  31.842  0.00  0.00     0.378 A 
ATOM     10  O   UNL d   1      58.971   0.682  31.517  0.00  0.00    -0.258 OA
ATOM     11  O   UNL d   1      58.000   0.535  32.616  0.00  0.00    -0.237 OA
ATOM     12  C   UNL d   1      58.992   0.442  30.723  0.00  0.00     0.121 A 
ATOM     13  C   UNL d   1      58.289   0.032  30.556  0.00  0.00     0.092 A 
ATOM     14  C   UNL d   1      59.555   0.540  30.125  0.00  0.00     0.026 A 
ATOM     15  C   UNL d   1      58.151  -0.275  29.807  0.00  0.00     0.020 A 
ATOM     16  C   UNL d   1      58.720  -0.172  29.217  0.00  0.00     0.002 A 
ATOM     17  C   UNL d   1      59.419   0.234  29.375  0.00  0.00     0.002 A 
ATOM     18  C   UNL d   1      58.577  -0.483  28.462  0.00  0.00     0.000 C 
ENDBRANCH   7   8
ENDBRANCH   4   7
BRANCH   1  19
ATOM     19  O   UNL d   1      55.632  -1.417  33.482  0.00  0.00    -0.326 OA
ATOM     20  C   UNL d   1      55.456  -1.991  32.916  0.00  0.00     0.181 C 
ENDBRANCH   1  19
BRANCH   2  21
ATOM     21  O   UNL d   1      55.217   0.103  33.955  0.00  0.00    -0.303 OA
BRANCH  21  22
ATOM     22  C   UNL d   1      55.546   0.410  34.637  0.00  0.00     0.123 C 
BRANCH  22  23
ATOM     23  C   UNL d   1      55.063   0.614  35.275  0.00  0.00     0.027 C 
ATOM     24  C   UNL d   1      55.382   0.682  36.030  0.00  0.00     0.002 C 
ENDBRANCH  22  23
ENDBRANCH  21  22
ENDBRANCH   2  21
TORSDOF 6
ENDMDL
