MODEL 1
REMARK VINA RESULT:      -6.9      0.000      0.000
REMARK  5 active torsions:
REMARK  status: ('A' for Active; 'I' for Inactive)
REMARK    1  A    between atoms: C_8  and  C_1 
REMARK    2  A    between atoms: N_6  and  C_2 
REMARK    3  A    between atoms: C_12  and  C_4 
REMARK       I    between atoms: C_7  and  N_6 
REMARK    4  A    between atoms: C_9  and  C_7 
REMARK    5  A    between atoms: O_15  and  C_8 
ROOT
ATOM      1  C   UNL d   1     -49.161  12.673  23.001  0.00  0.00     0.110 A 
ATOM      2  C   UNL d   1     -49.102  13.470  23.156  0.00  0.00     0.096 A 
ATOM      3  S   UNL d   1     -48.382  12.393  22.862  0.00  0.00    -0.080 SA
ATOM      4  C   UNL d   1     -47.867  13.032  22.936  0.00  0.00     0.031 A 
ATOM      5  C   UNL d   1     -48.318  13.703  23.120  0.00  0.00     0.026 A 
ENDROOT
BRANCH   2   6
ATOM      6  N   UNL d   1     -49.750  13.952  23.322  0.00  0.00    -0.207 NA
ATOM      7  C   UNL d   1     -49.664  14.765  23.368  0.00  0.00     0.279 C 
ATOM      8  O   UNL d   1     -48.905  15.096  23.243  0.00  0.00    -0.265 OA
BRANCH   7   9
ATOM      9  C   UNL d   1     -50.288  15.252  23.530  0.00  0.00     0.058 A 
ATOM     10  C   UNL d   1     -50.924  15.747  23.697  0.00  0.00     0.005 A 
ATOM     11  C   UNL d   1     -50.449  15.899  23.039  0.00  0.00     0.005 A 
ENDBRANCH   7   9
ENDBRANCH   2   6
BRANCH   1  12
ATOM     12  C   UNL d   1     -49.857  12.230  22.986  0.00  0.00     0.303 C 
ATOM     13  O   UNL d   1     -50.331  12.216  22.294  0.00  0.00    -0.259 OA
BRANCH  12  14
ATOM     14  O   UNL d   1     -50.093  11.794  23.661  0.00  0.00    -0.295 OA
ATOM     15  C   UNL d   1     -50.829  11.462  23.698  0.00  0.00     0.185 C 
ENDBRANCH  12  14
ENDBRANCH   1  12
BRANCH   4  16
ATOM     16  C   UNL d   1     -47.036  12.967  22.835  0.00  0.00     0.006 A 
ATOM     17  C   UNL d   1     -46.605  12.450  23.313  0.00  0.00     0.001 A 
ATOM     18  C   UNL d   1     -45.796  12.389  23.212  0.00  0.00     0.000 A 
ATOM     19  C   UNL d   1     -45.417  12.847  22.633  0.00  0.00     0.000 A 
ATOM     20  C   UNL d   1     -45.868  13.365  22.159  0.00  0.00     0.000 A 
ATOM     21  C   UNL d   1     -46.674  13.407  22.279  0.00  0.00     0.001 A 
ENDBRANCH   4  16
TORSDOF 5
ENDMDL
MODEL 2
REMARK VINA RESULT:      -6.6      1.282      3.682
REMARK  5 active torsions:
REMARK  status: ('A' for Active; 'I' for Inactive)
REMARK    1  A    between atoms: C_8  and  C_1 
REMARK    2  A    between atoms: N_6  and  C_2 
REMARK    3  A    between atoms: C_12  and  C_4 
REMARK       I    between atoms: C_7  and  N_6 
REMARK    4  A    between atoms: C_9  and  C_7 
REMARK    5  A    between atoms: O_15  and  C_8 
ROOT
ATOM      1  C   UNL d   1     -48.724  12.815  22.839  0.00  0.00     0.110 A 
ATOM      2  C   UNL d   1     -48.163  13.345  22.581  0.00  0.00     0.096 A 
ATOM      3  S   UNL d   1     -49.413  13.257  23.019  0.00  0.00    -0.080 SA
ATOM      4  C   UNL d   1     -49.252  14.050  22.866  0.00  0.00     0.031 A 
ATOM      5  C   UNL d   1     -48.471  14.104  22.593  0.00  0.00     0.026 A 
ENDROOT
BRANCH   2   6
ATOM      6  N   UNL d   1     -47.401  13.129  22.348  0.00  0.00    -0.207 NA
ATOM      7  C   UNL d   1     -46.778  13.654  22.419  0.00  0.00     0.279 C 
ATOM      8  O   UNL d   1     -46.929  14.416  22.733  0.00  0.00    -0.265 OA
BRANCH   7   9
ATOM      9  C   UNL d   1     -46.027  13.459  22.196  0.00  0.00     0.058 A 
ATOM     10  C   UNL d   1     -45.262  13.259  21.965  0.00  0.00     0.005 A 
ATOM     11  C   UNL d   1     -45.404  13.514  22.738  0.00  0.00     0.005 A 
ENDBRANCH   7   9
ENDBRANCH   2   6
BRANCH   1  12
ATOM     12  C   UNL d   1     -48.626  11.998  22.906  0.00  0.00     0.303 C 
ATOM     13  O   UNL d   1     -48.761  11.503  22.243  0.00  0.00    -0.259 OA
BRANCH  12  14
ATOM     14  O   UNL d   1     -48.393  11.662  23.636  0.00  0.00    -0.295 OA
ATOM     15  C   UNL d   1     -48.236  10.871  23.692  0.00  0.00     0.185 C 
ENDBRANCH  12  14
ENDBRANCH   1  12
BRANCH   4  16
ATOM     16  C   UNL d   1     -49.812  14.665  22.982  0.00  0.00     0.006 A 
ATOM     17  C   UNL d   1     -49.696  15.215  23.588  0.00  0.00     0.001 A 
ATOM     18  C   UNL d   1     -50.243  15.812  23.698  0.00  0.00     0.000 A 
ATOM     19  C   UNL d   1     -50.907  15.861  23.202  0.00  0.00     0.000 A 
ATOM     20  C   UNL d   1     -51.008  15.297  22.595  0.00  0.00     0.000 A 
ATOM     21  C   UNL d   1     -50.448  14.710  22.506  0.00  0.00     0.001 A 
ENDBRANCH   4  16
TORSDOF 5
ENDMDL
MODEL 3
REMARK VINA RESULT:      -6.0      2.041      4.623
REMARK  5 active torsions:
REMARK  status: ('A' for Active; 'I' for Inactive)
REMARK    1  A    between atoms: C_8  and  C_1 
REMARK    2  A    between atoms: N_6  and  C_2 
REMARK    3  A    between atoms: C_12  and  C_4 
REMARK       I    between atoms: C_7  and  N_6 
REMARK    4  A    between atoms: C_9  and  C_7 
REMARK    5  A    between atoms: O_15  and  C_8 
ROOT
ATOM      1  C   UNL d   1     -46.983  13.094  23.163  0.00  0.00     0.110 A 
ATOM      2  C   UNL d   1     -46.898  12.306  23.350  0.00  0.00     0.096 A 
ATOM      3  S   UNL d   1     -47.806  13.251  23.137  0.00  0.00    -0.080 SA
ATOM      4  C   UNL d   1     -48.203  12.550  23.309  0.00  0.00     0.031 A 
ATOM      5  C   UNL d   1     -47.635  11.961  23.442  0.00  0.00     0.026 A 
ENDROOT
BRANCH   2   6
ATOM      6  N   UNL d   1     -46.167  11.932  23.429  0.00  0.00    -0.207 NA
ATOM      7  C   UNL d   1     -46.123  11.122  23.537  0.00  0.00     0.279 C 
ATOM      8  O   UNL d   1     -46.835  10.682  23.565  0.00  0.00    -0.265 OA
BRANCH   7   9
ATOM      9  C   UNL d   1     -45.416  10.739  23.617  0.00  0.00     0.058 A 
ATOM     10  C   UNL d   1     -44.694  10.350  23.698  0.00  0.00     0.005 A 
ATOM     11  C   UNL d   1     -45.395   9.913  23.678  0.00  0.00     0.005 A 
ENDBRANCH   7   9
ENDBRANCH   2   6
BRANCH   1  12
ATOM     12  C   UNL d   1     -46.371  13.631  23.027  0.00  0.00     0.303 C 
ATOM     13  O   UNL d   1     -46.074  14.098  23.657  0.00  0.00    -0.259 OA
BRANCH  12  14
ATOM     14  O   UNL d   1     -46.045  13.710  22.260  0.00  0.00    -0.295 OA
ATOM     15  C   UNL d   1     -45.294  13.993  22.161  0.00  0.00     0.185 C 
ENDBRANCH  12  14
ENDBRANCH   1  12
BRANCH   4  16
ATOM     16  C   UNL d   1     -49.040  12.488  23.335  0.00  0.00     0.006 A 
ATOM     17  C   UNL d   1     -49.409  11.808  23.045  0.00  0.00     0.001 A 
ATOM     18  C   UNL d   1     -50.224  11.751  23.071  0.00  0.00     0.000 A 
ATOM     19  C   UNL d   1     -50.672  12.374  23.388  0.00  0.00     0.000 A 
ATOM     20  C   UNL d   1     -50.282  13.053  23.677  0.00  0.00     0.000 A 
ATOM     21  C   UNL d   1     -49.468  13.087  23.639  0.00  0.00     0.001 A 
ENDBRANCH   4  16
TORSDOF 5
ENDMDL
MODEL 4
REMARK VINA RESULT:      -5.9      9.379     10.580
REMARK  5 active torsions:
REMARK  status: ('A' for Active; 'I' for Inactive)
REMARK    1  A    between atoms: C_8  and  C_1 
REMARK    2  A    between atoms: N_6  and  C_2 
REMARK    3  A    between atoms: C_12  and  C_4 
REMARK       I    between atoms: C_7  and  N_6 
REMARK    4  A    between atoms: C_9  and  C_7 
REMARK    5  A    between atoms: O_15  and  C_8 
ROOT
ATOM      1  C   UNL d   1     -40.208  14.693  18.669  0.00  0.00     0.110 A 
ATOM      2  C   UNL d   1     -39.533  14.238  18.687  0.00  0.00     0.096 A 
ATOM      3  S   UNL d   1     -40.299  15.023  19.434  0.00  0.00    -0.080 SA
ATOM      4  C   UNL d   1     -39.674  14.759  19.900  0.00  0.00     0.031 A 
ATOM      5  C   UNL d   1     -39.196  14.269  19.433  0.00  0.00     0.026 A 
ENDROOT
BRANCH   2   6
ATOM      6  N   UNL d   1     -39.248  13.817  18.037  0.00  0.00    -0.207 NA
ATOM      7  C   UNL d   1     -38.581  13.348  18.104  0.00  0.00     0.279 C 
ATOM      8  O   UNL d   1     -38.193  13.305  18.846  0.00  0.00    -0.265 OA
BRANCH   7   9
ATOM      9  C   UNL d   1     -38.288  12.928  17.479  0.00  0.00     0.058 A 
ATOM     10  C   UNL d   1     -37.991  12.502  16.839  0.00  0.00     0.005 A 
ATOM     11  C   UNL d   1     -37.940  12.187  17.601  0.00  0.00     0.005 A 
ENDBRANCH   7   9
ENDBRANCH   2   6
BRANCH   1  12
ATOM     12  C   UNL d   1     -40.702  14.803  18.018  0.00  0.00     0.303 C 
ATOM     13  O   UNL d   1     -41.271  14.220  17.819  0.00  0.00    -0.259 OA
BRANCH  12  14
ATOM     14  O   UNL d   1     -40.639  15.498  17.555  0.00  0.00    -0.295 OA
ATOM     15  C   UNL d   1     -41.183  15.658  16.978  0.00  0.00     0.185 C 
ENDBRANCH  12  14
ENDBRANCH   1  12
BRANCH   4  16
ATOM     16  C   UNL d   1     -39.576  14.975  20.707  0.00  0.00     0.006 A 
ATOM     17  C   UNL d   1     -39.816  14.453  21.300  0.00  0.00     0.001 A 
ATOM     18  C   UNL d   1     -39.720  14.665  22.084  0.00  0.00     0.000 A 
ATOM     19  C   UNL d   1     -39.384  15.400  22.275  0.00  0.00     0.000 A 
ATOM     20  C   UNL d   1     -39.148  15.915  21.661  0.00  0.00     0.000 A 
ATOM     21  C   UNL d   1     -39.254  15.680  20.887  0.00  0.00     0.001 A 
ENDBRANCH   4  16
TORSDOF 5
ENDMDL
MODEL 5
REMARK VINA RESULT:      -5.7      0.932      1.362
REMARK  5 active torsions:
REMARK  status: ('A' for Active; 'I' for Inactive)
REMARK    1  A    between atoms: C_8  and  C_1 
REMARK    2  A    between atoms: N_6  and  C_2 
REMARK    3  A    between atoms: C_12  and  C_4 
REMARK       I    between atoms: C_7  and  N_6 
REMARK    4  A    between atoms: C_9  and  C_7 
REMARK    5  A    between atoms: O_15  and  C_8 
ROOT
ATOM      1  C   UNL d   1     -48.822  12.175  23.036  0.00  0.00     0.110 A 
ATOM      2  C   UNL d   1     -48.513  12.928  23.039  0.00  0.00     0.096 A 
ATOM      3  S   UNL d   1     -48.177  11.647  23.120  0.00  0.00    -0.080 SA
ATOM      4  C   UNL d   1     -47.488  12.095  23.173  0.00  0.00     0.031 A 
ATOM      5  C   UNL d   1     -47.699  12.895  23.122  0.00  0.00     0.026 A 
ENDROOT
BRANCH   2   6
ATOM      6  N   UNL d   1     -48.971  13.611  22.968  0.00  0.00    -0.207 NA
ATOM      7  C   UNL d   1     -48.624  14.351  23.000  0.00  0.00     0.279 C 
ATOM      8  O   UNL d   1     -47.795  14.401  23.106  0.00  0.00    -0.265 OA
BRANCH   7   9
ATOM      9  C   UNL d   1     -49.058  15.030  22.932  0.00  0.00     0.058 A 
ATOM     10  C   UNL d   1     -49.500  15.721  22.865  0.00  0.00     0.005 A 
ATOM     11  C   UNL d   1     -49.017  15.482  22.239  0.00  0.00     0.005 A 
ENDBRANCH   7   9
ENDBRANCH   2   6
BRANCH   1  12
ATOM     12  C   UNL d   1     -49.620  11.977  22.963  0.00  0.00     0.303 C 
ATOM     13  O   UNL d   1     -50.007  12.058  22.224  0.00  0.00    -0.259 OA
BRANCH  12  14
ATOM     14  O   UNL d   1     -50.045  11.695  23.627  0.00  0.00    -0.295 OA
ATOM     15  C   UNL d   1     -50.838  11.839  23.698  0.00  0.00     0.185 C 
ENDBRANCH  12  14
ENDBRANCH   1  12
BRANCH   4  16
ATOM     16  C   UNL d   1     -46.724  11.757  23.262  0.00  0.00     0.006 A 
ATOM     17  C   UNL d   1     -46.057  12.193  23.043  0.00  0.00     0.001 A 
ATOM     18  C   UNL d   1     -45.315  11.862  23.130  0.00  0.00     0.000 A 
ATOM     19  C   UNL d   1     -45.238  11.094  23.438  0.00  0.00     0.000 A 
ATOM     20  C   UNL d   1     -45.923  10.669  23.654  0.00  0.00     0.000 A 
ATOM     21  C   UNL d   1     -46.653  11.021  23.557  0.00  0.00     0.001 A 
ENDBRANCH   4  16
TORSDOF 5
ENDMDL
MODEL 6
REMARK VINA RESULT:      -5.4      1.432      2.673
REMARK  5 active torsions:
REMARK  status: ('A' for Active; 'I' for Inactive)
REMARK    1  A    between atoms: C_8  and  C_1 
REMARK    2  A    between atoms: N_6  and  C_2 
REMARK    3  A    between atoms: C_12  and  C_4 
REMARK       I    between atoms: C_7  and  N_6 
REMARK    4  A    between atoms: C_9  and  C_7 
REMARK    5  A    between atoms: O_15  and  C_8 
ROOT
ATOM      1  C   UNL d   1     -47.703  13.517  22.987  0.00  0.00     0.110 A 
ATOM      2  C   UNL d   1     -48.168  12.850  22.959  0.00  0.00     0.096 A 
ATOM      3  S   UNL d   1     -46.910  13.258  23.072  0.00  0.00    -0.080 SA
ATOM      4  C   UNL d   1     -46.914  12.435  23.093  0.00  0.00     0.031 A 
ATOM      5  C   UNL d   1     -47.700  12.181  23.023  0.00  0.00     0.026 A 
ENDROOT
BRANCH   2   6
ATOM      6  N   UNL d   1     -48.989  12.867  22.877  0.00  0.00    -0.207 NA
ATOM      7  C   UNL d   1     -49.434  12.191  22.992  0.00  0.00     0.279 C 
ATOM      8  O   UNL d   1     -49.039  11.480  23.194  0.00  0.00    -0.265 OA
BRANCH   7   9
ATOM      9  C   UNL d   1     -50.239  12.190  22.917  0.00  0.00     0.058 A 
ATOM     10  C   UNL d   1     -51.058  12.191  22.837  0.00  0.00     0.005 A 
ATOM     11  C   UNL d   1     -50.714  11.903  23.531  0.00  0.00     0.005 A 
ENDBRANCH   7   9
ENDBRANCH   2   6
BRANCH   1  12
ATOM     12  C   UNL d   1     -47.968  14.297  22.940  0.00  0.00     0.303 C 
ATOM     13  O   UNL d   1     -48.399  14.633  23.576  0.00  0.00    -0.259 OA
BRANCH  12  14
ATOM     14  O   UNL d   1     -47.807  14.755  22.258  0.00  0.00    -0.295 OA
ATOM     15  C   UNL d   1     -48.171  15.469  22.148  0.00  0.00     0.185 C 
ENDBRANCH  12  14
ENDBRANCH   1  12
BRANCH   4  16
ATOM     16  C   UNL d   1     -46.217  11.972  23.174  0.00  0.00     0.006 A 
ATOM     17  C   UNL d   1     -46.240  11.271  23.611  0.00  0.00     0.001 A 
ATOM     18  C   UNL d   1     -45.561  10.824  23.688  0.00  0.00     0.000 A 
ATOM     19  C   UNL d   1     -44.857  11.076  23.328  0.00  0.00     0.000 A 
ATOM     20  C   UNL d   1     -44.852  11.787  22.891  0.00  0.00     0.000 A 
ATOM     21  C   UNL d   1     -45.542  12.216  22.829  0.00  0.00     0.001 A 
ENDBRANCH   4  16
TORSDOF 5
ENDMDL
MODEL 7
REMARK VINA RESULT:      -4.8      8.626     10.646
REMARK  5 active torsions:
REMARK  status: ('A' for Active; 'I' for Inactive)
REMARK    1  A    between atoms: C_8  and  C_1 
REMARK    2  A    between atoms: N_6  and  C_2 
REMARK    3  A    between atoms: C_12  and  C_4 
REMARK       I    between atoms: C_7  and  N_6 
REMARK    4  A    between atoms: C_9  and  C_7 
REMARK    5  A    between atoms: O_15  and  C_8 
ROOT
ATOM      1  C   UNL d   1     -38.564  14.296  19.562  0.00  0.00     0.110 A 
ATOM      2  C   UNL d   1     -39.252  14.709  19.423  0.00  0.00     0.096 A 
ATOM      3  S   UNL d   1     -38.236  14.109  18.813  0.00  0.00    -0.080 SA
ATOM      4  C   UNL d   1     -38.737  14.415  18.235  0.00  0.00     0.031 A 
ATOM      5  C   UNL d   1     -39.370  14.789  18.617  0.00  0.00     0.026 A 
ENDROOT
BRANCH   2   6
ATOM      6  N   UNL d   1     -39.742  14.995  20.022  0.00  0.00    -0.207 NA
ATOM      7  C   UNL d   1     -40.463  15.339  19.842  0.00  0.00     0.279 C 
ATOM      8  O   UNL d   1     -40.691  15.394  19.038  0.00  0.00    -0.265 OA
BRANCH   7   9
ATOM      9  C   UNL d   1     -40.955  15.624  20.415  0.00  0.00     0.058 A 
ATOM     10  C   UNL d   1     -41.456  15.917  21.000  0.00  0.00     0.005 A 
ATOM     11  C   UNL d   1     -41.630  15.197  20.635  0.00  0.00     0.005 A 
ENDBRANCH   7   9
ENDBRANCH   2   6
BRANCH   1  12
ATOM     12  C   UNL d   1     -38.254  14.103  20.302  0.00  0.00     0.303 C 
ATOM     13  O   UNL d   1     -37.944  14.704  20.798  0.00  0.00    -0.259 OA
BRANCH  12  14
ATOM     14  O   UNL d   1     -38.248  13.306  20.560  0.00  0.00    -0.295 OA
ATOM     15  C   UNL d   1     -37.958  13.113  21.290  0.00  0.00     0.185 C 
ENDBRANCH  12  14
ENDBRANCH   1  12
BRANCH   4  16
ATOM     16  C   UNL d   1     -38.591  14.337  17.411  0.00  0.00     0.006 A 
ATOM     17  C   UNL d   1     -38.660  13.596  17.053  0.00  0.00     0.001 A 
ATOM     18  C   UNL d   1     -38.518  13.523  16.251  0.00  0.00     0.000 A 
ATOM     19  C   UNL d   1     -38.306  14.192  15.807  0.00  0.00     0.000 A 
ATOM     20  C   UNL d   1     -38.240  14.932  16.186  0.00  0.00     0.000 A 
ATOM     21  C   UNL d   1     -38.387  14.979  16.987  0.00  0.00     0.001 A 
ENDBRANCH   4  16
TORSDOF 5
ENDMDL
MODEL 8
REMARK VINA RESULT:      -4.7      2.313      4.868
REMARK  5 active torsions:
REMARK  status: ('A' for Active; 'I' for Inactive)
REMARK    1  A    between atoms: C_8  and  C_1 
REMARK    2  A    between atoms: N_6  and  C_2 
REMARK    3  A    between atoms: C_12  and  C_4 
REMARK       I    between atoms: C_7  and  N_6 
REMARK    4  A    between atoms: C_9  and  C_7 
REMARK    5  A    between atoms: O_15  and  C_8 
ROOT
ATOM      1  C   UNL d   1     -45.871  13.176  22.373  0.00  0.00     0.110 A 
ATOM      2  C   UNL d   1     -45.972  12.497  22.810  0.00  0.00     0.096 A 
ATOM      3  S   UNL d   1     -46.628  13.529  22.293  0.00  0.00    -0.080 SA
ATOM      4  C   UNL d   1     -47.172  13.052  22.686  0.00  0.00     0.031 A 
ATOM      5  C   UNL d   1     -46.762  12.408  23.008  0.00  0.00     0.026 A 
ENDROOT
BRANCH   2   6
ATOM      6  N   UNL d   1     -45.355  11.987  23.011  0.00  0.00    -0.207 NA
ATOM      7  C   UNL d   1     -45.511  11.233  23.290  0.00  0.00     0.279 C 
ATOM      8  O   UNL d   1     -46.309  10.991  23.365  0.00  0.00    -0.265 OA
BRANCH   7   9
ATOM      9  C   UNL d   1     -44.920  10.721  23.492  0.00  0.00     0.058 A 
ATOM     10  C   UNL d   1     -44.315  10.202  23.698  0.00  0.00     0.005 A 
ATOM     11  C   UNL d   1     -45.099   9.940  23.698  0.00  0.00     0.005 A 
ENDBRANCH   7   9
ENDBRANCH   2   6
BRANCH   1  12
ATOM     12  C   UNL d   1     -45.157  13.458  22.070  0.00  0.00     0.303 C 
ATOM     13  O   UNL d   1     -44.756  14.086  22.454  0.00  0.00    -0.259 OA
BRANCH  12  14
ATOM     14  O   UNL d   1     -44.831  13.118  21.378  0.00  0.00    -0.295 OA
ATOM     15  C   UNL d   1     -44.059  13.254  21.178  0.00  0.00     0.185 C 
ENDBRANCH  12  14
ENDBRANCH   1  12
BRANCH   4  16
ATOM     16  C   UNL d   1     -47.993  13.227  22.727  0.00  0.00     0.006 A 
ATOM     17  C   UNL d   1     -48.271  13.746  23.306  0.00  0.00     0.001 A 
ATOM     18  C   UNL d   1     -49.070  13.915  23.344  0.00  0.00     0.000 A 
ATOM     19  C   UNL d   1     -49.592  13.564  22.803  0.00  0.00     0.000 A 
ATOM     20  C   UNL d   1     -49.293  13.041  22.224  0.00  0.00     0.000 A 
ATOM     21  C   UNL d   1     -48.492  12.889  22.207  0.00  0.00     0.001 A 
ENDBRANCH   4  16
TORSDOF 5
ENDMDL
MODEL 9
REMARK VINA RESULT:      -4.4      6.899      9.089
REMARK  5 active torsions:
REMARK  status: ('A' for Active; 'I' for Inactive)
REMARK    1  A    between atoms: C_8  and  C_1 
REMARK    2  A    between atoms: N_6  and  C_2 
REMARK    3  A    between atoms: C_12  and  C_4 
REMARK       I    between atoms: C_7  and  N_6 
REMARK    4  A    between atoms: C_9  and  C_7 
REMARK    5  A    between atoms: O_15  and  C_8 
ROOT
ATOM      1  C   UNL d   1     -40.358  14.970  20.428  0.00  0.00     0.110 A 
ATOM      2  C   UNL d   1     -40.926  14.405  20.284  0.00  0.00     0.096 A 
ATOM      3  S   UNL d   1     -40.014  15.163  19.688  0.00  0.00    -0.080 SA
ATOM      4  C   UNL d   1     -40.384  14.708  19.110  0.00  0.00     0.031 A 
ATOM      5  C   UNL d   1     -40.953  14.234  19.484  0.00  0.00     0.026 A 
ENDROOT
BRANCH   2   6
ATOM      6  N   UNL d   1     -41.394  14.066  20.873  0.00  0.00    -0.207 NA
ATOM      7  C   UNL d   1     -41.967  13.513  20.685  0.00  0.00     0.279 C 
ATOM      8  O   UNL d   1     -42.067  13.297  19.882  0.00  0.00    -0.265 OA
BRANCH   7   9
ATOM      9  C   UNL d   1     -42.434  13.172  21.250  0.00  0.00     0.058 A 
ATOM     10  C   UNL d   1     -42.908  12.825  21.827  0.00  0.00     0.005 A 
ATOM     11  C   UNL d   1     -43.199  12.919  21.059  0.00  0.00     0.005 A 
ENDBRANCH   7   9
ENDBRANCH   2   6
BRANCH   1  12
ATOM     12  C   UNL d   1     -40.164  15.288  21.164  0.00  0.00     0.303 C 
ATOM     13  O   UNL d   1     -40.614  15.921  21.480  0.00  0.00    -0.259 OA
BRANCH  12  14
ATOM     14  O   UNL d   1     -39.517  14.979  21.597  0.00  0.00    -0.295 OA
ATOM     15  C   UNL d   1     -39.196  15.399  22.209  0.00  0.00     0.185 C 
ENDBRANCH  12  14
ENDBRANCH   1  12
BRANCH   4  16
ATOM     16  C   UNL d   1     -40.186  14.748  18.294  0.00  0.00     0.006 A 
ATOM     17  C   UNL d   1     -40.591  15.273  17.802  0.00  0.00     0.001 A 
ATOM     18  C   UNL d   1     -40.397  15.310  17.009  0.00  0.00     0.000 A 
ATOM     19  C   UNL d   1     -39.797  14.822  16.707  0.00  0.00     0.000 A 
ATOM     20  C   UNL d   1     -39.398  14.298  17.220  0.00  0.00     0.000 A 
ATOM     21  C   UNL d   1     -39.610  14.279  18.007  0.00  0.00     0.001 A 
ENDBRANCH   4  16
TORSDOF 5
ENDMDL
