MODEL 1
REMARK VINA RESULT:      54.6      0.000      0.000
REMARK  9 active torsions:
REMARK  status: ('A' for Active; 'I' for Inactive)
REMARK    1  A    between atoms: C_12  and  N_1 
REMARK    2  A    between atoms: S_7  and  C_2 
REMARK    3  A    between atoms: C_15  and  S_7 
REMARK    4  A    between atoms: C_9  and  C_15 
REMARK    5  A    between atoms: O_14  and  C_9 
REMARK       I    between atoms: C_10  and  N_16 
REMARK    6  A    between atoms: C_19  and  C_12 
REMARK    7  A    between atoms: C_18  and  O_14 
REMARK    8  A    between atoms: N_16  and  C_19 
REMARK    9  A    between atoms: C_20  and  C_18 
ROOT
ATOM      1  N   UNL d   1     -57.969 -98.758 -45.065  0.00  0.00    -0.251 N 
ATOM      2  C   UNL d   1     -57.211 -98.761 -44.740  0.00  0.00     0.182 A 
ATOM      3  C   UNL d   1     -58.638 -98.758 -44.570  0.00  0.00     0.268 A 
ATOM      4  N   UNL d   1     -57.110 -98.764 -43.916  0.00  0.00    -0.222 NA
ATOM      5  C   UNL d   1     -58.534 -98.761 -43.745  0.00  0.00     0.074 A 
ATOM      6  C   UNL d   1     -57.775 -98.764 -43.421  0.00  0.00     0.088 A 
ATOM      7  O   UNL d   1     -59.405 -98.755 -44.897  0.00  0.00    -0.267 OA
ATOM      8  C   UNL d   1     -59.203 -98.761 -43.248  0.00  0.00     0.006 A 
ATOM      9  C   UNL d   1     -57.675 -98.766 -42.595  0.00  0.00     0.019 A 
ATOM     10  C   UNL d   1     -59.099 -98.763 -42.423  0.00  0.00     0.000 A 
ATOM     11  C   UNL d   1     -58.340 -98.766 -42.099  0.00  0.00     0.002 A 
ENDROOT
BRANCH   2  12
ATOM     12  S   UNL d   1     -56.533 -98.761 -45.239  0.00  0.00    -0.044 SA
BRANCH  12  13
ATOM     13  C   UNL d   1     -55.762 -98.824 -44.911  0.00  0.00     0.107 C 
BRANCH  13  14
ATOM     14  C   UNL d   1     -55.187 -99.274 -45.294  0.00  0.00     0.307 C 
ATOM     15  O   UNL d   1     -54.943 -99.072 -46.055  0.00  0.00    -0.258 OA
BRANCH  14  16
ATOM     16  O   UNL d   1     -54.856 -99.932 -44.907  0.00  0.00    -0.271 OA
BRANCH  16  17
ATOM     17  C   UNL d   1     -55.288-100.315 -44.319  0.00  0.00     0.126 C 
BRANCH  17  18
ATOM     18  C   UNL d   1     -55.099-101.088 -44.113  0.00  0.00     0.025 A 
ATOM     19  C   UNL d   1     -55.058-101.308 -43.320  0.00  0.00     0.002 A 
ATOM     20  C   UNL d   1     -54.869-102.078 -43.114  0.00  0.00     0.000 A 
ATOM     21  C   UNL d   1     -54.718-102.638 -43.700  0.00  0.00     0.000 A 
ATOM     22  C   UNL d   1     -54.759-102.418 -44.501  0.00  0.00     0.000 A 
ATOM     23  C   UNL d   1     -54.950-101.641 -44.703  0.00  0.00     0.002 A 
ENDBRANCH  17  18
ENDBRANCH  16  17
ENDBRANCH  14  16
ENDBRANCH  13  14
ENDBRANCH  12  13
ENDBRANCH   2  12
BRANCH   1  24
ATOM     24  C   UNL d   1     -58.071 -98.755 -45.896  0.00  0.00     0.106 C 
BRANCH  24  25
ATOM     25  C   UNL d   1     -58.703 -99.150 -46.248  0.00  0.00     0.121 C 
BRANCH  25  26
ATOM     26  N   UNL d   1     -58.958 -98.960 -47.017  0.00  0.00    -0.205 NA
ATOM     27  C   UNL d   1     -59.328 -99.532 -47.491  0.00  0.00     0.280 C 
ATOM     28  O   UNL d   1     -59.445-100.296 -47.200  0.00  0.00    -0.265 OA
ATOM     29  C   UNL d   1     -59.579 -99.338 -48.251  0.00  0.00     0.068 C 
ENDBRANCH  25  26
ENDBRANCH  24  25
ENDBRANCH   1  24
TORSDOF 9
ENDMDL
