MODEL 1
REMARK VINA RESULT:       4.1      0.000      0.000
REMARK  9 active torsions:
REMARK  status: ('A' for Active; 'I' for Inactive)
REMARK    1  A    between atoms: P_2  and  C_1 
REMARK    2  A    between atoms: O_8  and  P_2 
REMARK    3  A    between atoms: O_9  and  P_2 
REMARK    4  A    between atoms: N_10  and  C_4 
REMARK    5  A    between atoms: C_24  and  O_8 
REMARK    6  A    between atoms: C_23  and  O_9 
REMARK    7  A    between atoms: C_15  and  N_10 
REMARK    8  A    between atoms: O_25  and  C_16 
REMARK    9  A    between atoms: O_26  and  C_17 
ROOT
ATOM      1  C   UNL d   1      59.359  -2.609  29.285  0.00  0.00     0.174 A 
ATOM      2  C   UNL d   1      58.731  -2.067  29.348  0.00  0.00     0.100 A 
ATOM      3  C   UNL d   1      58.865  -1.317  29.665  0.00  0.00     0.095 A 
ATOM      4  N   UNL d   1      60.113  -2.395  29.540  0.00  0.00    -0.237 NA
ATOM      5  C   UNL d   1      59.618  -1.107  29.919  0.00  0.00     0.038 A 
ATOM      6  C   UNL d   1      60.245  -1.649  29.856  0.00  0.00     0.083 A 
ATOM      7  C   UNL d   1      59.746  -0.363  30.234  0.00  0.00     0.027 A 
ATOM      8 CL   UNL d   1      57.974  -2.283  29.090  0.00  0.00    -0.079 Cl
ATOM      9  C   UNL d   1      60.997  -1.438  30.110  0.00  0.00     0.021 A 
ATOM     10  C   UNL d   1      60.506  -0.145  30.492  0.00  0.00     0.094 A 
ATOM     11  C   UNL d   1      61.133  -0.686  30.430  0.00  0.00     0.026 A 
ENDROOT
BRANCH   1  12
ATOM     12  P   UNL d   1      59.226  -3.364  28.965  0.00  0.00     0.392 P 
ATOM     13  O   UNL d   1      58.651  -3.043  28.466  0.00  0.00    -0.251 OA
BRANCH  12  14
ATOM     14  O   UNL d   1      59.752  -3.854  29.373  0.00  0.00    -0.265 OA
BRANCH  14  15
ATOM     15  C   UNL d   1      60.349  -4.261  28.962  0.00  0.00     0.103 C 
ATOM     16  C   UNL d   1      60.281  -5.068  28.820  0.00  0.00     0.027 C 
ATOM     17  C   UNL d   1      61.013  -3.846  28.696  0.00  0.00     0.027 C 
ENDBRANCH  14  15
ENDBRANCH  12  14
BRANCH  12  18
ATOM     18  O   UNL d   1      59.115  -4.123  28.667  0.00  0.00    -0.265 OA
BRANCH  18  19
ATOM     19  C   UNL d   1      58.456  -4.564  28.889  0.00  0.00     0.103 C 
ATOM     20  C   UNL d   1      58.004  -4.338  29.541  0.00  0.00     0.027 C 
ATOM     21  C   UNL d   1      58.247  -5.233  28.456  0.00  0.00     0.027 C 
ENDBRANCH  18  19
ENDBRANCH  12  18
ENDBRANCH   1  12
BRANCH   3  22
ATOM     22  N   UNL d   1      58.241  -0.778  29.728  0.00  0.00    -0.245 NA
BRANCH  22  23
ATOM     23  C   UNL d   1      57.816  -0.708  30.436  0.00  0.00     0.082 A 
ATOM     24  C   UNL d   1      57.541   0.029  30.672  0.00  0.00     0.021 A 
ATOM     25  C   UNL d   1      57.114   0.112  31.380  0.00  0.00     0.026 A 
ATOM     26  C   UNL d   1      56.973  -0.561  31.840  0.00  0.00     0.094 A 
ATOM     27  C   UNL d   1      57.251  -1.301  31.603  0.00  0.00     0.026 A 
ATOM     28  C   UNL d   1      57.673  -1.373  30.899  0.00  0.00     0.021 A 
BRANCH  26  29
ATOM     29  O   UNL d   1      56.546  -0.479  32.551  0.00  0.00    -0.328 OA
ATOM     30  C   UNL d   1      55.817  -0.870  32.634  0.00  0.00     0.181 C 
ENDBRANCH  26  29
ENDBRANCH  22  23
ENDBRANCH   3  22
BRANCH  10  31
ATOM     31  O   UNL d   1      60.637   0.603  30.808  0.00  0.00    -0.328 OA
ATOM     32  C   UNL d   1      60.860   0.680  31.595  0.00  0.00     0.181 C 
ENDBRANCH  10  31
TORSDOF 9
ENDMDL
MODEL 2
REMARK VINA RESULT:       5.4      1.553      3.536
REMARK  9 active torsions:
REMARK  status: ('A' for Active; 'I' for Inactive)
REMARK    1  A    between atoms: P_2  and  C_1 
REMARK    2  A    between atoms: O_8  and  P_2 
REMARK    3  A    between atoms: O_9  and  P_2 
REMARK    4  A    between atoms: N_10  and  C_4 
REMARK    5  A    between atoms: C_24  and  O_8 
REMARK    6  A    between atoms: C_23  and  O_9 
REMARK    7  A    between atoms: C_15  and  N_10 
REMARK    8  A    between atoms: O_25  and  C_16 
REMARK    9  A    between atoms: O_26  and  C_17 
ROOT
ATOM      1  C   UNL d   1      58.019  -1.102  30.251  0.00  0.00     0.174 A 
ATOM      2  C   UNL d   1      58.337  -0.390  30.539  0.00  0.00     0.100 A 
ATOM      3  C   UNL d   1      58.010  -0.033  31.207  0.00  0.00     0.095 A 
ATOM      4  N   UNL d   1      57.377  -1.450  30.635  0.00  0.00    -0.237 NA
ATOM      5  C   UNL d   1      57.371  -0.381  31.587  0.00  0.00     0.038 A 
ATOM      6  C   UNL d   1      57.053  -1.093  31.300  0.00  0.00     0.083 A 
ATOM      7  C   UNL d   1      57.049  -0.024  32.249  0.00  0.00     0.027 A 
ATOM      8 CL   UNL d   1      58.982  -0.041  30.153  0.00  0.00    -0.079 Cl
ATOM      9  C   UNL d   1      56.413  -1.441  31.680  0.00  0.00     0.021 A 
ATOM     10  C   UNL d   1      56.401  -0.373  32.638  0.00  0.00     0.094 A 
ATOM     11  C   UNL d   1      56.083  -1.085  32.351  0.00  0.00     0.026 A 
ENDROOT
BRANCH   1  12
ATOM     12  P   UNL d   1      58.348  -1.463  29.579  0.00  0.00     0.392 P 
ATOM     13  O   UNL d   1      58.502  -0.716  29.263  0.00  0.00    -0.251 OA
BRANCH  12  14
ATOM     14  O   UNL d   1      58.276  -2.273  29.726  0.00  0.00    -0.265 OA
BRANCH  14  15
ATOM     15  C   UNL d   1      58.010  -2.784  29.127  0.00  0.00     0.103 C 
ATOM     16  C   UNL d   1      58.127  -3.597  29.191  0.00  0.00     0.027 C 
ATOM     17  C   UNL d   1      57.626  -2.469  28.467  0.00  0.00     0.027 C 
ENDBRANCH  14  15
ENDBRANCH  12  14
BRANCH  12  18
ATOM     18  O   UNL d   1      58.667  -1.847  28.925  0.00  0.00    -0.265 OA
BRANCH  18  19
ATOM     19  C   UNL d   1      59.471  -2.025  28.900  0.00  0.00     0.103 C 
ATOM     20  C   UNL d   1      59.725  -2.807  28.959  0.00  0.00     0.027 C 
ATOM     21  C   UNL d   1      60.021  -1.419  28.815  0.00  0.00     0.027 C 
ENDBRANCH  18  19
ENDBRANCH  12  18
ENDBRANCH   1  12
BRANCH   3  22
ATOM     22  N   UNL d   1      58.327   0.676  31.493  0.00  0.00    -0.245 NA
BRANCH  22  23
ATOM     23  C   UNL d   1      59.029   0.674  31.934  0.00  0.00     0.082 A 
ATOM     24  C   UNL d   1      58.993   0.681  32.754  0.00  0.00     0.021 A 
ATOM     25  C   UNL d   1      59.691   0.680  33.206  0.00  0.00     0.026 A 
ATOM     26  C   UNL d   1      60.418   0.672  32.813  0.00  0.00     0.094 A 
ATOM     27  C   UNL d   1      60.454   0.665  31.989  0.00  0.00     0.026 A 
ATOM     28  C   UNL d   1      59.757   0.666  31.550  0.00  0.00     0.021 A 
BRANCH  26  29
ATOM     29  O   UNL d   1      61.118   0.670  33.265  0.00  0.00    -0.328 OA
ATOM     30  C   UNL d   1      61.082   0.463  34.069  0.00  0.00     0.181 C 
ENDBRANCH  26  29
ENDBRANCH  22  23
ENDBRANCH   3  22
BRANCH  10  31
ATOM     31  O   UNL d   1      56.077  -0.015  33.303  0.00  0.00    -0.328 OA
ATOM     32  C   UNL d   1      55.367  -0.293  33.611  0.00  0.00     0.181 C 
ENDBRANCH  10  31
TORSDOF 9
ENDMDL
MODEL 3
REMARK VINA RESULT:       5.5      2.183      3.496
REMARK  9 active torsions:
REMARK  status: ('A' for Active; 'I' for Inactive)
REMARK    1  A    between atoms: P_2  and  C_1 
REMARK    2  A    between atoms: O_8  and  P_2 
REMARK    3  A    between atoms: O_9  and  P_2 
REMARK    4  A    between atoms: N_10  and  C_4 
REMARK    5  A    between atoms: C_24  and  O_8 
REMARK    6  A    between atoms: C_23  and  O_9 
REMARK    7  A    between atoms: C_15  and  N_10 
REMARK    8  A    between atoms: O_25  and  C_16 
REMARK    9  A    between atoms: O_26  and  C_17 
ROOT
ATOM      1  C   UNL d   1      58.897   0.030  30.970  0.00  0.00     0.174 A 
ATOM      2  C   UNL d   1      58.075   0.119  31.054  0.00  0.00     0.100 A 
ATOM      3  C   UNL d   1      57.751   0.267  31.798  0.00  0.00     0.095 A 
ATOM      4  N   UNL d   1      59.386   0.090  31.631  0.00  0.00    -0.237 NA
ATOM      5  C   UNL d   1      58.241   0.325  32.455  0.00  0.00     0.038 A 
ATOM      6  C   UNL d   1      59.063   0.236  32.371  0.00  0.00     0.083 A 
ATOM      7  C   UNL d   1      57.915   0.471  33.191  0.00  0.00     0.027 A 
ATOM      8 CL   UNL d   1      57.584   0.060  30.389  0.00  0.00    -0.079 Cl
ATOM      9  C   UNL d   1      59.552   0.295  33.028  0.00  0.00     0.021 A 
ATOM     10  C   UNL d   1      58.407   0.532  33.860  0.00  0.00     0.094 A 
ATOM     11  C   UNL d   1      59.229   0.443  33.776  0.00  0.00     0.026 A 
ENDROOT
BRANCH   1  12
ATOM     12  P   UNL d   1      59.225  -0.118  30.221  0.00  0.00     0.392 P 
ATOM     13  O   UNL d   1      59.011   0.644  29.985  0.00  0.00    -0.251 OA
BRANCH  12  14
ATOM     14  O   UNL d   1      59.510  -0.892  30.272  0.00  0.00    -0.265 OA
BRANCH  14  15
ATOM     15  C   UNL d   1      59.392  -1.423  29.643  0.00  0.00     0.103 C 
ATOM     16  C   UNL d   1      60.029  -1.829  29.316  0.00  0.00     0.027 C 
ATOM     17  C   UNL d   1      58.629  -1.540  29.349  0.00  0.00     0.027 C 
ENDBRANCH  14  15
ENDBRANCH  12  14
BRANCH  12  18
ATOM     18  O   UNL d   1      59.557  -0.292  29.488  0.00  0.00    -0.265 OA
BRANCH  18  19
ATOM     19  C   UNL d   1      59.723   0.311  28.953  0.00  0.00     0.103 C 
ATOM     20  C   UNL d   1      59.112   0.681  28.541  0.00  0.00     0.027 C 
ATOM     21  C   UNL d   1      60.502   0.546  28.830  0.00  0.00     0.027 C 
ENDBRANCH  18  19
ENDBRANCH  12  18
ENDBRANCH   1  12
BRANCH   3  22
ATOM     22  N   UNL d   1      56.933   0.355  31.882  0.00  0.00    -0.245 NA
BRANCH  22  23
ATOM     23  C   UNL d   1      56.483  -0.233  32.255  0.00  0.00     0.082 A 
ATOM     24  C   UNL d   1      56.718  -1.018  32.203  0.00  0.00     0.021 A 
ATOM     25  C   UNL d   1      56.275  -1.615  32.574  0.00  0.00     0.026 A 
ATOM     26  C   UNL d   1      55.595  -1.403  32.994  0.00  0.00     0.094 A 
ATOM     27  C   UNL d   1      55.359  -0.614  33.046  0.00  0.00     0.026 A 
ATOM     28  C   UNL d   1      55.805  -0.029  32.675  0.00  0.00     0.021 A 
BRANCH  26  29
ATOM     29  O   UNL d   1      55.150  -2.001  33.366  0.00  0.00    -0.328 OA
ATOM     30  C   UNL d   1      55.102  -2.752  33.012  0.00  0.00     0.181 C 
ENDBRANCH  26  29
ENDBRANCH  22  23
ENDBRANCH   3  22
BRANCH  10  31
ATOM     31  O   UNL d   1      58.082   0.678  34.601  0.00  0.00    -0.328 OA
ATOM     32  C   UNL d   1      58.558   0.647  35.269  0.00  0.00     0.181 C 
ENDBRANCH  10  31
TORSDOF 9
ENDMDL
