MODEL 1
REMARK VINA RESULT:       1.7      0.000      0.000
REMARK  0 active torsions:
REMARK  status: ('A' for Active; 'I' for Inactive)
ROOT
ATOM      1  N   UNL d   1     -54.711-102.808 -38.314  0.00  0.00    -0.219 NA
ATOM      2  C   UNL d   1     -55.171-102.795 -37.623  0.00  0.00     0.215 A 
ATOM      3  S   UNL d   1     -55.970-102.831 -37.847  0.00  0.00    -0.045 SA
ATOM      4  C   UNL d   1     -55.223-102.853 -38.962  0.00  0.00     0.090 A 
ATOM      5  C   UNL d   1     -55.997-102.867 -38.676  0.00  0.00     0.058 A 
ATOM      6  N   UNL d   1     -54.894-102.753 -36.848  0.00  0.00    -0.120 N 
ATOM      7  C   UNL d   1     -54.993-102.878 -39.749  0.00  0.00     0.021 C 
ENDROOT
TORSDOF 0
ENDMDL
MODEL 2
REMARK VINA RESULT:       1.7      7.777      7.915
REMARK  0 active torsions:
REMARK  status: ('A' for Active; 'I' for Inactive)
ROOT
ATOM      1  N   UNL d   1     -58.542 -98.759 -43.513  0.00  0.00    -0.219 NA
ATOM      2  C   UNL d   1     -59.372 -98.757 -43.486  0.00  0.00     0.215 A 
ATOM      3  S   UNL d   1     -59.653 -98.755 -44.267  0.00  0.00    -0.045 SA
ATOM      4  C   UNL d   1     -58.311 -98.757 -44.307  0.00  0.00     0.090 A 
ATOM      5  C   UNL d   1     -58.994 -98.755 -44.771  0.00  0.00     0.058 A 
ATOM      6  N   UNL d   1     -59.842 -98.758 -42.809  0.00  0.00    -0.120 N 
ATOM      7  C   UNL d   1     -57.537 -98.758 -44.578  0.00  0.00     0.021 C 
ENDROOT
TORSDOF 0
ENDMDL
