MODEL 1
REMARK VINA RESULT:       5.1      0.000      0.000
REMARK  5 active torsions:
REMARK  status: ('A' for Active; 'I' for Inactive)
REMARK    1  A    between atoms: C_8  and  C_1 
REMARK    2  A    between atoms: C_9  and  C_2 
REMARK    3  A    between atoms: S_6  and  C_4 
REMARK    4  A    between atoms: C_11  and  S_6 
REMARK    5  A    between atoms: C_7  and  C_11 
ROOT
ATOM      1  C   UNL d   1     -42.415-122.601 -50.816  0.00  0.00     0.107 A 
ATOM      2  C   UNL d   1     -41.680-122.770 -50.485  0.00  0.00     0.120 A 
ATOM      3  N   UNL d   1     -42.301-122.496 -51.625  0.00  0.00    -0.214 NA
ATOM      4  C   UNL d   1     -41.501-122.601 -51.780  0.00  0.00     0.215 A 
ATOM      5  O   UNL d   1     -41.123-122.771 -51.069  0.00  0.00    -0.283 OA
ENDROOT
BRANCH   1   6
ATOM      6  C   UNL d   1     -43.154-122.538 -50.448  0.00  0.00     0.020 A 
ATOM      7  C   UNL d   1     -43.516-121.783 -50.381  0.00  0.00     0.002 A 
ATOM      8  C   UNL d   1     -44.270-121.726 -50.003  0.00  0.00     0.000 A 
ATOM      9  C   UNL d   1     -44.631-122.399 -49.713  0.00  0.00     0.000 A 
ATOM     10  C   UNL d   1     -44.266-123.141 -49.784  0.00  0.00     0.000 A 
ATOM     11  C   UNL d   1     -43.528-123.213 -50.150  0.00  0.00     0.002 A 
ENDBRANCH   1   6
BRANCH   2  12
ATOM     12  C   UNL d   1     -41.508-122.919 -49.695  0.00  0.00     0.024 A 
ATOM     13  C   UNL d   1     -41.546-122.313 -49.133  0.00  0.00     0.002 A 
ATOM     14  C   UNL d   1     -41.375-122.454 -48.338  0.00  0.00     0.000 A 
ATOM     15  C   UNL d   1     -41.165-123.207 -48.109  0.00  0.00     0.000 A 
ATOM     16  C   UNL d   1     -41.125-123.817 -48.662  0.00  0.00     0.000 A 
ATOM     17  C   UNL d   1     -41.297-123.669 -49.452  0.00  0.00     0.002 A 
ENDBRANCH   2  12
BRANCH   4  18
ATOM     18  S   UNL d   1     -41.160-122.541 -52.535  0.00  0.00    -0.037 SA
BRANCH  18  19
ATOM     19  C   UNL d   1     -41.600-122.795 -53.204  0.00  0.00     0.103 C 
BRANCH  19  20
ATOM     20  C   UNL d   1     -41.499-122.418 -53.915  0.00  0.00     0.303 C 
ATOM     21  O   UNL d   1     -41.487-121.578 -53.951  0.00  0.00    -0.263 OA
ATOM     22  N   UNL d   1     -41.406-122.859 -54.610  0.00  0.00    -0.102 N 
ENDBRANCH  19  20
ENDBRANCH  18  19
ENDBRANCH   4  18
TORSDOF 5
ENDMDL
MODEL 2
REMARK VINA RESULT:       6.4      1.444      2.395
REMARK  5 active torsions:
REMARK  status: ('A' for Active; 'I' for Inactive)
REMARK    1  A    between atoms: C_8  and  C_1 
REMARK    2  A    between atoms: C_9  and  C_2 
REMARK    3  A    between atoms: S_6  and  C_4 
REMARK    4  A    between atoms: C_11  and  S_6 
REMARK    5  A    between atoms: C_7  and  C_11 
ROOT
ATOM      1  C   UNL d   1     -41.559-122.859 -51.740  0.00  0.00     0.107 A 
ATOM      2  C   UNL d   1     -41.313-122.130 -52.034  0.00  0.00     0.120 A 
ATOM      3  N   UNL d   1     -41.528-123.397 -52.362  0.00  0.00    -0.214 NA
ATOM      4  C   UNL d   1     -41.263-122.994 -53.028  0.00  0.00     0.215 A 
ATOM      5  O   UNL d   1     -41.132-122.209 -52.817  0.00  0.00    -0.283 OA
ENDROOT
BRANCH   1   6
ATOM      6  C   UNL d   1     -41.801-123.061 -50.974  0.00  0.00     0.020 A 
ATOM      7  C   UNL d   1     -42.607-122.961 -50.759  0.00  0.00     0.002 A 
ATOM      8  C   UNL d   1     -42.847-123.168 -49.977  0.00  0.00     0.000 A 
ATOM      9  C   UNL d   1     -42.298-123.460 -49.447  0.00  0.00     0.000 A 
ATOM     10  C   UNL d   1     -41.504-123.555 -49.668  0.00  0.00     0.000 A 
ATOM     11  C   UNL d   1     -41.253-123.356 -50.430  0.00  0.00     0.002 A 
ENDBRANCH   1   6
BRANCH   2  12
ATOM     12  C   UNL d   1     -41.249-121.419 -51.624  0.00  0.00     0.024 A 
ATOM     13  C   UNL d   1     -41.228-121.408 -50.798  0.00  0.00     0.002 A 
ATOM     14  C   UNL d   1     -41.164-120.699 -50.379  0.00  0.00     0.000 A 
ATOM     15  C   UNL d   1     -41.123-120.000 -50.796  0.00  0.00     0.000 A 
ATOM     16  C   UNL d   1     -41.143-120.002 -51.620  0.00  0.00     0.000 A 
ATOM     17  C   UNL d   1     -41.207-120.712 -52.029  0.00  0.00     0.002 A 
ENDBRANCH   2  12
BRANCH   4  18
ATOM     18  S   UNL d   1     -41.156-123.344 -53.774  0.00  0.00    -0.037 SA
BRANCH  18  19
ATOM     19  C   UNL d   1     -41.827-123.490 -54.257  0.00  0.00     0.103 C 
BRANCH  19  20
ATOM     20  C   UNL d   1     -41.841-123.206 -55.017  0.00  0.00     0.303 C 
ATOM     21  O   UNL d   1     -41.139-123.198 -55.480  0.00  0.00    -0.263 OA
ATOM     22  N   UNL d   1     -42.548-122.921 -55.342  0.00  0.00    -0.102 N 
ENDBRANCH  19  20
ENDBRANCH  18  19
ENDBRANCH   4  18
TORSDOF 5
ENDMDL
MODEL 3
REMARK VINA RESULT:       8.0      1.717      4.334
REMARK  5 active torsions:
REMARK  status: ('A' for Active; 'I' for Inactive)
REMARK    1  A    between atoms: C_8  and  C_1 
REMARK    2  A    between atoms: C_9  and  C_2 
REMARK    3  A    between atoms: S_6  and  C_4 
REMARK    4  A    between atoms: C_11  and  S_6 
REMARK    5  A    between atoms: C_7  and  C_11 
ROOT
ATOM      1  C   UNL d   1     -41.835-122.388 -52.478  0.00  0.00     0.107 A 
ATOM      2  C   UNL d   1     -41.810-123.151 -52.787  0.00  0.00     0.120 A 
ATOM      3  N   UNL d   1     -41.814-122.454 -51.658  0.00  0.00    -0.214 NA
ATOM      4  C   UNL d   1     -41.777-123.254 -51.474  0.00  0.00     0.215 A 
ATOM      5  O   UNL d   1     -41.774-123.680 -52.179  0.00  0.00    -0.283 OA
ENDROOT
BRANCH   1   6
ATOM      6  C   UNL d   1     -41.874-121.662 -52.877  0.00  0.00     0.020 A 
ATOM      7  C   UNL d   1     -42.625-121.348 -53.084  0.00  0.00     0.002 A 
ATOM      8  C   UNL d   1     -42.657-120.608 -53.490  0.00  0.00     0.000 A 
ATOM      9  C   UNL d   1     -41.966-120.214 -53.673  0.00  0.00     0.000 A 
ATOM     10  C   UNL d   1     -41.228-120.532 -53.464  0.00  0.00     0.000 A 
ATOM     11  C   UNL d   1     -41.179-121.255 -53.066  0.00  0.00     0.002 A 
ENDBRANCH   1   6
BRANCH   2  12
ATOM     12  C   UNL d   1     -41.817-123.372 -53.579  0.00  0.00     0.024 A 
ATOM     13  C   UNL d   1     -42.525-123.575 -53.954  0.00  0.00     0.002 A 
ATOM     14  C   UNL d   1     -42.543-123.798 -54.749  0.00  0.00     0.000 A 
ATOM     15  C   UNL d   1     -41.843-123.818 -55.166  0.00  0.00     0.000 A 
ATOM     16  C   UNL d   1     -41.132-123.617 -54.800  0.00  0.00     0.000 A 
ATOM     17  C   UNL d   1     -41.124-123.396 -54.009  0.00  0.00     0.002 A 
ENDBRANCH   2  12
BRANCH   4  18
ATOM     18  S   UNL d   1     -41.747-123.554 -50.699  0.00  0.00    -0.037 SA
BRANCH  18  19
ATOM     19  C   UNL d   1     -41.895-123.036 -50.055  0.00  0.00     0.103 C 
BRANCH  19  20
ATOM     20  C   UNL d   1     -42.180-123.338 -49.358  0.00  0.00     0.303 C 
ATOM     21  O   UNL d   1     -42.994-123.257 -49.162  0.00  0.00    -0.263 OA
ATOM     22  N   UNL d   1     -41.670-123.726 -48.834  0.00  0.00    -0.102 N 
ENDBRANCH  19  20
ENDBRANCH  18  19
ENDBRANCH   4  18
TORSDOF 5
ENDMDL
