MODEL 1
REMARK VINA RESULT:      12.2      0.000      0.000
REMARK  6 active torsions:
REMARK  status: ('A' for Active; 'I' for Inactive)
REMARK    1  A    between atoms: C_2  and  S_1 
REMARK    2  A    between atoms: N_3  and  S_1 
REMARK    3  A    between atoms: C_10  and  N_3 
REMARK    4  A    between atoms: O_15  and  C_5 
REMARK    5  A    between atoms: C_13  and  C_10 
REMARK    6  A    between atoms: C_17  and  O_15 
ROOT
ATOM      1  S   UNL d   1      45.767 -15.400  44.472  0.00  0.00     0.285 S 
ATOM      2  O   UNL d   1      46.515 -15.397  44.115  0.00  0.00    -0.198 OA
ATOM      3  O   UNL d   1      45.023 -15.403  44.828  0.00  0.00    -0.198 OA
ENDROOT
BRANCH   1   4
ATOM      4  C   UNL d   1      45.763 -14.575  44.472  0.00  0.00     0.107 A 
ATOM      5  C   UNL d   1      45.234 -14.164  43.986  0.00  0.00     0.038 A 
ATOM      6  C   UNL d   1      45.230 -13.331  43.986  0.00  0.00     0.111 A 
ATOM      7  C   UNL d   1      45.756 -12.916  44.472  0.00  0.00     0.081 A 
ATOM      8  C   UNL d   1      46.281 -13.326  44.955  0.00  0.00     0.014 A 
ATOM      9 CL   UNL d   1      45.752 -12.091  44.472  0.00  0.00    -0.080 Cl
ATOM     10  C   UNL d   1      46.285 -14.159  44.955  0.00  0.00     0.014 A 
BRANCH   6  11
ATOM     11  O   UNL d   1      44.704 -12.920  43.503  0.00  0.00    -0.304 OA
BRANCH  11  12
ATOM     12  C   UNL d   1      44.989 -12.353  42.978  0.00  0.00     0.123 C 
ATOM     13  C   UNL d   1      44.565 -12.181  42.293  0.00  0.00     0.029 C 
ENDBRANCH  11  12
ENDBRANCH   6  11
ENDBRANCH   1   4
BRANCH   1  14
ATOM     14  N   UNL d   1      45.770 -16.225  44.473  0.00  0.00    -0.155 NA
BRANCH  14  15
ATOM     15  C   UNL d   1      45.923 -16.636  43.772  0.00  0.00     0.131 C 
BRANCH  15  16
ATOM     16  C   UNL d   1      46.095 -17.443  43.798  0.00  0.00     0.101 A 
ATOM     17  N   UNL d   1      46.129 -17.835  44.522  0.00  0.00    -0.242 NA
ATOM     18  C   UNL d   1      46.301 -18.641  44.548  0.00  0.00     0.099 A 
ATOM     19  C   UNL d   1      46.438 -19.056  43.850  0.00  0.00     0.021 A 
ATOM     20  C   UNL d   1      46.404 -18.665  43.122  0.00  0.00     0.003 A 
ATOM     21  C   UNL d   1      46.233 -17.858  43.096  0.00  0.00     0.021 A 
ENDBRANCH  15  16
ENDBRANCH  14  15
ENDBRANCH   1  14
TORSDOF 6
ENDMDL
