MODEL 1
REMARK VINA RESULT:      38.5      0.000      0.000
REMARK  5 active torsions:
REMARK  status: ('A' for Active; 'I' for Inactive)
REMARK    1  A    between atoms: N_2  and  S_1 
REMARK    2  A    between atoms: C_4  and  S_1 
REMARK    3  A    between atoms: S_8  and  C_3 
REMARK    4  A    between atoms: C_18  and  S_8 
REMARK    5  A    between atoms: C_17  and  C_18 
ROOT
ATOM      1  N   UNL d   1      45.663 -16.820  44.035  0.00  0.00    -0.208 N 
ATOM      2  C   UNL d   1      46.080 -17.453  43.693  0.00  0.00     0.189 A 
ATOM      3  N   UNL d   1      46.618 -17.741  44.253  0.00  0.00    -0.219 NA
ATOM      4  C   UNL d   1      45.946 -16.719  44.811  0.00  0.00     0.114 A 
ATOM      5  C   UNL d   1      46.532 -17.286  44.941  0.00  0.00     0.121 A 
ENDROOT
BRANCH   1   6
ATOM      6  S   UNL d   1      45.071 -16.374  43.665  0.00  0.00     0.273 S 
ATOM      7  O   UNL d   1      44.405 -16.159  43.224  0.00  0.00    -0.200 OA
ATOM      8  O   UNL d   1      44.761 -17.079  43.391  0.00  0.00    -0.200 OA
BRANCH   6   9
ATOM      9  C   UNL d   1      45.371 -15.651  43.933  0.00  0.00     0.104 A 
ATOM     10  C   UNL d   1      44.893 -14.983  43.903  0.00  0.00     0.013 A 
ATOM     11  C   UNL d   1      45.196 -14.262  44.172  0.00  0.00     0.001 A 
ATOM     12  C   UNL d   1      44.719 -13.590  44.142  0.00  0.00     0.000 A 
ATOM     13  C   UNL d   1      45.965 -14.215  44.465  0.00  0.00     0.000 A 
ATOM     14  C   UNL d   1      45.010 -12.866  44.408  0.00  0.00     0.000 A 
ATOM     15  C   UNL d   1      45.784 -12.816  44.704  0.00  0.00     0.000 A 
ATOM     16  C   UNL d   1      46.257 -13.487  44.732  0.00  0.00     0.000 A 
ATOM     17  C   UNL d   1      46.442 -14.887  44.494  0.00  0.00     0.001 A 
ATOM     18  C   UNL d   1      46.138 -15.616  44.223  0.00  0.00     0.013 A 
ENDBRANCH   6   9
ENDBRANCH   1   6
BRANCH   2  19
ATOM     19  S   UNL d   1      45.975 -17.744  42.922  0.00  0.00    -0.049 SA
BRANCH  19  20
ATOM     20  C   UNL d   1      46.181 -18.525  42.747  0.00  0.00     0.040 C 
BRANCH  20  21
ATOM     21  C   UNL d   1      46.292 -18.752  41.964  0.00  0.00     0.026 A 
ATOM     22  C   UNL d   1      46.530 -18.185  41.393  0.00  0.00     0.099 A 
ATOM     23  N   UNL d   1      46.645 -18.395  40.608  0.00  0.00    -0.242 NA
ATOM     24  C   UNL d   1      46.522 -19.180  40.389  0.00  0.00     0.099 A 
ATOM     25  C   UNL d   1      46.289 -19.741  40.944  0.00  0.00     0.021 A 
ATOM     26  C   UNL d   1      46.174 -19.525  41.731  0.00  0.00     0.004 A 
ENDBRANCH  20  21
ENDBRANCH  19  20
ENDBRANCH   2  19
TORSDOF 5
ENDMDL
