MODEL 1
REMARK VINA RESULT:       4.6      0.000      0.000
REMARK  2 active torsions:
REMARK  status: ('A' for Active; 'I' for Inactive)
REMARK    1  A    between atoms: C_6  and  C_3 
REMARK    2  A    between atoms: C_9  and  C_6 
ROOT
ATOM      1  N   UNL d   1     -52.223  24.816  33.312  0.00  0.00    -0.225 NA
ATOM      2  N   UNL d   1     -51.164  23.997  33.306  0.00  0.00    -0.225 NA
ATOM      3  C   UNL d   1     -51.985  24.028  33.308  0.00  0.00     0.163 A 
ATOM      4  C   UNL d   1     -51.558  25.270  33.313  0.00  0.00     0.101 A 
ATOM      5  C   UNL d   1     -50.893  24.755  33.309  0.00  0.00     0.101 A 
ATOM      6  C   UNL d   1     -51.445  26.075  33.316  0.00  0.00     0.021 A 
ATOM      7  C   UNL d   1     -50.143  25.067  33.308  0.00  0.00     0.021 A 
ATOM      8  C   UNL d   1     -50.680  26.404  33.315  0.00  0.00     0.002 A 
ATOM      9  C   UNL d   1     -50.015  25.890  33.311  0.00  0.00     0.002 A 
ENDROOT
BRANCH   3  10
ATOM     10  C   UNL d   1     -52.490  23.376  33.307  0.00  0.00     0.039 C 
BRANCH  10  11
ATOM     11  C   UNL d   1     -53.190  23.387  33.734  0.00  0.00     0.003 C 
ATOM     12  C   UNL d   1     -53.907  23.193  33.374  0.00  0.00     0.000 C 
ENDBRANCH  10  11
ENDBRANCH   3  10
TORSDOF 2
ENDMDL
