MODEL 1
REMARK VINA RESULT:      -0.6      0.000      0.000
REMARK  3 active torsions:
REMARK  status: ('A' for Active; 'I' for Inactive)
REMARK    1  A    between atoms: C_6  and  N_1 
REMARK    2  A    between atoms: C_7  and  C_6 
REMARK    3  A    between atoms: C_8  and  C_7 
ROOT
ATOM      1  N   UNL d   1     -41.418-122.706 -51.378  0.00  0.00    -0.305 N 
ATOM      2  C   UNL d   1     -41.324-121.703 -51.220  0.00  0.00     0.064 A 
ATOM      3  C   UNL d   1     -41.268-121.678 -52.039  0.00  0.00     0.018 A 
ATOM      4  C   UNL d   1     -41.413-123.108 -52.097  0.00  0.00     0.064 A 
ATOM      5  C   UNL d   1     -41.314-122.388 -52.472  0.00  0.00     0.018 A 
ATOM      6  C   UNL d   1     -41.278-121.001 -50.790  0.00  0.00     0.018 A 
ATOM      7  C   UNL d   1     -41.169-120.973 -52.431  0.00  0.00     0.002 A 
ATOM      8  C   UNL d   1     -41.459-123.817 -52.530  0.00  0.00     0.018 A 
ATOM      9  C   UNL d   1     -41.258-122.361 -53.295  0.00  0.00     0.002 A 
ATOM     10  C   UNL d   1     -41.123-120.260 -51.995  0.00  0.00     0.000 A 
ATOM     11  C   UNL d   1     -41.178-120.277 -51.182  0.00  0.00     0.002 A 
ATOM     12  C   UNL d   1     -41.301-123.053 -53.742  0.00  0.00     0.000 A 
ATOM     13  C   UNL d   1     -41.400-123.770 -53.360  0.00  0.00     0.002 A 
ENDROOT
BRANCH   1  14
ATOM     14  C   UNL d   1     -41.509-123.143 -50.679  0.00  0.00     0.086 C 
BRANCH  14  15
ATOM     15  C   UNL d   1     -42.251-123.141 -50.288  0.00  0.00     0.089 C 
BRANCH  15  16
ATOM     16  C   UNL d   1     -42.313-123.487 -49.535  0.00  0.00     0.213 C 
ATOM     17  O   UNL d   1     -43.044-123.744 -49.271  0.00  0.00    -0.644 OA
ATOM     18  O   UNL d   1     -42.161-123.795 -48.777  0.00  0.00    -0.644 OA
ENDBRANCH  15  16
ENDBRANCH  14  15
ENDBRANCH   1  14
TORSDOF 3
ENDMDL
MODEL 2
REMARK VINA RESULT:      -0.6      0.141      2.236
REMARK  3 active torsions:
REMARK  status: ('A' for Active; 'I' for Inactive)
REMARK    1  A    between atoms: C_6  and  N_1 
REMARK    2  A    between atoms: C_7  and  C_6 
REMARK    3  A    between atoms: C_8  and  C_7 
ROOT
ATOM      1  N   UNL d   1     -41.467-122.646 -51.378  0.00  0.00    -0.305 N 
ATOM      2  C   UNL d   1     -41.469-123.162 -52.257  0.00  0.00     0.064 A 
ATOM      3  C   UNL d   1     -41.355-122.416 -52.581  0.00  0.00     0.018 A 
ATOM      4  C   UNL d   1     -41.375-121.836 -51.266  0.00  0.00     0.064 A 
ATOM      5  C   UNL d   1     -41.309-121.755 -52.077  0.00  0.00     0.018 A 
ATOM      6  C   UNL d   1     -41.514-123.816 -52.757  0.00  0.00     0.018 A 
ATOM      7  C   UNL d   1     -41.287-122.313 -53.385  0.00  0.00     0.002 A 
ATOM      8  C   UNL d   1     -41.330-121.175 -50.761  0.00  0.00     0.018 A 
ATOM      9  C   UNL d   1     -41.195-121.006 -52.404  0.00  0.00     0.002 A 
ATOM     10  C   UNL d   1     -41.333-122.978 -53.892  0.00  0.00     0.000 A 
ATOM     11  C   UNL d   1     -41.446-123.721 -53.578  0.00  0.00     0.002 A 
ATOM     12  C   UNL d   1     -41.147-120.339 -51.921  0.00  0.00     0.000 A 
ATOM     13  C   UNL d   1     -41.214-120.427 -51.109  0.00  0.00     0.002 A 
ENDROOT
BRANCH   1  14
ATOM     14  C   UNL d   1     -41.572-123.130 -50.713  0.00  0.00     0.086 C 
BRANCH  14  15
ATOM     15  C   UNL d   1     -42.296-123.095 -50.290  0.00  0.00     0.089 C 
BRANCH  15  16
ATOM     16  C   UNL d   1     -42.331-123.402 -49.519  0.00  0.00     0.213 C 
ATOM     17  O   UNL d   1     -43.054-123.620 -49.206  0.00  0.00    -0.644 OA
ATOM     18  O   UNL d   1     -42.150-123.677 -48.755  0.00  0.00    -0.644 OA
ENDBRANCH  15  16
ENDBRANCH  14  15
ENDBRANCH   1  14
TORSDOF 3
ENDMDL
MODEL 3
REMARK VINA RESULT:      -0.1      1.883      3.279
REMARK  3 active torsions:
REMARK  status: ('A' for Active; 'I' for Inactive)
REMARK    1  A    between atoms: C_6  and  N_1 
REMARK    2  A    between atoms: C_7  and  C_6 
REMARK    3  A    between atoms: C_8  and  C_7 
ROOT
ATOM      1  N   UNL d   1     -41.429-122.590 -51.872  0.00  0.00    -0.305 N 
ATOM      2  C   UNL d   1     -41.695-123.142 -51.057  0.00  0.00     0.064 A 
ATOM      3  C   UNL d   1     -41.692-122.411 -50.682  0.00  0.00     0.018 A 
ATOM      4  C   UNL d   1     -41.315-121.776 -51.916  0.00  0.00     0.064 A 
ATOM      5  C   UNL d   1     -41.500-121.730 -51.121  0.00  0.00     0.018 A 
ATOM      6  C   UNL d   1     -41.886-123.817 -50.623  0.00  0.00     0.018 A 
ATOM      7  C   UNL d   1     -41.873-122.344 -49.892  0.00  0.00     0.002 A 
ATOM      8  C   UNL d   1     -41.123-121.094 -52.354  0.00  0.00     0.018 A 
ATOM      9  C   UNL d   1     -41.497-120.996 -50.743  0.00  0.00     0.002 A 
ATOM     10  C   UNL d   1     -42.066-123.029 -49.452  0.00  0.00     0.000 A 
ATOM     11  C   UNL d   1     -42.071-123.758 -49.817  0.00  0.00     0.002 A 
ATOM     12  C   UNL d   1     -41.309-120.309 -51.160  0.00  0.00     0.000 A 
ATOM     13  C   UNL d   1     -41.125-120.362 -51.956  0.00  0.00     0.002 A 
ENDROOT
BRANCH   1  14
ATOM     14  C   UNL d   1     -41.323-123.045 -52.557  0.00  0.00     0.086 C 
BRANCH  14  15
ATOM     15  C   UNL d   1     -41.810-122.901 -53.224  0.00  0.00     0.089 C 
BRANCH  15  16
ATOM     16  C   UNL d   1     -41.672-123.325 -53.925  0.00  0.00     0.213 C 
ATOM     17  O   UNL d   1     -42.291-123.453 -54.445  0.00  0.00    -0.644 OA
ATOM     18  O   UNL d   1     -41.331-123.758 -54.549  0.00  0.00    -0.644 OA
ENDBRANCH  15  16
ENDBRANCH  14  15
ENDBRANCH   1  14
TORSDOF 3
ENDMDL
