MODEL 1
REMARK VINA RESULT:      63.5      0.000      0.000
REMARK  7 active torsions:
REMARK  status: ('A' for Active; 'I' for Inactive)
REMARK    1  A    between atoms: C_8  and  N_2 
REMARK    2  A    between atoms: C_13  and  C_8 
REMARK    3  A    between atoms: O_17  and  C_13 
REMARK    4  A    between atoms: O_18  and  C_15 
REMARK    5  A    between atoms: C_21  and  O_17 
REMARK    6  A    between atoms: C_23  and  C_21 
REMARK    7  A    between atoms: C_24  and  C_23 
ROOT
ATOM      1  C   UNL d   1      58.647  49.617  51.434  0.00  0.00     0.166 A 
ATOM      2  N   UNL d   1      59.254  49.628  51.983  0.00  0.00    -0.285 N 
ATOM      3  C   UNL d   1      58.984  49.534  50.683  0.00  0.00     0.117 A 
ATOM      4  C   UNL d   1      59.802  49.496  50.772  0.00  0.00     0.039 A 
ATOM      5  C   UNL d   1      59.972  49.554  51.578  0.00  0.00     0.067 A 
ATOM      6  N   UNL d   1      57.833  49.670  51.516  0.00  0.00    -0.225 NA
ATOM      7  N   UNL d   1      58.503  49.505  50.007  0.00  0.00    -0.241 NA
ATOM      8  C   UNL d   1      57.344  49.641  50.843  0.00  0.00     0.101 A 
ATOM      9  C   UNL d   1      57.681  49.558  50.092  0.00  0.00     0.099 A 
ATOM     10  C   UNL d   1      60.755  49.531  51.838  0.00  0.00     0.020 A 
ATOM     11  C   UNL d   1      60.414  49.415  50.226  0.00  0.00     0.027 A 
ATOM     12  C   UNL d   1      61.196  49.393  50.486  0.00  0.00     0.094 A 
ATOM     13  C   UNL d   1      61.368  49.451  51.291  0.00  0.00     0.026 A 
ATOM     14  C   UNL d   1      57.199  49.530  49.428  0.00  0.00     0.021 A 
ATOM     15  C   UNL d   1      56.529  49.694  50.930  0.00  0.00     0.021 A 
ATOM     16  C   UNL d   1      56.380  49.583  49.514  0.00  0.00     0.002 A 
ATOM     17  C   UNL d   1      56.039  49.666  50.265  0.00  0.00     0.002 A 
ENDROOT
BRANCH   2  18
ATOM     18  C   UNL d   1      59.169  49.702  52.798  0.00  0.00     0.151 C 
BRANCH  18  19
ATOM     19  C   UNL d   1      58.551  49.308  53.176  0.00  0.00     0.318 C 
ATOM     20  O   UNL d   1      57.986  48.900  52.742  0.00  0.00    -0.257 OA
BRANCH  19  21
ATOM     21  O   UNL d   1      58.501  49.326  53.997  0.00  0.00    -0.270 OA
BRANCH  21  22
ATOM     22  C   UNL d   1      57.816  49.600  54.359  0.00  0.00     0.126 C 
BRANCH  22  23
ATOM     23  C   UNL d   1      57.781  49.643  55.180  0.00  0.00     0.027 C 
BRANCH  23  24
ATOM     24  C   UNL d   1      57.346  49.083  55.603  0.00  0.00     0.002 C 
ATOM     25  C   UNL d   1      56.619  49.285  55.932  0.00  0.00     0.000 C 
ENDBRANCH  23  24
ENDBRANCH  22  23
ENDBRANCH  21  22
ENDBRANCH  19  21
ENDBRANCH  18  19
ENDBRANCH   2  18
BRANCH  12  26
ATOM     26  O   UNL d   1      61.804  49.312  49.940  0.00  0.00    -0.328 OA
ATOM     27  C   UNL d   1      62.193  48.599  49.860  0.00  0.00     0.181 C 
ENDBRANCH  12  26
TORSDOF 7
ENDMDL
