MODEL 1
REMARK VINA RESULT:      -8.3      0.000      0.000
REMARK  1 active torsions:
REMARK  status: ('A' for Active; 'I' for Inactive)
REMARK    1  A    between atoms: C_7  and  C_1 
ROOT
ATOM      1  C   UNL d   1     -47.056  12.491  23.209  0.00  0.00     0.122 A 
ATOM      2  C   UNL d   1     -48.131  12.727  22.282  0.00  0.00     0.057 A 
ATOM      3  C   UNL d   1     -48.640  12.285  22.760  0.00  0.00     0.085 A 
ATOM      4  C   UNL d   1     -47.343  12.830  22.505  0.00  0.00     0.204 A 
ATOM      5  N   UNL d   1     -48.345  11.949  23.464  0.00  0.00    -0.244 NA
ATOM      6  C   UNL d   1     -49.426  12.178  22.544  0.00  0.00     0.028 A 
ATOM      7  C   UNL d   1     -47.565  12.050  23.687  0.00  0.00     0.108 A 
ATOM      8  C   UNL d   1     -48.407  13.062  21.587  0.00  0.00     0.006 A 
ATOM      9  C   UNL d   1     -49.697  12.514  21.852  0.00  0.00     0.059 A 
ATOM     10  C   UNL d   1     -49.191  12.953  21.377  0.00  0.00     0.012 A 
ATOM     11  O   UNL d   1     -46.837  13.269  22.030  0.00  0.00    -0.286 OA
ATOM     12 CL   UNL d   1     -50.493  12.412  21.624  0.00  0.00    -0.082 Cl
ATOM     13  C   UNL d   1     -49.943  11.730  23.029  0.00  0.00     0.002 C 
ENDROOT
BRANCH   1  14
ATOM     14  C   UNL d   1     -46.259  12.602  23.424  0.00  0.00     0.216 C 
ATOM     15  O   UNL d   1     -45.992  13.337  23.697  0.00  0.00    -0.644 OA
ATOM     16  O   UNL d   1     -45.726  11.966  23.365  0.00  0.00    -0.644 OA
ENDBRANCH   1  14
TORSDOF 1
ENDMDL
MODEL 2
REMARK VINA RESULT:      -8.2      1.075      1.675
REMARK  1 active torsions:
REMARK  status: ('A' for Active; 'I' for Inactive)
REMARK    1  A    between atoms: C_7  and  C_1 
ROOT
ATOM      1  C   UNL d   1     -46.911  13.346  22.950  0.00  0.00     0.122 A 
ATOM      2  C   UNL d   1     -47.946  12.420  23.326  0.00  0.00     0.057 A 
ATOM      3  C   UNL d   1     -48.508  12.896  22.953  0.00  0.00     0.085 A 
ATOM      4  C   UNL d   1     -47.152  12.644  23.325  0.00  0.00     0.204 A 
ATOM      5  N   UNL d   1     -48.260  13.599  22.579  0.00  0.00    -0.244 NA
ATOM      6  C   UNL d   1     -49.302  12.680  22.950  0.00  0.00     0.028 A 
ATOM      7  C   UNL d   1     -47.473  13.823  22.576  0.00  0.00     0.108 A 
ATOM      8  C   UNL d   1     -48.176  11.727  23.698  0.00  0.00     0.006 A 
ATOM      9  C   UNL d   1     -49.526  11.990  23.321  0.00  0.00     0.059 A 
ATOM     10  C   UNL d   1     -48.967  11.517  23.692  0.00  0.00     0.012 A 
ATOM     11  O   UNL d   1     -46.593  12.170  23.697  0.00  0.00    -0.286 OA
ATOM     12 CL   UNL d   1     -50.329  11.761  23.324  0.00  0.00    -0.082 Cl
ATOM     13  C   UNL d   1     -49.872  13.163  22.571  0.00  0.00     0.002 C 
ENDROOT
BRANCH   1  14
ATOM     14  C   UNL d   1     -46.106  13.562  22.955  0.00  0.00     0.216 C 
ATOM     15  O   UNL d   1     -45.594  13.299  22.360  0.00  0.00    -0.644 OA
ATOM     16  O   UNL d   1     -45.816  14.046  23.564  0.00  0.00    -0.644 OA
ENDBRANCH   1  14
TORSDOF 1
ENDMDL
MODEL 3
REMARK VINA RESULT:      -8.1      2.317      3.159
REMARK  1 active torsions:
REMARK  status: ('A' for Active; 'I' for Inactive)
REMARK    1  A    between atoms: C_7  and  C_1 
ROOT
ATOM      1  C   UNL d   1     -49.064  14.597  22.902  0.00  0.00     0.122 A 
ATOM      2  C   UNL d   1     -47.725  14.069  22.884  0.00  0.00     0.057 A 
ATOM      3  C   UNL d   1     -48.011  13.336  23.135  0.00  0.00     0.085 A 
ATOM      4  C   UNL d   1     -48.248  14.696  22.768  0.00  0.00     0.204 A 
ATOM      5  N   UNL d   1     -48.829  13.244  23.268  0.00  0.00    -0.244 NA
ATOM      6  C   UNL d   1     -47.496  12.706  23.253  0.00  0.00     0.028 A 
ATOM      7  C   UNL d   1     -49.350  13.864  23.154  0.00  0.00     0.108 A 
ATOM      8  C   UNL d   1     -46.924  14.174  22.749  0.00  0.00     0.006 A 
ATOM      9  C   UNL d   1     -46.699  12.814  23.118  0.00  0.00     0.059 A 
ATOM     10  C   UNL d   1     -46.415  13.543  22.868  0.00  0.00     0.012 A 
ATOM     11  O   UNL d   1     -47.964  15.426  22.518  0.00  0.00    -0.286 OA
ATOM     12 CL   UNL d   1     -46.167  12.182  23.234  0.00  0.00    -0.082 Cl
ATOM     13  C   UNL d   1     -47.785  11.962  23.508  0.00  0.00     0.002 C 
ENDROOT
BRANCH   1  14
ATOM     14  C   UNL d   1     -49.583  15.238  22.782  0.00  0.00     0.216 C 
ATOM     15  O   UNL d   1     -49.955  15.350  22.051  0.00  0.00    -0.644 OA
ATOM     16  O   UNL d   1     -49.728  15.770  23.404  0.00  0.00    -0.644 OA
ENDBRANCH   1  14
TORSDOF 1
ENDMDL
MODEL 4
REMARK VINA RESULT:      -7.7      2.321      3.352
REMARK  1 active torsions:
REMARK  status: ('A' for Active; 'I' for Inactive)
REMARK    1  A    between atoms: C_7  and  C_1 
ROOT
ATOM      1  C   UNL d   1     -49.630  12.725  23.105  0.00  0.00     0.122 A 
ATOM      2  C   UNL d   1     -48.426  11.995  23.405  0.00  0.00     0.057 A 
ATOM      3  C   UNL d   1     -47.975  12.661  23.217  0.00  0.00     0.085 A 
ATOM      4  C   UNL d   1     -49.249  12.026  23.349  0.00  0.00     0.204 A 
ATOM      5  N   UNL d   1     -48.364  13.357  22.973  0.00  0.00    -0.244 NA
ATOM      6  C   UNL d   1     -47.155  12.637  23.270  0.00  0.00     0.028 A 
ATOM      7  C   UNL d   1     -49.179  13.391  22.917  0.00  0.00     0.108 A 
ATOM      8  C   UNL d   1     -48.058  11.304  23.646  0.00  0.00     0.006 A 
ATOM      9  C   UNL d   1     -46.793  11.948  23.511  0.00  0.00     0.059 A 
ATOM     10  C   UNL d   1     -47.241  11.286  23.697  0.00  0.00     0.012 A 
ATOM     11  O   UNL d   1     -49.697  11.363  23.536  0.00  0.00    -0.286 OA
ATOM     12 CL   UNL d   1     -45.961  11.913  23.568  0.00  0.00    -0.082 Cl
ATOM     13  C   UNL d   1     -46.697  13.313  23.079  0.00  0.00     0.002 C 
ENDROOT
BRANCH   1  14
ATOM     14  C   UNL d   1     -50.461  12.744  23.052  0.00  0.00     0.216 C 
ATOM     15  O   UNL d   1     -50.920  12.984  23.698  0.00  0.00    -0.644 OA
ATOM     16  O   UNL d   1     -50.832  12.520  22.343  0.00  0.00    -0.644 OA
ENDBRANCH   1  14
TORSDOF 1
ENDMDL
MODEL 5
REMARK VINA RESULT:      -7.4      2.218      2.654
REMARK  1 active torsions:
REMARK  status: ('A' for Active; 'I' for Inactive)
REMARK    1  A    between atoms: C_7  and  C_1 
ROOT
ATOM      1  C   UNL d   1     -48.493  12.252  22.985  0.00  0.00     0.122 A 
ATOM      2  C   UNL d   1     -49.361  13.370  23.244  0.00  0.00     0.057 A 
ATOM      3  C   UNL d   1     -48.799  13.882  22.921  0.00  0.00     0.085 A 
ATOM      4  C   UNL d   1     -49.209  12.560  23.277  0.00  0.00     0.204 A 
ATOM      5  N   UNL d   1     -48.084  13.566  22.631  0.00  0.00    -0.244 NA
ATOM      6  C   UNL d   1     -48.943  14.691  22.885  0.00  0.00     0.028 A 
ATOM      7  C   UNL d   1     -47.931  12.764  22.662  0.00  0.00     0.108 A 
ATOM      8  C   UNL d   1     -50.069  13.666  23.533  0.00  0.00     0.006 A 
ATOM      9  C   UNL d   1     -49.649  14.981  23.173  0.00  0.00     0.059 A 
ATOM     10  C   UNL d   1     -50.207  14.472  23.495  0.00  0.00     0.012 A 
ATOM     11  O   UNL d   1     -49.768  12.051  23.599  0.00  0.00    -0.286 OA
ATOM     12 CL   UNL d   1     -49.805  15.800  23.142  0.00  0.00    -0.082 Cl
ATOM     13  C   UNL d   1     -48.373  15.210  22.556  0.00  0.00     0.002 C 
ENDROOT
BRANCH   1  14
ATOM     14  C   UNL d   1     -48.350  11.432  23.023  0.00  0.00     0.216 C 
ATOM     15  O   UNL d   1     -48.010  11.093  23.698  0.00  0.00    -0.644 OA
ATOM     16  O   UNL d   1     -48.553  10.951  22.377  0.00  0.00    -0.644 OA
ENDBRANCH   1  14
TORSDOF 1
ENDMDL
