MODEL 1
REMARK VINA RESULT:      51.0      0.000      0.000
REMARK  6 active torsions:
REMARK  status: ('A' for Active; 'I' for Inactive)
REMARK       I    between atoms: C_8  and  N_1 
REMARK    1  A    between atoms: C_10  and  C_3 
REMARK    2  A    between atoms: C_4  and  S_14 
REMARK    3  A    between atoms: C_15  and  C_6 
REMARK    4  A    between atoms: C_16  and  C_8 
REMARK    5  A    between atoms: S_14  and  C_16 
REMARK    6  A    between atoms: O_26  and  C_23 
ROOT
ATOM      1  N   UNL d   1     -57.928 -98.764 -44.994  0.00  0.00    -0.195 N 
ATOM      2  N   UNL d   1     -58.040 -98.761 -45.791  0.00  0.00    -0.162 NA
ATOM      3  C   UNL d   1     -58.858 -98.763 -45.941  0.00  0.00     0.109 A 
ATOM      4  C   UNL d   1     -58.676 -98.768 -44.628  0.00  0.00     0.088 A 
ATOM      5  C   UNL d   1     -59.225 -98.767 -45.224  0.00  0.00     0.041 A 
ATOM      6  C   UNL d   1     -57.267 -98.764 -44.529  0.00  0.00     0.275 C 
ATOM      7  O   UNL d   1     -57.324 -98.768 -43.697  0.00  0.00    -0.266 OA
ENDROOT
BRANCH   4   8
ATOM      8  C   UNL d   1     -58.856 -98.772 -43.837  0.00  0.00     0.018 A 
ATOM      9  C   UNL d   1     -58.254 -98.757 -43.276  0.00  0.00     0.004 A 
ATOM     10  C   UNL d   1     -58.447 -98.761 -42.465  0.00  0.00     0.024 A 
ATOM     11  C   UNL d   1     -59.231 -98.779 -42.226  0.00  0.00     0.094 A 
ATOM     12  C   UNL d   1     -59.831 -98.794 -42.790  0.00  0.00     0.024 A 
ATOM     13  C   UNL d   1     -59.649 -98.791 -43.601  0.00  0.00     0.004 A 
BRANCH  11  14
ATOM     14  O   UNL d   1     -59.440 -98.784 -41.420  0.00  0.00    -0.328 OA
ATOM     15  C   UNL d   1     -59.961 -99.349 -41.121  0.00  0.00     0.181 C 
ENDBRANCH  11  14
ENDBRANCH   4   8
BRANCH   6  16
ATOM     16  C   UNL d   1     -56.508 -98.761 -44.882  0.00  0.00     0.128 C 
BRANCH  16  17
ATOM     17  S   UNL d   1     -55.846 -99.023 -44.455  0.00  0.00    -0.069 SA
BRANCH  17  18
ATOM     18  C   UNL d   1     -55.648 -99.831 -44.438  0.00  0.00     0.140 A 
ATOM     19  N   UNL d   1     -55.908-100.364 -43.872  0.00  0.00    -0.232 NA
ATOM     20  C   UNL d   1     -55.587-101.101 -44.056  0.00  0.00     0.088 A 
ATOM     21  C   UNL d   1     -55.657-101.839 -43.684  0.00  0.00     0.020 A 
ATOM     22  C   UNL d   1     -55.133-101.023 -44.731  0.00  0.00     0.049 A 
ATOM     23  C   UNL d   1     -55.267-102.498 -43.995  0.00  0.00     0.002 A 
ATOM     24  C   UNL d   1     -54.806-102.409 -44.685  0.00  0.00     0.001 A 
ATOM     25  C   UNL d   1     -54.744-101.672 -45.046  0.00  0.00     0.008 A 
ATOM     26  S   UNL d   1     -55.166-100.231 -44.977  0.00  0.00    -0.060 SA
ENDBRANCH  17  18
ENDBRANCH  16  17
ENDBRANCH   6  16
BRANCH   3  27
ATOM     27  C   UNL d   1     -59.197 -98.761 -46.694  0.00  0.00     0.049 A 
ATOM     28  S   UNL d   1     -59.955 -98.759 -46.989  0.00  0.00    -0.085 SA
ATOM     29  C   UNL d   1     -59.901 -98.758 -47.812  0.00  0.00     0.035 A 
ATOM     30  C   UNL d   1     -59.121 -98.760 -48.026  0.00  0.00     0.007 A 
ATOM     31  C   UNL d   1     -58.666 -98.762 -47.331  0.00  0.00     0.009 A 
ENDBRANCH   3  27
TORSDOF 6
ENDMDL
