MODEL 1
REMARK VINA RESULT:      -2.7      0.000      0.000
REMARK  5 active torsions:
REMARK  status: ('A' for Active; 'I' for Inactive)
REMARK    1  A    between atoms: N_5  and  C_1 
REMARK    2  A    between atoms: C_8  and  C_2 
REMARK       I    between atoms: C_7  and  N_5 
REMARK    3  A    between atoms: C_10  and  C_7 
REMARK    4  A    between atoms: O_12  and  C_8 
REMARK    5  A    between atoms: C_16  and  O_12 
ROOT
ATOM      1  C   UNL d   1      33.137  19.982 -22.188  0.00  0.00     0.114 A 
ATOM      2  C   UNL d   1      32.911  19.158 -23.206  0.00  0.00     0.094 A 
ATOM      3  S   UNL d   1      32.933  19.933 -22.984  0.00  0.00    -0.062 SA
ATOM      4  C   UNL d   1      33.110  18.719 -22.516  0.00  0.00     0.013 A 
ATOM      5  C   UNL d   1      33.241  19.215 -21.924  0.00  0.00     0.027 A 
ATOM      6  C   UNL d   1      33.161  17.894 -22.464  0.00  0.00     0.001 C 
ENDROOT
BRANCH   1   7
ATOM      7  N   UNL d   1      33.227  20.693 -21.716  0.00  0.00    -0.201 NA
ATOM      8  C   UNL d   1      32.570  21.027 -21.358  0.00  0.00     0.280 C 
ATOM      9  O   UNL d   1      31.828  20.690 -21.444  0.00  0.00    -0.265 OA
BRANCH   8  10
ATOM     10  C   UNL d   1      32.655  21.704 -20.909  0.00  0.00     0.058 A 
ATOM     11  C   UNL d   1      32.463  22.440 -21.210  0.00  0.00     0.005 A 
ATOM     12  C   UNL d   1      32.545  23.131 -20.766  0.00  0.00     0.000 A 
ATOM     13  C   UNL d   1      32.832  23.064 -19.992  0.00  0.00     0.000 A 
ATOM     14  C   UNL d   1      33.030  22.330 -19.675  0.00  0.00     0.000 A 
ATOM     15  C   UNL d   1      32.944  21.647 -20.128  0.00  0.00     0.005 A 
ENDBRANCH   8  10
ENDBRANCH   1   7
BRANCH   2  16
ATOM     16  C   UNL d   1      32.729  18.851 -23.960  0.00  0.00     0.306 C 
ATOM     17  O   UNL d   1      33.241  19.010 -24.575  0.00  0.00    -0.258 OA
BRANCH  16  18
ATOM     18  O   UNL d   1      32.059  18.400 -24.090  0.00  0.00    -0.271 OA
BRANCH  18  19
ATOM     19  C   UNL d   1      31.857  18.163 -24.851  0.00  0.00     0.126 C 
ATOM     20  C   UNL d   1      31.059  18.050 -25.035  0.00  0.00     0.029 C 
ENDBRANCH  18  19
ENDBRANCH  16  18
ENDBRANCH   2  16
TORSDOF 5
ENDMDL
MODEL 2
REMARK VINA RESULT:      -2.6      1.155      1.506
REMARK  5 active torsions:
REMARK  status: ('A' for Active; 'I' for Inactive)
REMARK    1  A    between atoms: N_5  and  C_1 
REMARK    2  A    between atoms: C_8  and  C_2 
REMARK       I    between atoms: C_7  and  N_5 
REMARK    3  A    between atoms: C_10  and  C_7 
REMARK    4  A    between atoms: O_12  and  C_8 
REMARK    5  A    between atoms: C_16  and  O_12 
ROOT
ATOM      1  C   UNL d   1      33.063  19.409 -22.938  0.00  0.00     0.114 A 
ATOM      2  C   UNL d   1      32.753  18.287 -23.581  0.00  0.00     0.094 A 
ATOM      3  S   UNL d   1      32.878  18.611 -22.853  0.00  0.00    -0.062 SA
ATOM      4  C   UNL d   1      32.867  18.915 -24.130  0.00  0.00     0.013 A 
ATOM      5  C   UNL d   1      33.049  19.569 -23.740  0.00  0.00     0.027 A 
ATOM      6  C   UNL d   1      32.799  18.857 -24.954  0.00  0.00     0.001 C 
ENDROOT
BRANCH   1   7
ATOM      7  N   UNL d   1      33.238  19.973 -22.315  0.00  0.00    -0.201 NA
ATOM      8  C   UNL d   1      32.628  20.403 -21.977  0.00  0.00     0.280 C 
ATOM      9  O   UNL d   1      31.855  20.303 -22.225  0.00  0.00    -0.265 OA
BRANCH   8  10
ATOM     10  C   UNL d   1      32.795  20.940 -21.383  0.00  0.00     0.058 A 
ATOM     11  C   UNL d   1      32.695  21.744 -21.498  0.00  0.00     0.005 A 
ATOM     12  C   UNL d   1      32.860  22.296 -20.906  0.00  0.00     0.000 A 
ATOM     13  C   UNL d   1      33.135  22.014 -20.178  0.00  0.00     0.000 A 
ATOM     14  C   UNL d   1      33.241  21.207 -20.047  0.00  0.00     0.000 A 
ATOM     15  C   UNL d   1      33.073  20.666 -20.646  0.00  0.00     0.005 A 
ENDBRANCH   8  10
ENDBRANCH   1   7
BRANCH   2  16
ATOM     16  C   UNL d   1      32.554  17.498 -23.759  0.00  0.00     0.306 C 
ATOM     17  O   UNL d   1      33.059  17.069 -24.236  0.00  0.00    -0.258 OA
BRANCH  16  18
ATOM     18  O   UNL d   1      31.872  17.151 -23.468  0.00  0.00    -0.271 OA
BRANCH  18  19
ATOM     19  C   UNL d   1      31.680  16.377 -23.667  0.00  0.00     0.126 C 
ATOM     20  C   UNL d   1      31.060  16.003 -23.266  0.00  0.00     0.029 C 
ENDBRANCH  18  19
ENDBRANCH  16  18
ENDBRANCH   2  16
TORSDOF 5
ENDMDL
MODEL 3
REMARK VINA RESULT:      -2.0      1.404      4.507
REMARK  5 active torsions:
REMARK  status: ('A' for Active; 'I' for Inactive)
REMARK    1  A    between atoms: N_5  and  C_1 
REMARK    2  A    between atoms: C_8  and  C_2 
REMARK       I    between atoms: C_7  and  N_5 
REMARK    3  A    between atoms: C_10  and  C_7 
REMARK    4  A    between atoms: O_12  and  C_8 
REMARK    5  A    between atoms: C_16  and  O_12 
ROOT
ATOM      1  C   UNL d   1      33.187  19.806 -22.434  0.00  0.00     0.114 A 
ATOM      2  C   UNL d   1      33.077  21.035 -21.937  0.00  0.00     0.094 A 
ATOM      3  S   UNL d   1      33.085  20.602 -22.618  0.00  0.00    -0.062 SA
ATOM      4  C   UNL d   1      33.177  20.477 -21.314  0.00  0.00     0.013 A 
ATOM      5  C   UNL d   1      33.241  19.759 -21.619  0.00  0.00     0.027 A 
ATOM      6  C   UNL d   1      33.205  20.655 -20.506  0.00  0.00     0.001 C 
ENDROOT
BRANCH   1   7
ATOM      7  N   UNL d   1      33.230  19.146 -22.980  0.00  0.00    -0.201 NA
ATOM      8  C   UNL d   1      32.553  18.715 -23.146  0.00  0.00     0.280 C 
ATOM      9  O   UNL d   1      31.837  18.905 -22.798  0.00  0.00    -0.265 OA
BRANCH   8  10
ATOM     10  C   UNL d   1      32.594  18.086 -23.667  0.00  0.00     0.058 A 
ATOM     11  C   UNL d   1      32.991  18.150 -24.380  0.00  0.00     0.005 A 
ATOM     12  C   UNL d   1      33.039  17.523 -24.914  0.00  0.00     0.000 A 
ATOM     13  C   UNL d   1      32.670  16.810 -24.711  0.00  0.00     0.000 A 
ATOM     14  C   UNL d   1      32.267  16.730 -23.996  0.00  0.00     0.000 A 
ATOM     15  C   UNL d   1      32.226  17.364 -23.471  0.00  0.00     0.005 A 
ENDBRANCH   8  10
ENDBRANCH   1   7
BRANCH   2  16
ATOM     16  C   UNL d   1      32.987  21.860 -21.861  0.00  0.00     0.306 C 
ATOM     17  O   UNL d   1      32.692  22.154 -21.158  0.00  0.00    -0.258 OA
BRANCH  16  18
ATOM     18  O   UNL d   1      33.186  22.372 -22.467  0.00  0.00    -0.271 OA
BRANCH  18  19
ATOM     19  C   UNL d   1      32.930  23.154 -22.454  0.00  0.00     0.126 C 
ATOM     20  C   UNL d   1      33.098  23.639 -23.102  0.00  0.00     0.029 C 
ENDBRANCH  18  19
ENDBRANCH  16  18
ENDBRANCH   2  16
TORSDOF 5
ENDMDL
MODEL 4
REMARK VINA RESULT:      -1.8      1.127      1.649
REMARK  5 active torsions:
REMARK  status: ('A' for Active; 'I' for Inactive)
REMARK    1  A    between atoms: N_5  and  C_1 
REMARK    2  A    between atoms: C_8  and  C_2 
REMARK       I    between atoms: C_7  and  N_5 
REMARK    3  A    between atoms: C_10  and  C_7 
REMARK    4  A    between atoms: O_12  and  C_8 
REMARK    5  A    between atoms: C_16  and  O_12 
ROOT
ATOM      1  C   UNL d   1      33.039  18.675 -22.917  0.00  0.00     0.114 A 
ATOM      2  C   UNL d   1      32.592  17.744 -23.754  0.00  0.00     0.094 A 
ATOM      3  S   UNL d   1      32.681  18.538 -23.646  0.00  0.00    -0.062 SA
ATOM      4  C   UNL d   1      32.909  17.384 -23.062  0.00  0.00     0.013 A 
ATOM      5  C   UNL d   1      33.169  17.942 -22.578  0.00  0.00     0.027 A 
ATOM      6  C   UNL d   1      32.945  16.571 -22.912  0.00  0.00     0.001 C 
ENDROOT
BRANCH   1   7
ATOM      7  N   UNL d   1      33.241  19.433 -22.570  0.00  0.00    -0.201 NA
ATOM      8  C   UNL d   1      32.657  19.881 -22.209  0.00  0.00     0.280 C 
ATOM      9  O   UNL d   1      31.884  19.614 -22.174  0.00  0.00    -0.265 OA
BRANCH   8  10
ATOM     10  C   UNL d   1      32.850  20.603 -21.878  0.00  0.00     0.058 A 
ATOM     11  C   UNL d   1      32.889  20.702 -21.066  0.00  0.00     0.005 A 
ATOM     12  C   UNL d   1      33.083  21.426 -20.721  0.00  0.00     0.000 A 
ATOM     13  C   UNL d   1      33.240  22.066 -21.222  0.00  0.00     0.000 A 
ATOM     14  C   UNL d   1      33.204  21.983 -22.041  0.00  0.00     0.000 A 
ATOM     15  C   UNL d   1      33.010  21.253 -22.375  0.00  0.00     0.005 A 
ENDBRANCH   8  10
ENDBRANCH   1   7
BRANCH   2  16
ATOM     16  C   UNL d   1      32.257  17.355 -24.412  0.00  0.00     0.306 C 
ATOM     17  O   UNL d   1      32.699  17.303 -25.096  0.00  0.00    -0.258 OA
BRANCH  16  18
ATOM     18  O   UNL d   1      31.506  17.031 -24.383  0.00  0.00    -0.271 OA
BRANCH  18  19
ATOM     19  C   UNL d   1      31.055  16.964 -25.067  0.00  0.00     0.126 C 
ATOM     20  C   UNL d   1      30.255  16.763 -24.998  0.00  0.00     0.029 C 
ENDBRANCH  18  19
ENDBRANCH  16  18
ENDBRANCH   2  16
TORSDOF 5
ENDMDL
MODEL 5
REMARK VINA RESULT:      -1.0      2.259      3.924
REMARK  5 active torsions:
REMARK  status: ('A' for Active; 'I' for Inactive)
REMARK    1  A    between atoms: N_5  and  C_1 
REMARK    2  A    between atoms: C_8  and  C_2 
REMARK       I    between atoms: C_7  and  N_5 
REMARK    3  A    between atoms: C_10  and  C_7 
REMARK    4  A    between atoms: O_12  and  C_8 
REMARK    5  A    between atoms: C_16  and  O_12 
ROOT
ATOM      1  C   UNL d   1      32.761  22.963 -19.919  0.00  0.00     0.114 A 
ATOM      2  C   UNL d   1      32.765  22.303 -21.073  0.00  0.00     0.094 A 
ATOM      3  S   UNL d   1      32.966  22.259 -20.293  0.00  0.00    -0.062 SA
ATOM      4  C   UNL d   1      32.424  23.066 -21.175  0.00  0.00     0.013 A 
ATOM      5  C   UNL d   1      32.427  23.444 -20.490  0.00  0.00     0.027 A 
ATOM      6  C   UNL d   1      32.130  23.373 -21.886  0.00  0.00     0.001 C 
ENDROOT
BRANCH   1   7
ATOM      7  N   UNL d   1      32.871  23.165 -19.092  0.00  0.00    -0.201 NA
ATOM      8  C   UNL d   1      32.326  22.906 -18.537  0.00  0.00     0.280 C 
ATOM      9  O   UNL d   1      31.678  22.458 -18.761  0.00  0.00    -0.265 OA
BRANCH   8  10
ATOM     10  C   UNL d   1      32.430  23.099 -17.750  0.00  0.00     0.058 A 
ATOM     11  C   UNL d   1      33.124  22.913 -17.356  0.00  0.00     0.005 A 
ATOM     12  C   UNL d   1      33.241  23.102 -16.561  0.00  0.00     0.000 A 
ATOM     13  C   UNL d   1      32.630  23.492 -16.160  0.00  0.00     0.000 A 
ATOM     14  C   UNL d   1      31.926  23.685 -16.542  0.00  0.00     0.000 A 
ATOM     15  C   UNL d   1      31.821  23.491 -17.337  0.00  0.00     0.005 A 
ENDBRANCH   8  10
ENDBRANCH   1   7
BRANCH   2  16
ATOM     16  C   UNL d   1      32.871  21.719 -21.658  0.00  0.00     0.306 C 
ATOM     17  O   UNL d   1      33.118  21.955 -22.400  0.00  0.00    -0.258 OA
BRANCH  16  18
ATOM     18  O   UNL d   1      32.734  20.927 -21.506  0.00  0.00    -0.271 OA
BRANCH  18  19
ATOM     19  C   UNL d   1      33.003  20.349 -22.024  0.00  0.00     0.126 C 
ATOM     20  C   UNL d   1      33.208  19.606 -21.723  0.00  0.00     0.029 C 
ENDBRANCH  18  19
ENDBRANCH  16  18
ENDBRANCH   2  16
TORSDOF 5
ENDMDL
