MODEL 1
REMARK VINA RESULT:      61.6      0.000      0.000
REMARK  8 active torsions:
REMARK  status: ('A' for Active; 'I' for Inactive)
REMARK    1  A    between atoms: N_3  and  C_1 
REMARK    2  A    between atoms: C_20  and  N_2 
REMARK       I    between atoms: C_7  and  N_3 
REMARK    3  A    between atoms: C_10  and  C_7 
REMARK    4  A    between atoms: C_9  and  C_10 
REMARK    5  A    between atoms: C_15  and  C_9 
REMARK       I    between atoms: C_12  and  N_13 
REMARK    6  A    between atoms: N_13  and  C_14 
REMARK    7  A    between atoms: C_26  and  C_20 
REMARK    8  A    between atoms: O_22  and  C_26 
ROOT
ATOM      1  C   UNL d   1     -50.483  26.331  33.316  0.00  0.00     0.182 A 
ATOM      2  N   UNL d   1     -50.347  25.521  33.325  0.00  0.00    -0.283 N 
ATOM      3  S   UNL d   1     -51.299  26.451  33.310  0.00  0.00    -0.048 SA
ATOM      4  C   UNL d   1     -51.667  25.709  33.316  0.00  0.00     0.050 A 
ATOM      5  C   UNL d   1     -51.076  25.132  33.324  0.00  0.00     0.072 A 
ATOM      6  C   UNL d   1     -52.461  25.486  33.313  0.00  0.00     0.027 A 
ATOM      7  C   UNL d   1     -51.279  24.333  33.331  0.00  0.00     0.020 A 
ATOM      8  C   UNL d   1     -52.664  24.688  33.320  0.00  0.00     0.085 A 
ATOM      9  C   UNL d   1     -52.073  24.111  33.329  0.00  0.00     0.021 A 
ENDROOT
BRANCH   1  10
ATOM     10  N   UNL d   1     -49.900  26.916  33.314  0.00  0.00    -0.184 NA
ATOM     11  C   UNL d   1     -49.677  27.270  34.023  0.00  0.00     0.281 C 
ATOM     12  O   UNL d   1     -50.036  27.038  34.729  0.00  0.00    -0.265 OA
BRANCH  11  13
ATOM     13  C   UNL d   1     -49.095  27.856  34.029  0.00  0.00     0.063 C 
BRANCH  13  14
ATOM     14  C   UNL d   1     -49.206  28.544  34.464  0.00  0.00     0.006 C 
BRANCH  14  15
ATOM     15  C   UNL d   1     -48.591  28.879  34.887  0.00  0.00     0.011 A 
ATOM     16  C   UNL d   1     -48.429  29.690  34.811  0.00  0.00     0.058 A 
ATOM     17 CL   UNL d   1     -48.896  30.158  34.301  0.00  0.00    -0.082 Cl
ATOM     18  C   UNL d   1     -47.798  30.033  35.245  0.00  0.00     0.011 A 
ATOM     19  C   UNL d   1     -47.339  29.582  35.745  0.00  0.00     0.001 A 
ATOM     20  C   UNL d   1     -47.498  28.772  35.823  0.00  0.00     0.000 A 
ATOM     21  C   UNL d   1     -48.122  28.429  35.394  0.00  0.00     0.001 A 
ENDBRANCH  14  15
ENDBRANCH  13  14
ENDBRANCH  11  13
ENDBRANCH   1  10
BRANCH   2  22
ATOM     22  C   UNL d   1     -49.607  25.149  33.332  0.00  0.00     0.108 C 
BRANCH  22  23
ATOM     23  C   UNL d   1     -49.552  24.328  33.306  0.00  0.00     0.135 C 
BRANCH  23  24
ATOM     24  O   UNL d   1     -48.819  23.960  33.364  0.00  0.00    -0.325 OA
ATOM     25  C   UNL d   1     -48.392  23.980  34.075  0.00  0.00     0.182 C 
ENDBRANCH  23  24
ENDBRANCH  22  23
ENDBRANCH   2  22
BRANCH   8  26
ATOM     26  N   UNL d   1     -53.470  24.460  33.318  0.00  0.00    -0.208 NA
ATOM     27  C   UNL d   1     -54.052  25.033  33.312  0.00  0.00     0.279 C 
ATOM     28  O   UNL d   1     -54.846  24.808  33.310  0.00  0.00    -0.265 OA
ATOM     29  C   UNL d   1     -53.859  25.836  33.308  0.00  0.00     0.068 C 
ENDBRANCH   8  26
TORSDOF 8
ENDMDL
