MODEL 1
REMARK VINA RESULT:      14.6      0.000      0.000
REMARK  4 active torsions:
REMARK  status: ('A' for Active; 'I' for Inactive)
REMARK    1  A    between atoms: C_9  and  C_3 
REMARK    2  A    between atoms: C_11  and  C_8 
REMARK    3  A    between atoms: N_10  and  C_11 
REMARK    4  A    between atoms: C_18  and  N_10 
ROOT
ATOM      1  N   UNL d   1      46.318 -18.384  43.824  0.00  0.00    -0.267 N 
ATOM      2  C   UNL d   1      46.238 -18.446  44.642  0.00  0.00     0.201 A 
ATOM      3  C   UNL d   1      46.339 -19.152  43.513  0.00  0.00     0.171 A 
ATOM      4  N   UNL d   1      46.273 -19.676  44.140  0.00  0.00    -0.128 NA
ATOM      5  N   UNL d   1      46.210 -19.240  44.836  0.00  0.00    -0.121 NA
ATOM      6  S   UNL d   1      46.216 -17.678  44.953  0.00  0.00    -0.045 SA
ATOM      7  C   UNL d   1      46.345 -17.583  43.625  0.00  0.00     0.091 A 
ATOM      8  C   UNL d   1      46.283 -17.147  44.322  0.00  0.00     0.069 A 
ENDROOT
BRANCH   3   9
ATOM      9  C   UNL d   1      46.415 -19.345  42.710  0.00  0.00     0.036 A 
ATOM     10  C   UNL d   1      46.557 -20.128  42.493  0.00  0.00     0.004 A 
ATOM     11  C   UNL d   1      46.634 -20.329  41.695  0.00  0.00     0.007 A 
ATOM     12  C   UNL d   1      46.566 -19.741  41.120  0.00  0.00     0.035 A 
ATOM     13  C   UNL d   1      46.425 -18.963  41.331  0.00  0.00     0.007 A 
ATOM     14 BR   UNL d   1      46.641 -19.930  40.325  0.00  0.00    -0.049 Br
ATOM     15  C   UNL d   1      46.350 -18.770  42.133  0.00  0.00     0.004 A 
ENDBRANCH   3   9
BRANCH   8  16
ATOM     16  C   UNL d   1      46.286 -16.328  44.386  0.00  0.00     0.107 C 
BRANCH  16  17
ATOM     17  N   UNL d   1      45.679 -15.947  44.803  0.00  0.00    -0.243 NA
BRANCH  17  18
ATOM     18  C   UNL d   1      45.592 -15.125  44.751  0.00  0.00     0.081 A 
ATOM     19  C   UNL d   1      44.805 -14.889  44.691  0.00  0.00     0.019 A 
ATOM     20  C   UNL d   1      44.805 -14.060  44.643  0.00  0.00     0.002 A 
ATOM     21  C   UNL d   1      45.590 -13.799  44.674  0.00  0.00     0.002 A 
ATOM     22  C   UNL d   1      46.077 -14.457  44.741  0.00  0.00     0.019 A 
ENDBRANCH  17  18
ENDBRANCH  16  17
ENDBRANCH   8  16
TORSDOF 4
ENDMDL
