MODEL 1
REMARK VINA RESULT:      -6.4      0.000      0.000
REMARK  7 active torsions:
REMARK  status: ('A' for Active; 'I' for Inactive)
REMARK    1  A    between atoms: N_4  and  S_1 
REMARK    2  A    between atoms: C_8  and  S_1 
REMARK    3  A    between atoms: N_2  and  C_3 
REMARK    4  A    between atoms: C_3  and  C_6 
REMARK    5  A    between atoms: C_7  and  C_3 
REMARK    6  A    between atoms: C_6  and  N_4 
REMARK    7  A    between atoms: C_17  and  N_5 
ROOT
ATOM      1  C   UNL d   1     -47.331  12.962  23.188  0.00  0.00     0.107 C 
ENDROOT
BRANCH   1   2
ATOM      2  N   UNL d   1     -46.674  12.463  23.213  0.00  0.00    -0.298 N 
ATOM      3  C   UNL d   1     -45.994  12.653  22.786  0.00  0.00     0.100 A 
ATOM      4  C   UNL d   1     -45.337  12.154  22.811  0.00  0.00     0.100 A 
ATOM      5  N   UNL d   1     -45.361  11.464  23.263  0.00  0.00    -0.301 N 
ATOM      6  C   UNL d   1     -46.041  11.277  23.688  0.00  0.00     0.100 A 
ATOM      7  C   UNL d   1     -46.698  11.773  23.665  0.00  0.00     0.100 A 
BRANCH   5   8
ATOM      8  C   UNL d   1     -44.708  10.970  23.286  0.00  0.00     0.064 A 
ATOM      9  C   UNL d   1     -43.987  11.223  22.993  0.00  0.00     0.018 A 
ATOM     10  C   UNL d   1     -43.329  10.728  23.016  0.00  0.00     0.002 A 
ATOM     11  C   UNL d   1     -43.399   9.971  23.336  0.00  0.00     0.000 A 
ATOM     12  C   UNL d   1     -44.125   9.713  23.633  0.00  0.00     0.002 A 
ATOM     13  C   UNL d   1     -44.778  10.213  23.607  0.00  0.00     0.018 A 
ENDBRANCH   5   8
ENDBRANCH   1   2
BRANCH   1  14
ATOM     14  C   UNL d   1     -48.073  12.706  23.447  0.00  0.00     0.132 C 
BRANCH  14  15
ATOM     15  N   UNL d   1     -48.678  12.568  22.881  0.00  0.00    -0.155 NA
BRANCH  15  16
ATOM     16  S   UNL d   1     -49.351  12.150  23.097  0.00  0.00     0.285 S 
ATOM     17  O   UNL d   1     -50.035  11.735  23.307  0.00  0.00    -0.198 OA
ATOM     18  O   UNL d   1     -48.923  11.759  23.691  0.00  0.00    -0.198 OA
BRANCH  16  19
ATOM     19  C   UNL d   1     -49.775  12.545  22.501  0.00  0.00     0.105 A 
ATOM     20  C   UNL d   1     -49.674  12.331  21.711  0.00  0.00     0.015 A 
ATOM     21  C   UNL d   1     -50.092  12.718  21.112  0.00  0.00     0.030 A 
ATOM     22  C   UNL d   1     -50.620  13.330  21.320  0.00  0.00     0.140 A 
ATOM     23  C   UNL d   1     -50.720  13.544  22.110  0.00  0.00     0.030 A 
ATOM     24  F   UNL d   1     -51.047  13.727  20.718  0.00  0.00    -0.204 F 
ATOM     25  C   UNL d   1     -50.298  13.151  22.700  0.00  0.00     0.015 A 
ENDBRANCH  16  19
ENDBRANCH  15  16
ENDBRANCH  14  15
ENDBRANCH   1  14
BRANCH   1  26
ATOM     26  C   UNL d   1     -47.248  13.744  22.896  0.00  0.00     0.118 A 
ATOM     27  O   UNL d   1     -47.422  14.388  23.376  0.00  0.00    -0.304 OA
ATOM     28  C   UNL d   1     -47.288  15.079  22.937  0.00  0.00     0.123 A 
ATOM     29  C   UNL d   1     -47.034  14.859  22.195  0.00  0.00     0.029 A 
ATOM     30  C   UNL d   1     -47.009  14.033  22.166  0.00  0.00     0.028 A 
ENDBRANCH   1  26
TORSDOF 7
ENDMDL
MODEL 2
REMARK VINA RESULT:      -5.3      1.359      1.667
REMARK  7 active torsions:
REMARK  status: ('A' for Active; 'I' for Inactive)
REMARK    1  A    between atoms: N_4  and  S_1 
REMARK    2  A    between atoms: C_8  and  S_1 
REMARK    3  A    between atoms: N_2  and  C_3 
REMARK    4  A    between atoms: C_3  and  C_6 
REMARK    5  A    between atoms: C_7  and  C_3 
REMARK    6  A    between atoms: C_6  and  N_4 
REMARK    7  A    between atoms: C_17  and  N_5 
ROOT
ATOM      1  C   UNL d   1     -47.279  13.635  22.795  0.00  0.00     0.107 C 
ENDROOT
BRANCH   1   2
ATOM      2  N   UNL d   1     -46.503  13.469  22.567  0.00  0.00    -0.298 N 
ATOM      3  C   UNL d   1     -46.308  13.418  21.767  0.00  0.00     0.100 A 
ATOM      4  C   UNL d   1     -45.532  13.252  21.540  0.00  0.00     0.100 A 
ATOM      5  N   UNL d   1     -44.951  13.137  22.113  0.00  0.00    -0.301 N 
ATOM      6  C   UNL d   1     -45.149  13.188  22.911  0.00  0.00     0.100 A 
ATOM      7  C   UNL d   1     -45.921  13.353  23.141  0.00  0.00     0.100 A 
BRANCH   5   8
ATOM      8  C   UNL d   1     -44.181  12.972  21.887  0.00  0.00     0.064 A 
ATOM      9  C   UNL d   1     -43.764  13.505  21.425  0.00  0.00     0.018 A 
ATOM     10  C   UNL d   1     -42.990  13.342  21.196  0.00  0.00     0.002 A 
ATOM     11  C   UNL d   1     -42.633  12.637  21.434  0.00  0.00     0.000 A 
ATOM     12  C   UNL d   1     -43.052  12.098  21.899  0.00  0.00     0.002 A 
ATOM     13  C   UNL d   1     -43.825  12.267  22.124  0.00  0.00     0.018 A 
ENDBRANCH   5   8
ENDBRANCH   1   2
BRANCH   1  14
ATOM     14  C   UNL d   1     -47.748  13.065  23.166  0.00  0.00     0.132 C 
BRANCH  14  15
ATOM     15  N   UNL d   1     -48.357  12.689  22.729  0.00  0.00    -0.155 NA
BRANCH  15  16
ATOM     16  S   UNL d   1     -48.833  12.127  23.092  0.00  0.00     0.285 S 
ATOM     17  O   UNL d   1     -49.321  11.562  23.450  0.00  0.00    -0.198 OA
ATOM     18  O   UNL d   1     -48.273  12.038  23.697  0.00  0.00    -0.198 OA
BRANCH  16  19
ATOM     19  C   UNL d   1     -49.392  12.220  22.483  0.00  0.00     0.105 A 
ATOM     20  C   UNL d   1     -49.198  12.012  21.708  0.00  0.00     0.015 A 
ATOM     21  C   UNL d   1     -49.746  12.102  21.098  0.00  0.00     0.030 A 
ATOM     22  C   UNL d   1     -50.503  12.406  21.276  0.00  0.00     0.140 A 
ATOM     23  C   UNL d   1     -50.697  12.613  22.051  0.00  0.00     0.030 A 
ATOM     24  F   UNL d   1     -51.064  12.499  20.661  0.00  0.00    -0.204 F 
ATOM     25  C   UNL d   1     -50.141  12.520  22.654  0.00  0.00     0.015 A 
ENDBRANCH  16  19
ENDBRANCH  15  16
ENDBRANCH  14  15
ENDBRANCH   1  14
BRANCH   1  26
ATOM     26  C   UNL d   1     -47.601  14.395  22.648  0.00  0.00     0.118 A 
ATOM     27  O   UNL d   1     -47.874  14.859  23.269  0.00  0.00    -0.304 OA
ATOM     28  C   UNL d   1     -48.157  15.572  22.953  0.00  0.00     0.123 A 
ATOM     29  C   UNL d   1     -48.058  15.544  22.144  0.00  0.00     0.029 A 
ATOM     30  C   UNL d   1     -47.714  14.817  21.952  0.00  0.00     0.028 A 
ENDBRANCH   1  26
TORSDOF 7
ENDMDL
MODEL 3
REMARK VINA RESULT:      -5.1      1.577      2.433
REMARK  7 active torsions:
REMARK  status: ('A' for Active; 'I' for Inactive)
REMARK    1  A    between atoms: N_4  and  S_1 
REMARK    2  A    between atoms: C_8  and  S_1 
REMARK    3  A    between atoms: N_2  and  C_3 
REMARK    4  A    between atoms: C_3  and  C_6 
REMARK    5  A    between atoms: C_7  and  C_3 
REMARK    6  A    between atoms: C_6  and  N_4 
REMARK    7  A    between atoms: C_17  and  N_5 
ROOT
ATOM      1  C   UNL d   1     -47.386  12.869  23.075  0.00  0.00     0.107 C 
ENDROOT
BRANCH   1   2
ATOM      2  N   UNL d   1     -46.616  12.845  22.781  0.00  0.00    -0.298 N 
ATOM      3  C   UNL d   1     -45.974  12.914  23.296  0.00  0.00     0.100 A 
ATOM      4  C   UNL d   1     -45.204  12.890  23.002  0.00  0.00     0.100 A 
ATOM      5  N   UNL d   1     -45.074  12.796  22.192  0.00  0.00    -0.301 N 
ATOM      6  C   UNL d   1     -45.716  12.727  21.682  0.00  0.00     0.100 A 
ATOM      7  C   UNL d   1     -46.486  12.751  21.972  0.00  0.00     0.100 A 
BRANCH   5   8
ATOM      8  C   UNL d   1     -44.309  12.772  21.902  0.00  0.00     0.064 A 
ATOM      9  C   UNL d   1     -44.062  13.318  21.343  0.00  0.00     0.018 A 
ATOM     10  C   UNL d   1     -43.293  13.296  21.049  0.00  0.00     0.002 A 
ATOM     11  C   UNL d   1     -42.769  12.719  21.320  0.00  0.00     0.000 A 
ATOM     12  C   UNL d   1     -43.015  12.168  21.883  0.00  0.00     0.002 A 
ATOM     13  C   UNL d   1     -43.784  12.195  22.172  0.00  0.00     0.018 A 
ENDBRANCH   5   8
ENDBRANCH   1   2
BRANCH   1  14
ATOM     14  C   UNL d   1     -47.753  13.587  23.258  0.00  0.00     0.132 C 
BRANCH  14  15
ATOM     15  N   UNL d   1     -48.250  13.949  22.688  0.00  0.00    -0.155 NA
BRANCH  15  16
ATOM     16  S   UNL d   1     -48.537  14.707  22.819  0.00  0.00     0.285 S 
ATOM     17  O   UNL d   1     -48.834  15.470  22.944  0.00  0.00    -0.198 OA
ATOM     18  O   UNL d   1     -47.903  14.863  23.331  0.00  0.00    -0.198 OA
BRANCH  16  19
ATOM     19  C   UNL d   1     -49.170  14.547  22.305  0.00  0.00     0.105 A 
ATOM     20  C   UNL d   1     -49.944  14.549  22.589  0.00  0.00     0.015 A 
ATOM     21  C   UNL d   1     -50.579  14.391  22.084  0.00  0.00     0.030 A 
ATOM     22  C   UNL d   1     -50.425  14.228  21.281  0.00  0.00     0.140 A 
ATOM     23  C   UNL d   1     -49.650  14.226  20.997  0.00  0.00     0.030 A 
ATOM     24  F   UNL d   1     -51.064  14.067  20.764  0.00  0.00    -0.204 F 
ATOM     25  C   UNL d   1     -49.023  14.385  21.509  0.00  0.00     0.015 A 
ENDBRANCH  16  19
ENDBRANCH  15  16
ENDBRANCH  14  15
ENDBRANCH   1  14
BRANCH   1  26
ATOM     26  C   UNL d   1     -47.810  12.154  23.191  0.00  0.00     0.118 A 
ATOM     27  O   UNL d   1     -48.458  12.131  23.697  0.00  0.00    -0.304 OA
ATOM     28  C   UNL d   1     -48.756  11.358  23.697  0.00  0.00     0.123 A 
ATOM     29  C   UNL d   1     -48.294  10.911  23.195  0.00  0.00     0.029 A 
ATOM     30  C   UNL d   1     -47.708  11.401  22.881  0.00  0.00     0.028 A 
ENDBRANCH   1  26
TORSDOF 7
ENDMDL
MODEL 4
REMARK VINA RESULT:      -5.1      1.445      2.399
REMARK  7 active torsions:
REMARK  status: ('A' for Active; 'I' for Inactive)
REMARK    1  A    between atoms: N_4  and  S_1 
REMARK    2  A    between atoms: C_8  and  S_1 
REMARK    3  A    between atoms: N_2  and  C_3 
REMARK    4  A    between atoms: C_3  and  C_6 
REMARK    5  A    between atoms: C_7  and  C_3 
REMARK    6  A    between atoms: C_6  and  N_4 
REMARK    7  A    between atoms: C_17  and  N_5 
ROOT
ATOM      1  C   UNL d   1     -47.584  12.909  22.172  0.00  0.00     0.107 C 
ENDROOT
BRANCH   1   2
ATOM      2  N   UNL d   1     -46.918  12.480  22.404  0.00  0.00    -0.298 N 
ATOM      3  C   UNL d   1     -46.260  12.437  21.908  0.00  0.00     0.100 A 
ATOM      4  C   UNL d   1     -45.595  12.007  22.140  0.00  0.00     0.100 A 
ATOM      5  N   UNL d   1     -45.588  11.620  22.869  0.00  0.00    -0.301 N 
ATOM      6  C   UNL d   1     -46.246  11.665  23.361  0.00  0.00     0.100 A 
ATOM      7  C   UNL d   1     -46.912  12.093  23.132  0.00  0.00     0.100 A 
BRANCH   5   8
ATOM      8  C   UNL d   1     -44.927  11.194  23.098  0.00  0.00     0.064 A 
ATOM      9  C   UNL d   1     -45.012  10.464  23.462  0.00  0.00     0.018 A 
ATOM     10  C   UNL d   1     -44.349  10.034  23.693  0.00  0.00     0.002 A 
ATOM     11  C   UNL d   1     -43.595  10.341  23.559  0.00  0.00     0.000 A 
ATOM     12  C   UNL d   1     -43.508  11.076  23.193  0.00  0.00     0.002 A 
ATOM     13  C   UNL d   1     -44.173  11.501  22.964  0.00  0.00     0.018 A 
ENDBRANCH   5   8
ENDBRANCH   1   2
BRANCH   1  14
ATOM     14  C   UNL d   1     -47.552  13.729  22.076  0.00  0.00     0.132 C 
BRANCH  14  15
ATOM     15  N   UNL d   1     -48.018  14.217  22.575  0.00  0.00    -0.155 NA
BRANCH  15  16
ATOM     16  S   UNL d   1     -47.853  15.020  22.631  0.00  0.00     0.285 S 
ATOM     17  O   UNL d   1     -47.697  15.830  22.690  0.00  0.00    -0.198 OA
ATOM     18  O   UNL d   1     -47.051  14.870  22.479  0.00  0.00    -0.198 OA
BRANCH  16  19
ATOM     19  C   UNL d   1     -48.657  15.165  22.783  0.00  0.00     0.105 A 
ATOM     20  C   UNL d   1     -49.156  15.409  22.172  0.00  0.00     0.015 A 
ATOM     21  C   UNL d   1     -49.956  15.555  22.315  0.00  0.00     0.030 A 
ATOM     22  C   UNL d   1     -50.253  15.453  23.088  0.00  0.00     0.140 A 
ATOM     23  C   UNL d   1     -49.755  15.210  23.698  0.00  0.00     0.030 A 
ATOM     24  F   UNL d   1     -51.064  15.600  23.239  0.00  0.00    -0.204 F 
ATOM     25  C   UNL d   1     -48.956  15.066  23.545  0.00  0.00     0.015 A 
ENDBRANCH  16  19
ENDBRANCH  15  16
ENDBRANCH  14  15
ENDBRANCH   1  14
BRANCH   1  26
ATOM     26  C   UNL d   1     -48.307  12.509  22.029  0.00  0.00     0.118 A 
ATOM     27  O   UNL d   1     -48.691  12.114  22.639  0.00  0.00    -0.304 OA
ATOM     28  C   UNL d   1     -49.384  11.777  22.331  0.00  0.00     0.123 A 
ATOM     29  C   UNL d   1     -49.423  11.966  21.539  0.00  0.00     0.029 A 
ATOM     30  C   UNL d   1     -48.758  12.419  21.350  0.00  0.00     0.028 A 
ENDBRANCH   1  26
TORSDOF 7
ENDMDL
