MODEL 1
REMARK VINA RESULT:      58.8      0.000      0.000
REMARK  3 active torsions:
REMARK  status: ('A' for Active; 'I' for Inactive)
REMARK    1  A    between atoms: C_8  and  C_1 
REMARK       I    between atoms: C_5  and  N_7 
REMARK    2  A    between atoms: C_10  and  C_5 
REMARK    3  A    between atoms: N_7  and  C_15 
ROOT
ATOM      1  C   UNL d   1     -50.301  26.552  33.918  0.00  0.00     0.024 A 
ATOM      2  C   UNL d   1     -50.606  27.206  34.300  0.00  0.00     0.004 A 
ATOM      3  C   UNL d   1     -49.515  26.538  33.674  0.00  0.00     0.004 A 
ATOM      4  C   UNL d   1     -49.333  27.851  34.201  0.00  0.00     0.085 A 
ATOM      5  C   UNL d   1     -49.026  27.188  33.814  0.00  0.00     0.019 A 
ATOM      6  C   UNL d   1     -50.123  27.859  34.444  0.00  0.00     0.019 A 
ENDROOT
BRANCH   1   7
ATOM      7  C   UNL d   1     -50.790  25.896  33.775  0.00  0.00     0.112 A 
ATOM      8  S   UNL d   1     -50.530  25.106  33.688  0.00  0.00    -0.047 SA
ATOM      9  C   UNL d   1     -51.202  24.633  33.552  0.00  0.00     0.130 A 
ATOM     10  N   UNL d   1     -51.290  23.822  33.428  0.00  0.00    -0.236 NA
ATOM     11  C   UNL d   1     -51.873  25.127  33.555  0.00  0.00     0.106 A 
ATOM     12  C   UNL d   1     -52.043  23.500  33.306  0.00  0.00     0.100 A 
ATOM     13  C   UNL d   1     -52.714  24.000  33.309  0.00  0.00     0.022 A 
ATOM     14  C   UNL d   1     -52.622  24.808  33.434  0.00  0.00     0.023 A 
ATOM     15  N   UNL d   1     -51.605  25.913  33.695  0.00  0.00    -0.237 NA
ENDBRANCH   1   7
BRANCH   4  16
ATOM     16  N   UNL d   1     -48.848  28.508  34.346  0.00  0.00    -0.206 NA
ATOM     17  C   UNL d   1     -48.601  28.670  35.115  0.00  0.00     0.302 C 
ATOM     18  O   UNL d   1     -48.829  28.187  35.741  0.00  0.00    -0.263 OA
BRANCH  17  19
ATOM     19  C   UNL d   1     -48.120  29.320  35.258  0.00  0.00     0.158 A 
ATOM     20  O   UNL d   1     -48.247  30.091  34.989  0.00  0.00    -0.300 OA
ATOM     21  C   UNL d   1     -47.628  30.556  35.265  0.00  0.00     0.123 A 
ATOM     22  C   UNL d   1     -47.114  30.079  35.707  0.00  0.00     0.029 A 
ATOM     23  C   UNL d   1     -47.416  29.314  35.704  0.00  0.00     0.032 A 
ENDBRANCH  17  19
ENDBRANCH   4  16
TORSDOF 3
ENDMDL
