MODEL 1
REMARK VINA RESULT:      23.9      0.000      0.000
REMARK  6 active torsions:
REMARK  status: ('A' for Active; 'I' for Inactive)
REMARK    1  A    between atoms: C_2  and  S_1 
REMARK    2  A    between atoms: N_5  and  S_1 
REMARK    3  A    between atoms: O_14  and  C_4 
REMARK    4  A    between atoms: C_11  and  N_5 
REMARK    5  A    between atoms: C_15  and  C_11 
REMARK    6  A    between atoms: C_18  and  O_14 
ROOT
ATOM      1  C   UNL d   1     -57.784 -98.812 -44.624  0.00  0.00     0.129 A 
ATOM      2  C   UNL d   1     -57.808 -98.820 -45.446  0.00  0.00     0.026 A 
ATOM      3  C   UNL d   1     -58.485 -98.784 -44.193  0.00  0.00     0.112 A 
ATOM      4  C   UNL d   1     -58.533 -98.802 -45.838  0.00  0.00     0.059 A 
ATOM      5  C   UNL d   1     -59.210 -98.765 -44.585  0.00  0.00     0.026 A 
ATOM      6  C   UNL d   1     -59.235 -98.774 -45.409  0.00  0.00     0.013 A 
ATOM      7 CL   UNL d   1     -58.558 -98.810 -46.662  0.00  0.00    -0.082 Cl
ATOM      8  C   UNL d   1     -59.960 -98.755 -45.801  0.00  0.00     0.001 C 
ENDROOT
BRANCH   1   9
ATOM      9  S   UNL d   1     -57.058 -98.830 -44.231  0.00  0.00     0.287 S 
ATOM     10  O   UNL d   1     -56.666 -98.790 -44.955  0.00  0.00    -0.198 OA
ATOM     11  O   UNL d   1     -57.451 -98.870 -43.507  0.00  0.00    -0.198 OA
BRANCH   9  12
ATOM     12  N   UNL d   1     -56.333 -98.849 -43.839  0.00  0.00    -0.155 NA
BRANCH  12  13
ATOM     13  C   UNL d   1     -55.639 -98.986 -44.261  0.00  0.00     0.137 C 
BRANCH  13  14
ATOM     14  C   UNL d   1     -55.326 -99.748 -44.306  0.00  0.00     0.120 A 
ATOM     15  O   UNL d   1     -54.932-100.066 -44.952  0.00  0.00    -0.304 OA
ATOM     16  C   UNL d   1     -54.716-100.837 -44.759  0.00  0.00     0.123 A 
ATOM     17  C   UNL d   1     -54.978-100.994 -43.993  0.00  0.00     0.029 A 
ATOM     18  C   UNL d   1     -55.356-100.314 -43.717  0.00  0.00     0.028 A 
ENDBRANCH  13  14
ENDBRANCH  12  13
ENDBRANCH   9  12
ENDBRANCH   1   9
BRANCH   3  19
ATOM     19  O   UNL d   1     -58.463 -98.775 -43.366  0.00  0.00    -0.304 OA
BRANCH  19  20
ATOM     20  C   UNL d   1     -59.085 -99.097 -42.934  0.00  0.00     0.123 C 
ATOM     21  C   UNL d   1     -59.869 -98.884 -43.107  0.00  0.00     0.029 C 
ENDBRANCH  19  20
ENDBRANCH   3  19
TORSDOF 6
ENDMDL
