MODEL 1
REMARK VINA RESULT:     133.0      0.000      0.000
REMARK  7 active torsions:
REMARK  status: ('A' for Active; 'I' for Inactive)
REMARK    1  A    between atoms: N_5  and  S_1 
REMARK    2  A    between atoms: C_8  and  S_1 
REMARK    3  A    between atoms: C_2  and  C_11 
REMARK    4  A    between atoms: C_9  and  N_5 
REMARK    5  A    between atoms: C_10  and  C_9 
REMARK       I    between atoms: N_14  and  C_10 
REMARK    6  A    between atoms: C_24  and  N_14 
REMARK    7  A    between atoms: C_15  and  C_16 
ROOT
ATOM      1  C   UNL d   1      62.450  43.532  49.927  0.00  0.00     0.299 C 
ATOM      2  N   UNL d   1      62.026  44.034  49.448  0.00  0.00    -0.207 NA
ATOM      3  O   UNL d   1      62.657  43.762  50.697  0.00  0.00    -0.263 OA
ENDROOT
BRANCH   1   4
ATOM      4  C   UNL d   1      62.684  42.781  49.652  0.00  0.00     0.174 C 
BRANCH   4   5
ATOM      5  N   UNL d   1      63.094  42.286  50.157  0.00  0.00    -0.152 NA
BRANCH   5   6
ATOM      6  S   UNL d   1      62.976  41.461  50.109  0.00  0.00     0.285 S 
ATOM      7  O   UNL d   1      62.985  41.513  49.285  0.00  0.00    -0.198 OA
ATOM      8  O   UNL d   1      62.967  41.415  50.933  0.00  0.00    -0.198 OA
BRANCH   6   9
ATOM      9  C   UNL d   1      62.859  40.646  50.065  0.00  0.00     0.105 A 
ATOM     10  C   UNL d   1      62.452  40.254  50.657  0.00  0.00     0.013 A 
ATOM     11  C   UNL d   1      62.334  39.439  50.614  0.00  0.00    -0.004 A 
ATOM     12  C   UNL d   1      62.630  39.015  49.967  0.00  0.00    -0.023 A 
ATOM     13  C   UNL d   1      63.041  39.415  49.367  0.00  0.00    -0.004 A 
ATOM     14  C   UNL d   1      63.153  40.223  49.418  0.00  0.00     0.013 A 
BRANCH  12  15
ATOM     15  C   UNL d   1      62.516  38.199  49.915  0.00  0.00     0.019 C 
ATOM     16  C   UNL d   1      61.882  38.259  50.434  0.00  0.00     0.004 C 
ATOM     17  C   UNL d   1      63.157  38.143  49.392  0.00  0.00     0.004 C 
ATOM     18  C   UNL d   1      62.399  37.384  49.867  0.00  0.00     0.004 C 
ENDBRANCH  12  15
ENDBRANCH   6   9
ENDBRANCH   5   6
ENDBRANCH   4   5
ENDBRANCH   1   4
BRANCH   2  19
ATOM     19  C   UNL d   1      61.799  44.776  49.727  0.00  0.00     0.085 A 
ATOM     20  C   UNL d   1      62.114  45.450  49.379  0.00  0.00     0.019 A 
ATOM     21  C   UNL d   1      61.894  46.207  49.650  0.00  0.00     0.004 A 
ATOM     22  C   UNL d   1      61.358  46.281  50.269  0.00  0.00     0.024 A 
ATOM     23  C   UNL d   1      61.040  45.604  50.620  0.00  0.00     0.004 A 
ATOM     24  C   UNL d   1      61.256  44.853  50.354  0.00  0.00     0.019 A 
BRANCH  22  25
ATOM     25  C   UNL d   1      61.146  47.040  50.530  0.00  0.00     0.111 A 
ATOM     26  N   UNL d   1      61.396  47.726  50.157  0.00  0.00    -0.239 NA
ATOM     27  C   UNL d   1      61.083  48.374  50.562  0.00  0.00     0.088 A 
ATOM     28  C   UNL d   1      61.146  49.186  50.441  0.00  0.00     0.020 A 
ATOM     29  C   UNL d   1      60.636  48.083  51.191  0.00  0.00     0.049 A 
ATOM     30  C   UNL d   1      60.762  49.707  50.950  0.00  0.00     0.002 A 
ATOM     31  C   UNL d   1      60.315  49.416  51.579  0.00  0.00     0.001 A 
ATOM     32  C   UNL d   1      60.252  48.604  51.700  0.00  0.00     0.008 A 
ATOM     33  S   UNL d   1      60.675  47.257  51.171  0.00  0.00    -0.066 SA
ENDBRANCH  22  25
ENDBRANCH   2  19
TORSDOF 7
ENDMDL
