MODEL 1
REMARK VINA RESULT:      -9.9      0.000      0.000
REMARK  1 active torsions:
REMARK  status: ('A' for Active; 'I' for Inactive)
REMARK    1  A    between atoms: C_9  and  C_1 
ROOT
ATOM      1  C   UNL d   1     -47.641  12.209  23.141  0.00  0.00     0.087 A 
ATOM      2  N   UNL d   1     -47.159  11.550  23.364  0.00  0.00    -0.191 NA
ATOM      3  C   UNL d   1     -47.305  12.947  23.032  0.00  0.00     0.036 A 
ATOM      4  C   UNL d   1     -46.314  11.690  23.470  0.00  0.00     0.369 A 
ATOM      5  N   UNL d   1     -46.019  12.478  23.343  0.00  0.00    -0.191 NA
ATOM      6  C   UNL d   1     -46.502  13.079  23.132  0.00  0.00     0.088 A 
ATOM      7  C   UNL d   1     -47.826  13.573  22.809  0.00  0.00     0.014 A 
ATOM      8  O   UNL d   1     -45.747  11.071  23.698  0.00  0.00    -0.242 OA
ATOM      9  C   UNL d   1     -46.203  13.842  23.011  0.00  0.00     0.020 A 
ATOM     10  C   UNL d   1     -47.535  14.324  22.690  0.00  0.00     0.058 A 
ATOM     11  C   UNL d   1     -46.690  14.464  22.795  0.00  0.00     0.013 A 
ATOM     12 CL   UNL d   1     -48.076  14.948  22.465  0.00  0.00    -0.082 Cl
ENDROOT
BRANCH   1  13
ATOM     13  C   UNL d   1     -48.413  12.082  23.045  0.00  0.00     0.018 A 
ATOM     14  C   UNL d   1     -48.907  12.099  23.698  0.00  0.00     0.002 A 
ATOM     15  C   UNL d   1     -49.717  11.971  23.639  0.00  0.00     0.000 A 
ATOM     16  C   UNL d   1     -50.067  11.808  22.839  0.00  0.00     0.000 A 
ATOM     17  C   UNL d   1     -49.551  11.795  22.195  0.00  0.00     0.000 A 
ATOM     18  C   UNL d   1     -48.738  11.929  22.296  0.00  0.00     0.002 A 
ENDBRANCH   1  13
TORSDOF 1
ENDMDL
MODEL 2
REMARK VINA RESULT:      -9.1      1.673      2.423
REMARK  1 active torsions:
REMARK  status: ('A' for Active; 'I' for Inactive)
REMARK    1  A    between atoms: C_9  and  C_1 
ROOT
ATOM      1  C   UNL d   1     -47.678  13.676  22.751  0.00  0.00     0.087 A 
ATOM      2  N   UNL d   1     -46.965  14.096  22.571  0.00  0.00    -0.191 NA
ATOM      3  C   UNL d   1     -47.644  12.922  23.063  0.00  0.00     0.036 A 
ATOM      4  C   UNL d   1     -46.216  13.697  22.729  0.00  0.00     0.369 A 
ATOM      5  N   UNL d   1     -46.239  12.912  23.055  0.00  0.00    -0.191 NA
ATOM      6  C   UNL d   1     -46.932  12.543  23.214  0.00  0.00     0.088 A 
ATOM      7  C   UNL d   1     -48.381  12.543  23.227  0.00  0.00     0.014 A 
ATOM      8  O   UNL d   1     -45.437  14.054  22.574  0.00  0.00    -0.242 OA
ATOM      9  C   UNL d   1     -46.942  11.778  23.531  0.00  0.00     0.020 A 
ATOM     10  C   UNL d   1     -48.394  11.791  23.538  0.00  0.00     0.058 A 
ATOM     11  C   UNL d   1     -47.645  11.393  23.696  0.00  0.00     0.013 A 
ATOM     12 CL   UNL d   1     -49.149  11.422  23.698  0.00  0.00    -0.082 Cl
ENDROOT
BRANCH   1  13
ATOM     13  C   UNL d   1     -48.362  14.040  22.606  0.00  0.00     0.018 A 
ATOM     14  C   UNL d   1     -48.675  14.545  23.170  0.00  0.00     0.002 A 
ATOM     15  C   UNL d   1     -49.386  14.943  23.057  0.00  0.00     0.000 A 
ATOM     16  C   UNL d   1     -49.828  14.819  22.297  0.00  0.00     0.000 A 
ATOM     17  C   UNL d   1     -49.495  14.306  21.743  0.00  0.00     0.000 A 
ATOM     18  C   UNL d   1     -48.774  13.922  21.895  0.00  0.00     0.002 A 
ENDBRANCH   1  13
TORSDOF 1
ENDMDL
MODEL 3
REMARK VINA RESULT:      -9.0      1.723      2.572
REMARK  1 active torsions:
REMARK  status: ('A' for Active; 'I' for Inactive)
REMARK    1  A    between atoms: C_9  and  C_1 
ROOT
ATOM      1  C   UNL d   1     -48.868  12.882  23.109  0.00  0.00     0.087 A 
ATOM      2  N   UNL d   1     -49.533  12.378  23.251  0.00  0.00    -0.191 NA
ATOM      3  C   UNL d   1     -48.108  12.605  23.231  0.00  0.00     0.036 A 
ATOM      4  C   UNL d   1     -49.375  11.575  23.526  0.00  0.00     0.369 A 
ATOM      5  N   UNL d   1     -48.565  11.340  23.637  0.00  0.00    -0.191 NA
ATOM      6  C   UNL d   1     -47.958  11.842  23.492  0.00  0.00     0.088 A 
ATOM      7  C   UNL d   1     -47.476  13.144  23.076  0.00  0.00     0.014 A 
ATOM      8  O   UNL d   1     -49.998  10.992  23.697  0.00  0.00    -0.242 OA
ATOM      9  C   UNL d   1     -47.174  11.602  23.603  0.00  0.00     0.020 A 
ATOM     10  C   UNL d   1     -46.704  12.911  23.184  0.00  0.00     0.058 A 
ATOM     11  C   UNL d   1     -46.547  12.108  23.459  0.00  0.00     0.013 A 
ATOM     12 CL   UNL d   1     -46.076  13.469  23.022  0.00  0.00    -0.082 Cl
ENDROOT
BRANCH   1  13
ATOM     13  C   UNL d   1     -49.012  13.615  22.858  0.00  0.00     0.018 A 
ATOM     14  C   UNL d   1     -49.085  13.757  22.054  0.00  0.00     0.002 A 
ATOM     15  C   UNL d   1     -49.235  14.507  21.753  0.00  0.00     0.000 A 
ATOM     16  C   UNL d   1     -49.320  15.186  22.320  0.00  0.00     0.000 A 
ATOM     17  C   UNL d   1     -49.244  15.020  23.125  0.00  0.00     0.000 A 
ATOM     18  C   UNL d   1     -49.092  14.247  23.390  0.00  0.00     0.002 A 
ENDBRANCH   1  13
TORSDOF 1
ENDMDL
MODEL 4
REMARK VINA RESULT:      -8.8      1.928      2.363
REMARK  1 active torsions:
REMARK  status: ('A' for Active; 'I' for Inactive)
REMARK    1  A    between atoms: C_9  and  C_1 
ROOT
ATOM      1  C   UNL d   1     -48.523  13.438  22.813  0.00  0.00     0.087 A 
ATOM      2  N   UNL d   1     -48.725  14.216  22.550  0.00  0.00    -0.191 NA
ATOM      3  C   UNL d   1     -47.745  13.247  22.977  0.00  0.00     0.036 A 
ATOM      4  C   UNL d   1     -48.085  14.788  22.463  0.00  0.00     0.369 A 
ATOM      5  N   UNL d   1     -47.293  14.535  22.647  0.00  0.00    -0.191 NA
ATOM      6  C   UNL d   1     -47.136  13.790  22.894  0.00  0.00     0.088 A 
ATOM      7  C   UNL d   1     -47.592  12.458  23.237  0.00  0.00     0.014 A 
ATOM      8  O   UNL d   1     -48.202  15.608  22.198  0.00  0.00    -0.242 OA
ATOM      9  C   UNL d   1     -46.362  13.556  23.070  0.00  0.00     0.020 A 
ATOM     10  C   UNL d   1     -46.832  12.225  23.410  0.00  0.00     0.058 A 
ATOM     11  C   UNL d   1     -46.192  12.797  23.324  0.00  0.00     0.013 A 
ATOM     12 CL   UNL d   1     -46.695  11.422  23.673  0.00  0.00    -0.082 Cl
ENDROOT
BRANCH   1  13
ATOM     13  C   UNL d   1     -49.108  12.916  22.893  0.00  0.00     0.018 A 
ATOM     14  C   UNL d   1     -49.329  12.459  22.249  0.00  0.00     0.002 A 
ATOM     15  C   UNL d   1     -49.934  11.904  22.292  0.00  0.00     0.000 A 
ATOM     16  C   UNL d   1     -50.362  11.797  23.063  0.00  0.00     0.000 A 
ATOM     17  C   UNL d   1     -50.124  12.267  23.698  0.00  0.00     0.000 A 
ATOM     18  C   UNL d   1     -49.507  12.817  23.614  0.00  0.00     0.002 A 
ENDBRANCH   1  13
TORSDOF 1
ENDMDL
MODEL 5
REMARK VINA RESULT:      -8.3      2.268      3.522
REMARK  1 active torsions:
REMARK  status: ('A' for Active; 'I' for Inactive)
REMARK    1  A    between atoms: C_9  and  C_1 
ROOT
ATOM      1  C   UNL d   1     -48.298  13.811  22.816  0.00  0.00     0.087 A 
ATOM      2  N   UNL d   1     -48.561  14.594  22.631  0.00  0.00    -0.191 NA
ATOM      3  C   UNL d   1     -48.829  13.252  23.087  0.00  0.00     0.036 A 
ATOM      4  C   UNL d   1     -49.399  14.771  22.741  0.00  0.00     0.369 A 
ATOM      5  N   UNL d   1     -49.906  14.151  23.027  0.00  0.00    -0.191 NA
ATOM      6  C   UNL d   1     -49.625  13.420  23.192  0.00  0.00     0.088 A 
ATOM      7  C   UNL d   1     -48.520  12.485  23.258  0.00  0.00     0.014 A 
ATOM      8  O   UNL d   1     -49.754  15.548  22.577  0.00  0.00    -0.242 OA
ATOM      9  C   UNL d   1     -50.128  12.824  23.469  0.00  0.00     0.020 A 
ATOM     10  C   UNL d   1     -49.012  11.897  23.530  0.00  0.00     0.058 A 
ATOM     11  C   UNL d   1     -49.850  12.074  23.640  0.00  0.00     0.013 A 
ATOM     12 CL   UNL d   1     -48.683  11.125  23.698  0.00  0.00    -0.082 Cl
ENDROOT
BRANCH   1  13
ATOM     13  C   UNL d   1     -47.533  13.650  22.715  0.00  0.00     0.018 A 
ATOM     14  C   UNL d   1     -47.005  13.818  23.318  0.00  0.00     0.002 A 
ATOM     15  C   UNL d   1     -46.200  13.664  23.252  0.00  0.00     0.000 A 
ATOM     16  C   UNL d   1     -45.894  13.304  22.500  0.00  0.00     0.000 A 
ATOM     17  C   UNL d   1     -46.443  13.143  21.905  0.00  0.00     0.000 A 
ATOM     18  C   UNL d   1     -47.250  13.313  22.011  0.00  0.00     0.002 A 
ENDBRANCH   1  13
TORSDOF 1
ENDMDL
