MODEL 1
REMARK VINA RESULT:      42.2      0.000      0.000
REMARK  4 active torsions:
REMARK  status: ('A' for Active; 'I' for Inactive)
REMARK    1  A    between atoms: C_10  and  N_2 
REMARK    2  A    between atoms: C_7  and  N_4 
REMARK    3  A    between atoms: C_11  and  C_7 
REMARK    4  A    between atoms: O_22  and  C_18 
ROOT
ATOM      1  S   UNL d   1      13.694  13.902  -3.531  0.00  0.00     0.276 S 
ATOM      2  N   UNL d   1      14.031  13.914  -2.775  0.00  0.00    -0.184 N 
ATOM      3  C   UNL d   1      14.081  13.208  -2.337  0.00  0.00     0.348 A 
ATOM      4  N   UNL d   1      13.794  12.504  -2.662  0.00  0.00    -0.258 N 
ATOM      5  C   UNL d   1      13.408  13.199  -3.853  0.00  0.00     0.120 A 
ATOM      6  C   UNL d   1      13.459  12.494  -3.415  0.00  0.00     0.081 A 
ATOM      7  O   UNL d   1      13.424  14.184  -4.272  0.00  0.00    -0.199 OA
ATOM      8  O   UNL d   1      13.938  14.672  -3.334  0.00  0.00    -0.199 OA
ATOM      9  O   UNL d   1      14.421  13.211  -1.571  0.00  0.00    -0.245 OA
ATOM     10  C   UNL d   1      13.075  13.192  -4.603  0.00  0.00     0.014 A 
ATOM     11  C   UNL d   1      13.175  11.787  -3.729  0.00  0.00     0.018 A 
ATOM     12  C   UNL d   1      12.788  12.487  -4.928  0.00  0.00     0.001 A 
ATOM     13  C   UNL d   1      12.838  11.782  -4.490  0.00  0.00     0.002 A 
ENDROOT
BRANCH   2  14
ATOM     14  C   UNL d   1      14.315  14.615  -2.456  0.00  0.00     0.079 A 
ATOM     15  C   UNL d   1      14.279  15.318  -2.890  0.00  0.00     0.020 A 
ATOM     16  C   UNL d   1      14.564  16.023  -2.571  0.00  0.00     0.026 A 
ATOM     17  C   UNL d   1      14.891  16.028  -1.807  0.00  0.00     0.094 A 
ATOM     18  C   UNL d   1      14.929  15.327  -1.369  0.00  0.00     0.026 A 
ATOM     19  C   UNL d   1      14.642  14.619  -1.692  0.00  0.00     0.020 A 
BRANCH  17  20
ATOM     20  O   UNL d   1      15.182  16.741  -1.476  0.00  0.00    -0.328 OA
ATOM     21  C   UNL d   1      15.453  16.753  -0.703  0.00  0.00     0.181 C 
ENDBRANCH  17  20
ENDBRANCH   2  14
BRANCH   4  22
ATOM     22  C   UNL d   1      13.844  11.799  -2.224  0.00  0.00     0.087 C 
BRANCH  22  23
ATOM     23  C   UNL d   1      14.221  11.795  -1.495  0.00  0.00     0.045 A 
ATOM     24  C   UNL d   1      13.769  11.803  -0.812  0.00  0.00     0.141 A 
ATOM     25  F   UNL d   1      12.952  11.813  -0.850  0.00  0.00    -0.204 F 
ATOM     26  C   UNL d   1      14.150  11.799  -0.082  0.00  0.00     0.030 A 
ATOM     27  C   UNL d   1      14.970  11.788  -0.042  0.00  0.00     0.002 A 
ATOM     28  C   UNL d   1      15.412  11.781  -0.731  0.00  0.00     0.000 A 
ATOM     29  C   UNL d   1      15.038  11.785  -1.458  0.00  0.00     0.004 A 
ENDBRANCH  22  23
ENDBRANCH   4  22
TORSDOF 4
ENDMDL
