MODEL 1
REMARK VINA RESULT:      -3.7      0.000      0.000
REMARK  6 active torsions:
REMARK  status: ('A' for Active; 'I' for Inactive)
REMARK    1  A    between atoms: C_3  and  N_1 
REMARK    2  A    between atoms: N_7  and  C_3 
REMARK    3  A    between atoms: C_10  and  C_4 
REMARK    4  A    between atoms: C_9  and  C_5 
REMARK    5  A    between atoms: C_13  and  N_7 
REMARK    6  A    between atoms: O_17  and  C_14 
ROOT
ATOM      1  N   UNL d   1     -41.207  14.306  20.286  0.00  0.00    -0.203 N 
ATOM      2  N   UNL d   1     -41.927  13.919  20.292  0.00  0.00    -0.163 NA
ATOM      3  C   UNL d   1     -42.087  13.695  21.048  0.00  0.00     0.103 A 
ATOM      4  C   UNL d   1     -40.904  14.328  21.056  0.00  0.00     0.087 A 
ATOM      5  C   UNL d   1     -41.458  13.946  21.524  0.00  0.00     0.040 A 
ENDROOT
BRANCH   1   6
ATOM      6  C   UNL d   1     -40.849  14.624  19.588  0.00  0.00     0.222 C 
ATOM      7  S   UNL d   1     -40.766  15.448  19.498  0.00  0.00    -0.037 SA
BRANCH   6   8
ATOM      8  N   UNL d   1     -40.581  14.128  18.995  0.00  0.00    -0.217 NA
BRANCH   8   9
ATOM      9  C   UNL d   1     -40.363  14.427  18.253  0.00  0.00     0.084 A 
ATOM     10  C   UNL d   1     -40.928  14.780  17.777  0.00  0.00     0.019 A 
ATOM     11  C   UNL d   1     -40.709  15.081  17.030  0.00  0.00     0.002 A 
ATOM     12  C   UNL d   1     -39.924  15.018  16.782  0.00  0.00     0.000 A 
ATOM     13  C   UNL d   1     -39.379  14.662  17.275  0.00  0.00     0.002 A 
ATOM     14  C   UNL d   1     -39.590  14.362  18.015  0.00  0.00     0.019 A 
ENDBRANCH   8   9
ENDBRANCH   6   8
ENDBRANCH   1   6
BRANCH   4  15
ATOM     15  C   UNL d   1     -40.196  14.661  21.318  0.00  0.00     0.018 A 
ATOM     16  C   UNL d   1     -39.542  14.169  21.460  0.00  0.00     0.004 A 
ATOM     17  C   UNL d   1     -38.847  14.488  21.717  0.00  0.00     0.024 A 
ATOM     18  C   UNL d   1     -38.769  15.313  21.845  0.00  0.00     0.094 A 
ATOM     19  C   UNL d   1     -39.418  15.782  21.702  0.00  0.00     0.024 A 
ATOM     20  C   UNL d   1     -40.141  15.462  21.436  0.00  0.00     0.004 A 
BRANCH  18  21
ATOM     21  O   UNL d   1     -38.046  15.633  22.111  0.00  0.00    -0.328 OA
ATOM     22  C   UNL d   1     -37.947  15.913  22.890  0.00  0.00     0.181 C 
ENDBRANCH  18  21
ENDBRANCH   4  15
BRANCH   3  23
ATOM     23  C   UNL d   1     -42.759  13.295  21.267  0.00  0.00     0.019 A 
ATOM     24  C   UNL d   1     -42.711  12.517  21.550  0.00  0.00     0.002 A 
ATOM     25  C   UNL d   1     -43.400  12.112  21.773  0.00  0.00     0.000 A 
ATOM     26  C   UNL d   1     -44.129  12.482  21.713  0.00  0.00     0.000 A 
ATOM     27  C   UNL d   1     -44.175  13.260  21.430  0.00  0.00     0.000 A 
ATOM     28  C   UNL d   1     -43.486  13.664  21.208  0.00  0.00     0.002 A 
ENDBRANCH   3  23
TORSDOF 6
ENDMDL
MODEL 2
REMARK VINA RESULT:      -3.1      6.335      7.808
REMARK  6 active torsions:
REMARK  status: ('A' for Active; 'I' for Inactive)
REMARK    1  A    between atoms: C_3  and  N_1 
REMARK    2  A    between atoms: N_7  and  C_3 
REMARK    3  A    between atoms: C_10  and  C_4 
REMARK    4  A    between atoms: C_9  and  C_5 
REMARK    5  A    between atoms: C_13  and  N_7 
REMARK    6  A    between atoms: O_17  and  C_14 
ROOT
ATOM      1  N   UNL d   1     -46.846  11.861  23.154  0.00  0.00    -0.203 N 
ATOM      2  N   UNL d   1     -46.426  11.179  23.315  0.00  0.00    -0.163 NA
ATOM      3  C   UNL d   1     -45.641  11.351  23.281  0.00  0.00     0.103 A 
ATOM      4  C   UNL d   1     -46.315  12.481  23.014  0.00  0.00     0.087 A 
ATOM      5  C   UNL d   1     -45.566  12.154  23.095  0.00  0.00     0.040 A 
ENDROOT
BRANCH   1   6
ATOM      6  C   UNL d   1     -47.691  11.902  23.137  0.00  0.00     0.222 C 
ATOM      7  S   UNL d   1     -48.100  12.363  23.698  0.00  0.00    -0.037 SA
BRANCH   6   8
ATOM      8  N   UNL d   1     -48.116  11.490  22.572  0.00  0.00    -0.217 NA
BRANCH   8   9
ATOM      9  C   UNL d   1     -48.902  11.690  22.398  0.00  0.00     0.084 A 
ATOM     10  C   UNL d   1     -49.104  11.919  21.639  0.00  0.00     0.019 A 
ATOM     11  C   UNL d   1     -49.895  12.120  21.464  0.00  0.00     0.002 A 
ATOM     12  C   UNL d   1     -50.463  12.085  22.061  0.00  0.00     0.000 A 
ATOM     13  C   UNL d   1     -50.237  11.853  22.811  0.00  0.00     0.002 A 
ATOM     14  C   UNL d   1     -49.457  11.653  22.990  0.00  0.00     0.019 A 
ENDBRANCH   8   9
ENDBRANCH   6   8
ENDBRANCH   1   6
BRANCH   4  15
ATOM     15  C   UNL d   1     -46.481  13.268  22.830  0.00  0.00     0.018 A 
ATOM     16  C   UNL d   1     -46.349  13.543  22.058  0.00  0.00     0.004 A 
ATOM     17  C   UNL d   1     -46.510  14.312  21.872  0.00  0.00     0.024 A 
ATOM     18  C   UNL d   1     -46.812  14.843  22.446  0.00  0.00     0.094 A 
ATOM     19  C   UNL d   1     -46.937  14.559  23.199  0.00  0.00     0.024 A 
ATOM     20  C   UNL d   1     -46.773  13.766  23.401  0.00  0.00     0.004 A 
BRANCH  18  21
ATOM     21  O   UNL d   1     -46.975  15.636  22.244  0.00  0.00    -0.328 OA
ATOM     22  C   UNL d   1     -47.755  15.912  22.138  0.00  0.00     0.181 C 
ENDBRANCH  18  21
ENDBRANCH   4  15
BRANCH   3  23
ATOM     23  C   UNL d   1     -45.054  10.806  23.412  0.00  0.00     0.019 A 
ATOM     24  C   UNL d   1     -45.242  10.011  23.556  0.00  0.00     0.002 A 
ATOM     25  C   UNL d   1     -44.639   9.457  23.689  0.00  0.00     0.000 A 
ATOM     26  C   UNL d   1     -43.856   9.697  23.679  0.00  0.00     0.000 A 
ATOM     27  C   UNL d   1     -43.668  10.492  23.536  0.00  0.00     0.000 A 
ATOM     28  C   UNL d   1     -44.272  11.045  23.402  0.00  0.00     0.002 A 
ENDBRANCH   3  23
TORSDOF 6
ENDMDL
MODEL 3
REMARK VINA RESULT:      -2.8      5.032      8.207
REMARK  6 active torsions:
REMARK  status: ('A' for Active; 'I' for Inactive)
REMARK    1  A    between atoms: C_3  and  N_1 
REMARK    2  A    between atoms: N_7  and  C_3 
REMARK    3  A    between atoms: C_10  and  C_4 
REMARK    4  A    between atoms: C_9  and  C_5 
REMARK    5  A    between atoms: C_13  and  N_7 
REMARK    6  A    between atoms: O_17  and  C_14 
ROOT
ATOM      1  N   UNL d   1     -46.844  13.416  22.638  0.00  0.00    -0.203 N 
ATOM      2  N   UNL d   1     -46.061  13.548  22.445  0.00  0.00    -0.163 NA
ATOM      3  C   UNL d   1     -45.714  12.839  22.297  0.00  0.00     0.103 A 
ATOM      4  C   UNL d   1     -46.997  12.603  22.613  0.00  0.00     0.087 A 
ATOM      5  C   UNL d   1     -46.288  12.250  22.399  0.00  0.00     0.040 A 
ENDROOT
BRANCH   1   6
ATOM      6  C   UNL d   1     -47.393  14.032  22.831  0.00  0.00     0.222 C 
ATOM      7  S   UNL d   1     -47.559  14.212  23.626  0.00  0.00    -0.037 SA
BRANCH   6   8
ATOM      8  N   UNL d   1     -47.765  14.456  22.238  0.00  0.00    -0.217 NA
BRANCH   8   9
ATOM      9  C   UNL d   1     -48.460  14.883  22.390  0.00  0.00     0.084 A 
ATOM     10  C   UNL d   1     -48.562  15.245  23.118  0.00  0.00     0.019 A 
ATOM     11  C   UNL d   1     -49.260  15.675  23.271  0.00  0.00     0.002 A 
ATOM     12  C   UNL d   1     -49.839  15.730  22.686  0.00  0.00     0.000 A 
ATOM     13  C   UNL d   1     -49.714  15.360  21.968  0.00  0.00     0.002 A 
ATOM     14  C   UNL d   1     -49.026  14.933  21.811  0.00  0.00     0.019 A 
ENDBRANCH   8   9
ENDBRANCH   6   8
ENDBRANCH   1   6
BRANCH   4  15
ATOM     15  C   UNL d   1     -47.706  12.210  22.766  0.00  0.00     0.018 A 
ATOM     16  C   UNL d   1     -47.884  11.977  23.542  0.00  0.00     0.004 A 
ATOM     17  C   UNL d   1     -48.576  11.591  23.698  0.00  0.00     0.024 A 
ATOM     18  C   UNL d   1     -49.124  11.420  23.087  0.00  0.00     0.094 A 
ATOM     19  C   UNL d   1     -48.936  11.654  22.331  0.00  0.00     0.024 A 
ATOM     20  C   UNL d   1     -48.224  12.053  22.160  0.00  0.00     0.004 A 
BRANCH  18  21
ATOM     21  O   UNL d   1     -49.837  11.021  23.259  0.00  0.00    -0.328 OA
ATOM     22  C   UNL d   1     -50.456  11.387  23.681  0.00  0.00     0.181 C 
ENDBRANCH  18  21
ENDBRANCH   4  15
BRANCH   3  23
ATOM     23  C   UNL d   1     -44.934  12.752  22.087  0.00  0.00     0.019 A 
ATOM     24  C   UNL d   1     -44.465  12.168  22.443  0.00  0.00     0.002 A 
ATOM     25  C   UNL d   1     -43.669  12.084  22.225  0.00  0.00     0.000 A 
ATOM     26  C   UNL d   1     -43.346  12.579  21.658  0.00  0.00     0.000 A 
ATOM     27  C   UNL d   1     -43.816  13.163  21.303  0.00  0.00     0.000 A 
ATOM     28  C   UNL d   1     -44.612  13.246  21.521  0.00  0.00     0.002 A 
ENDBRANCH   3  23
TORSDOF 6
ENDMDL
MODEL 4
REMARK VINA RESULT:      -2.7      2.284      3.616
REMARK  6 active torsions:
REMARK  status: ('A' for Active; 'I' for Inactive)
REMARK    1  A    between atoms: C_3  and  N_1 
REMARK    2  A    between atoms: N_7  and  C_3 
REMARK    3  A    between atoms: C_10  and  C_4 
REMARK    4  A    between atoms: C_9  and  C_5 
REMARK    5  A    between atoms: C_13  and  N_7 
REMARK    6  A    between atoms: O_17  and  C_14 
ROOT
ATOM      1  N   UNL d   1     -39.111  14.445  18.955  0.00  0.00    -0.203 N 
ATOM      2  N   UNL d   1     -38.941  13.986  18.301  0.00  0.00    -0.163 NA
ATOM      3  C   UNL d   1     -38.645  13.284  18.555  0.00  0.00     0.103 A 
ATOM      4  C   UNL d   1     -38.918  14.024  19.641  0.00  0.00     0.087 A 
ATOM      5  C   UNL d   1     -38.628  13.301  19.383  0.00  0.00     0.040 A 
ENDROOT
BRANCH   1   6
ATOM      6  C   UNL d   1     -39.434  15.227  18.912  0.00  0.00     0.222 C 
ATOM      7  S   UNL d   1     -38.930  15.889  18.907  0.00  0.00    -0.037 SA
BRANCH   6   8
ATOM      8  N   UNL d   1     -40.244  15.340  18.875  0.00  0.00    -0.217 NA
BRANCH   8   9
ATOM      9  C   UNL d   1     -40.616  15.535  18.159  0.00  0.00     0.084 A 
ATOM     10  C   UNL d   1     -41.433  15.556  18.120  0.00  0.00     0.019 A 
ATOM     11  C   UNL d   1     -41.807  15.752  17.400  0.00  0.00     0.002 A 
ATOM     12  C   UNL d   1     -41.347  15.922  16.737  0.00  0.00     0.000 A 
ATOM     13  C   UNL d   1     -40.533  15.894  16.801  0.00  0.00     0.002 A 
ATOM     14  C   UNL d   1     -40.157  15.701  17.510  0.00  0.00     0.019 A 
ENDBRANCH   8   9
ENDBRANCH   6   8
ENDBRANCH   1   6
BRANCH   4  15
ATOM     15  C   UNL d   1     -38.994  14.262  20.427  0.00  0.00     0.018 A 
ATOM     16  C   UNL d   1     -38.425  14.768  20.757  0.00  0.00     0.004 A 
ATOM     17  C   UNL d   1     -38.494  15.004  21.526  0.00  0.00     0.024 A 
ATOM     18  C   UNL d   1     -39.132  14.747  22.003  0.00  0.00     0.094 A 
ATOM     19  C   UNL d   1     -39.683  14.251  21.667  0.00  0.00     0.024 A 
ATOM     20  C   UNL d   1     -39.620  14.001  20.873  0.00  0.00     0.004 A 
BRANCH  18  21
ATOM     21  O   UNL d   1     -39.195  14.997  22.797  0.00  0.00    -0.328 OA
ATOM     22  C   UNL d   1     -38.616  14.806  23.366  0.00  0.00     0.181 C 
ENDBRANCH  18  21
ENDBRANCH   4  15
BRANCH   3  23
ATOM     23  C   UNL d   1     -38.413  12.685  18.058  0.00  0.00     0.019 A 
ATOM     24  C   UNL d   1     -38.187  12.851  17.277  0.00  0.00     0.002 A 
ATOM     25  C   UNL d   1     -37.950  12.236  16.773  0.00  0.00     0.000 A 
ATOM     26  C   UNL d   1     -37.940  11.465  17.046  0.00  0.00     0.000 A 
ATOM     27  C   UNL d   1     -38.166  11.299  17.827  0.00  0.00     0.000 A 
ATOM     28  C   UNL d   1     -38.402  11.915  18.331  0.00  0.00     0.002 A 
ENDBRANCH   3  23
TORSDOF 6
ENDMDL
MODEL 5
REMARK VINA RESULT:      -2.7      5.106      8.312
REMARK  6 active torsions:
REMARK  status: ('A' for Active; 'I' for Inactive)
REMARK    1  A    between atoms: C_3  and  N_1 
REMARK    2  A    between atoms: N_7  and  C_3 
REMARK    3  A    between atoms: C_10  and  C_4 
REMARK    4  A    between atoms: C_9  and  C_5 
REMARK    5  A    between atoms: C_13  and  N_7 
REMARK    6  A    between atoms: O_17  and  C_14 
ROOT
ATOM      1  N   UNL d   1     -47.227  12.806  22.159  0.00  0.00    -0.203 N 
ATOM      2  N   UNL d   1     -46.503  12.446  22.041  0.00  0.00    -0.163 NA
ATOM      3  C   UNL d   1     -45.926  12.993  22.165  0.00  0.00     0.103 A 
ATOM      4  C   UNL d   1     -47.107  13.599  22.363  0.00  0.00     0.087 A 
ATOM      5  C   UNL d   1     -46.294  13.707  22.364  0.00  0.00     0.040 A 
ENDROOT
BRANCH   1   6
ATOM      6  C   UNL d   1     -47.970  12.408  22.080  0.00  0.00     0.222 C 
ATOM      7  S   UNL d   1     -48.442  12.530  21.405  0.00  0.00    -0.037 SA
BRANCH   6   8
ATOM      8  N   UNL d   1     -48.232  11.898  22.665  0.00  0.00    -0.217 NA
BRANCH   8   9
ATOM      9  C   UNL d   1     -49.043  11.792  22.807  0.00  0.00     0.084 A 
ATOM     10  C   UNL d   1     -49.574  11.854  22.188  0.00  0.00     0.019 A 
ATOM     11  C   UNL d   1     -50.389  11.747  22.331  0.00  0.00     0.002 A 
ATOM     12  C   UNL d   1     -50.649  11.581  23.096  0.00  0.00     0.000 A 
ATOM     13  C   UNL d   1     -50.099  11.525  23.698  0.00  0.00     0.002 A 
ATOM     14  C   UNL d   1     -49.291  11.629  23.562  0.00  0.00     0.019 A 
ENDBRANCH   8   9
ENDBRANCH   6   8
ENDBRANCH   1   6
BRANCH   4  15
ATOM     15  C   UNL d   1     -47.672  14.176  22.533  0.00  0.00     0.018 A 
ATOM     16  C   UNL d   1     -48.047  14.576  21.910  0.00  0.00     0.004 A 
ATOM     17  C   UNL d   1     -48.600  15.142  22.070  0.00  0.00     0.024 A 
ATOM     18  C   UNL d   1     -48.806  15.336  22.859  0.00  0.00     0.094 A 
ATOM     19  C   UNL d   1     -48.431  14.936  23.459  0.00  0.00     0.024 A 
ATOM     20  C   UNL d   1     -47.857  14.350  23.304  0.00  0.00     0.004 A 
BRANCH  18  21
ATOM     21  O   UNL d   1     -49.380  15.922  23.014  0.00  0.00    -0.328 OA
ATOM     22  C   UNL d   1     -50.179  15.731  23.153  0.00  0.00     0.181 C 
ENDBRANCH  18  21
ENDBRANCH   4  15
BRANCH   3  23
ATOM     23  C   UNL d   1     -45.133  12.834  22.097  0.00  0.00     0.019 A 
ATOM     24  C   UNL d   1     -44.797  12.189  22.496  0.00  0.00     0.002 A 
ATOM     25  C   UNL d   1     -43.986  12.031  22.423  0.00  0.00     0.000 A 
ATOM     26  C   UNL d   1     -43.516  12.513  21.957  0.00  0.00     0.000 A 
ATOM     27  C   UNL d   1     -43.852  13.158  21.558  0.00  0.00     0.000 A 
ATOM     28  C   UNL d   1     -44.664  13.315  21.631  0.00  0.00     0.002 A 
ENDBRANCH   3  23
TORSDOF 6
ENDMDL
