MODEL 1
REMARK VINA RESULT:      -1.9      0.000      0.000
REMARK  6 active torsions:
REMARK  status: ('A' for Active; 'I' for Inactive)
REMARK    1  A    between atoms: S_2  and  C_1 
REMARK    2  A    between atoms: C_7  and  S_2 
REMARK    3  A    between atoms: N_10  and  C_6 
REMARK    4  A    between atoms: C_18  and  N_10 
REMARK    5  A    between atoms: N_14  and  C_19 
REMARK    6  A    between atoms: C_19  and  C_18 
ROOT
ATOM      1  C   UNL d   1      30.897  16.908 -24.132  0.00  0.00     0.187 A 
ATOM      2  N   UNL d   1      31.291  17.525 -23.829  0.00  0.00    -0.208 NA
ATOM      3  C   UNL d   1      31.375  16.543 -24.654  0.00  0.00     0.118 A 
ATOM      4  S   UNL d   1      32.065  16.940 -24.671  0.00  0.00    -0.035 SA
ATOM      5  C   UNL d   1      32.014  17.549 -24.159  0.00  0.00     0.196 A 
ATOM      6 CL   UNL d   1      31.190  15.877 -25.097  0.00  0.00    -0.073 Cl
ENDROOT
BRANCH   1   7
ATOM      7  S   UNL d   1      30.133  16.681 -23.943  0.00  0.00     0.228 S 
ATOM      8  O   UNL d   1      29.714  17.323 -24.509  0.00  0.00    -0.216 OA
ATOM      9  O   UNL d   1      30.499  16.034 -23.373  0.00  0.00    -0.216 OA
BRANCH   7  10
ATOM     10  C   UNL d   1      29.374  16.441 -23.743  0.00  0.00     0.089 A 
ATOM     11  C   UNL d   1      28.733  16.940 -23.886  0.00  0.00     0.011 A 
ATOM     12  C   UNL d   1      27.971  16.703 -23.687  0.00  0.00     0.001 A 
ATOM     13  C   UNL d   1      27.850  15.963 -23.342  0.00  0.00     0.000 A 
ATOM     14  C   UNL d   1      28.491  15.459 -23.196  0.00  0.00     0.001 A 
ATOM     15  C   UNL d   1      27.085  15.724 -23.141  0.00  0.00     0.000 C 
ATOM     16  C   UNL d   1      29.254  15.707 -23.400  0.00  0.00     0.011 A 
ENDBRANCH   7  10
ENDBRANCH   1   7
BRANCH   5  17
ATOM     17  N   UNL d   1      32.605  18.101 -24.004  0.00  0.00    -0.218 NA
BRANCH  17  18
ATOM     18  C   UNL d   1      32.682  18.415 -23.259  0.00  0.00     0.120 C 
BRANCH  18  19
ATOM     19  C   UNL d   1      33.146  19.095 -23.138  0.00  0.00     0.101 C 
BRANCH  19  20
ATOM     20  N   UNL d   1      33.124  19.488 -22.413  0.00  0.00    -0.299 N 
ATOM     21  C   UNL d   1      32.988  20.294 -22.383  0.00  0.00     0.100 C 
ATOM     22  C   UNL d   1      33.239  19.067 -21.714  0.00  0.00     0.100 C 
ENDBRANCH  19  20
ENDBRANCH  18  19
ENDBRANCH  17  18
ENDBRANCH   5  17
TORSDOF 6
ENDMDL
MODEL 2
REMARK VINA RESULT:      -1.5      2.880      5.388
REMARK  6 active torsions:
REMARK  status: ('A' for Active; 'I' for Inactive)
REMARK    1  A    between atoms: S_2  and  C_1 
REMARK    2  A    between atoms: C_7  and  S_2 
REMARK    3  A    between atoms: N_10  and  C_6 
REMARK    4  A    between atoms: C_18  and  N_10 
REMARK    5  A    between atoms: N_14  and  C_19 
REMARK    6  A    between atoms: C_19  and  C_18 
ROOT
ATOM      1  C   UNL d   1      32.978  19.831 -22.420  0.00  0.00     0.187 A 
ATOM      2  N   UNL d   1      32.998  19.071 -22.198  0.00  0.00    -0.208 NA
ATOM      3  C   UNL d   1      33.124  19.863 -23.202  0.00  0.00     0.118 A 
ATOM      4  S   UNL d   1      33.236  19.118 -23.460  0.00  0.00    -0.035 SA
ATOM      5  C   UNL d   1      33.157  18.626 -22.837  0.00  0.00     0.196 A 
ATOM      6 CL   UNL d   1      33.156  20.543 -23.661  0.00  0.00    -0.073 Cl
ENDROOT
BRANCH   1   7
ATOM      7  S   UNL d   1      32.831  20.474 -21.934  0.00  0.00     0.228 S 
ATOM      8  O   UNL d   1      32.725  21.096 -22.647  0.00  0.00    -0.216 OA
ATOM      9  O   UNL d   1      32.927  19.900 -21.200  0.00  0.00    -0.216 OA
BRANCH   7  10
ATOM     10  C   UNL d   1      32.686  21.107 -21.432  0.00  0.00     0.089 A 
ATOM     11  C   UNL d   1      31.984  21.140 -21.002  0.00  0.00     0.011 A 
ATOM     12  C   UNL d   1      31.835  21.772 -20.498  0.00  0.00     0.001 A 
ATOM     13  C   UNL d   1      32.393  22.376 -20.424  0.00  0.00     0.000 A 
ATOM     14  C   UNL d   1      33.100  22.347 -20.855  0.00  0.00     0.001 A 
ATOM     15  C   UNL d   1      32.245  23.012 -19.918  0.00  0.00     0.000 C 
ATOM     16  C   UNL d   1      33.241  21.706 -21.359  0.00  0.00     0.011 A 
ENDBRANCH   7  10
ENDBRANCH   1   7
BRANCH   5  17
ATOM     17  N   UNL d   1      33.229  17.806 -22.858  0.00  0.00    -0.218 NA
BRANCH  17  18
ATOM     18  C   UNL d   1      32.664  17.357 -23.230  0.00  0.00     0.120 C 
BRANCH  18  19
ATOM     19  C   UNL d   1      32.721  16.527 -23.229  0.00  0.00     0.101 C 
BRANCH  19  20
ATOM     20  N   UNL d   1      32.158  16.073 -23.625  0.00  0.00    -0.299 N 
ATOM     21  C   UNL d   1      32.390  15.528 -24.190  0.00  0.00     0.100 C 
ATOM     22  C   UNL d   1      31.358  16.167 -23.452  0.00  0.00     0.100 C 
ENDBRANCH  19  20
ENDBRANCH  18  19
ENDBRANCH  17  18
ENDBRANCH   5  17
TORSDOF 6
ENDMDL
MODEL 3
REMARK VINA RESULT:      -0.6      1.459      4.627
REMARK  6 active torsions:
REMARK  status: ('A' for Active; 'I' for Inactive)
REMARK    1  A    between atoms: S_2  and  C_1 
REMARK    2  A    between atoms: C_7  and  S_2 
REMARK    3  A    between atoms: N_10  and  C_6 
REMARK    4  A    between atoms: C_18  and  N_10 
REMARK    5  A    between atoms: N_14  and  C_19 
REMARK    6  A    between atoms: C_19  and  C_18 
ROOT
ATOM      1  C   UNL d   1      31.961  17.533 -23.721  0.00  0.00     0.187 A 
ATOM      2  N   UNL d   1      31.207  17.324 -23.844  0.00  0.00    -0.208 NA
ATOM      3  C   UNL d   1      32.421  16.908 -23.897  0.00  0.00     0.118 A 
ATOM      4  S   UNL d   1      31.947  16.313 -24.130  0.00  0.00    -0.035 SA
ATOM      5  C   UNL d   1      31.193  16.570 -24.098  0.00  0.00     0.196 A 
ATOM      6 CL   UNL d   1      33.241  16.881 -23.848  0.00  0.00    -0.073 Cl
ENDROOT
BRANCH   1   7
ATOM      7  S   UNL d   1      32.224  18.263 -23.458  0.00  0.00     0.228 S 
ATOM      8  O   UNL d   1      32.779  17.909 -22.770  0.00  0.00    -0.216 OA
ATOM      9  O   UNL d   1      31.692  18.658 -24.121  0.00  0.00    -0.216 OA
BRANCH   7  10
ATOM     10  C   UNL d   1      32.477  19.002 -23.207  0.00  0.00     0.089 A 
ATOM     11  C   UNL d   1      32.644  19.590 -23.761  0.00  0.00     0.011 A 
ATOM     12  C   UNL d   1      32.899  20.332 -23.514  0.00  0.00     0.001 A 
ATOM     13  C   UNL d   1      32.986  20.487 -22.707  0.00  0.00     0.000 A 
ATOM     14  C   UNL d   1      32.818  19.899 -22.148  0.00  0.00     0.001 A 
ATOM     15  C   UNL d   1      33.241  21.232 -22.458  0.00  0.00     0.000 C 
ATOM     16  C   UNL d   1      32.563  19.155 -22.407  0.00  0.00     0.011 A 
ENDBRANCH   7  10
ENDBRANCH   1   7
BRANCH   5  17
ATOM     17  N   UNL d   1      30.523  16.131 -24.292  0.00  0.00    -0.218 NA
BRANCH  17  18
ATOM     18  C   UNL d   1      29.916  16.058 -23.758  0.00  0.00     0.120 C 
BRANCH  18  19
ATOM     19  C   UNL d   1      29.128  16.030 -24.023  0.00  0.00     0.101 C 
BRANCH  19  20
ATOM     20  N   UNL d   1      28.551  15.654 -23.568  0.00  0.00    -0.299 N 
ATOM     21  C   UNL d   1      28.703  15.461 -22.787  0.00  0.00     0.100 C 
ATOM     22  C   UNL d   1      27.819  15.473 -23.899  0.00  0.00     0.100 C 
ENDBRANCH  19  20
ENDBRANCH  18  19
ENDBRANCH  17  18
ENDBRANCH   5  17
TORSDOF 6
ENDMDL
MODEL 4
REMARK VINA RESULT:      -0.5      2.177      4.987
REMARK  6 active torsions:
REMARK  status: ('A' for Active; 'I' for Inactive)
REMARK    1  A    between atoms: S_2  and  C_1 
REMARK    2  A    between atoms: C_7  and  S_2 
REMARK    3  A    between atoms: N_10  and  C_6 
REMARK    4  A    between atoms: C_18  and  N_10 
REMARK    5  A    between atoms: N_14  and  C_19 
REMARK    6  A    between atoms: C_19  and  C_18 
ROOT
ATOM      1  C   UNL d   1      32.706  19.128 -23.569  0.00  0.00     0.187 A 
ATOM      2  N   UNL d   1      32.390  18.403 -23.597  0.00  0.00    -0.208 NA
ATOM      3  C   UNL d   1      32.897  19.343 -24.312  0.00  0.00     0.118 A 
ATOM      4  S   UNL d   1      32.696  18.744 -24.797  0.00  0.00    -0.035 SA
ATOM      5  C   UNL d   1      32.381  18.161 -24.354  0.00  0.00     0.196 A 
ATOM      6 CL   UNL d   1      33.240  20.054 -24.538  0.00  0.00    -0.073 Cl
ENDROOT
BRANCH   1   7
ATOM      7  S   UNL d   1      32.819  19.582 -22.897  0.00  0.00     0.228 S 
ATOM      8  O   UNL d   1      33.241  18.888 -22.398  0.00  0.00    -0.216 OA
ATOM      9  O   UNL d   1      32.410  20.294 -23.346  0.00  0.00    -0.216 OA
BRANCH   7  10
ATOM     10  C   UNL d   1      32.924  20.050 -22.231  0.00  0.00     0.089 A 
ATOM     11  C   UNL d   1      33.027  19.700 -21.492  0.00  0.00     0.011 A 
ATOM     12  C   UNL d   1      33.132  20.165 -20.822  0.00  0.00     0.001 A 
ATOM     13  C   UNL d   1      33.135  20.988 -20.893  0.00  0.00     0.000 A 
ATOM     14  C   UNL d   1      33.032  21.345 -21.634  0.00  0.00     0.001 A 
ATOM     15  C   UNL d   1      33.241  21.458 -20.222  0.00  0.00     0.000 C 
ATOM     16  C   UNL d   1      32.926  20.867 -22.302  0.00  0.00     0.011 A 
ENDBRANCH   7  10
ENDBRANCH   1   7
BRANCH   5  17
ATOM     17  N   UNL d   1      32.100  17.439 -24.635  0.00  0.00    -0.218 NA
BRANCH  17  18
ATOM     18  C   UNL d   1      31.310  17.348 -24.799  0.00  0.00     0.120 C 
BRANCH  18  19
ATOM     19  C   UNL d   1      30.971  16.587 -24.815  0.00  0.00     0.101 C 
BRANCH  19  20
ATOM     20  N   UNL d   1      30.183  16.481 -24.598  0.00  0.00    -0.299 N 
ATOM     21  C   UNL d   1      29.582  16.788 -25.061  0.00  0.00     0.100 C 
ATOM     22  C   UNL d   1      29.998  16.064 -23.912  0.00  0.00     0.100 C 
ENDBRANCH  19  20
ENDBRANCH  18  19
ENDBRANCH  17  18
ENDBRANCH   5  17
TORSDOF 6
ENDMDL
MODEL 5
REMARK VINA RESULT:      -0.4      4.346      5.822
REMARK  6 active torsions:
REMARK  status: ('A' for Active; 'I' for Inactive)
REMARK    1  A    between atoms: S_2  and  C_1 
REMARK    2  A    between atoms: C_7  and  S_2 
REMARK    3  A    between atoms: N_10  and  C_6 
REMARK    4  A    between atoms: C_18  and  N_10 
REMARK    5  A    between atoms: N_14  and  C_19 
REMARK    6  A    between atoms: C_19  and  C_18 
ROOT
ATOM      1  C   UNL d   1      32.717  21.258 -21.245  0.00  0.00     0.187 A 
ATOM      2  N   UNL d   1      33.217  21.560 -20.710  0.00  0.00    -0.208 NA
ATOM      3  C   UNL d   1      32.088  21.744 -21.295  0.00  0.00     0.118 A 
ATOM      4  S   UNL d   1      32.204  22.347 -20.789  0.00  0.00    -0.035 SA
ATOM      5  C   UNL d   1      32.905  22.234 -20.426  0.00  0.00     0.196 A 
ATOM      6 CL   UNL d   1      31.435  21.641 -21.783  0.00  0.00    -0.073 Cl
ENDROOT
BRANCH   1   7
ATOM      7  S   UNL d   1      32.824  20.568 -21.672  0.00  0.00     0.228 S 
ATOM      8  O   UNL d   1      33.092  21.006 -22.474  0.00  0.00    -0.216 OA
ATOM      9  O   UNL d   1      32.566  20.092 -20.907  0.00  0.00    -0.216 OA
BRANCH   7  10
ATOM     10  C   UNL d   1      32.927  19.866 -22.085  0.00  0.00     0.089 A 
ATOM     11  C   UNL d   1      32.820  19.849 -22.902  0.00  0.00     0.011 A 
ATOM     12  C   UNL d   1      32.921  19.148 -23.320  0.00  0.00     0.001 A 
ATOM     13  C   UNL d   1      33.132  18.459 -22.917  0.00  0.00     0.000 A 
ATOM     14  C   UNL d   1      33.240  18.471 -22.095  0.00  0.00     0.001 A 
ATOM     15  C   UNL d   1      33.234  17.754 -23.335  0.00  0.00     0.000 C 
ATOM     16  C   UNL d   1      33.135  19.182 -21.684  0.00  0.00     0.011 A 
ENDBRANCH   7  10
ENDBRANCH   1   7
BRANCH   5  17
ATOM     17  N   UNL d   1      33.240  22.728 -19.859  0.00  0.00    -0.218 NA
BRANCH  17  18
ATOM     18  C   UNL d   1      33.102  22.594 -19.070  0.00  0.00     0.120 C 
BRANCH  18  19
ATOM     19  C   UNL d   1      33.118  23.226 -18.529  0.00  0.00     0.101 C 
BRANCH  19  20
ATOM     20  N   UNL d   1      32.846  23.119 -17.758  0.00  0.00    -0.299 N 
ATOM     21  C   UNL d   1      32.199  23.539 -17.485  0.00  0.00     0.100 C 
ATOM     22  C   UNL d   1      33.227  22.585 -17.259  0.00  0.00     0.100 C 
ENDBRANCH  19  20
ENDBRANCH  18  19
ENDBRANCH  17  18
ENDBRANCH   5  17
TORSDOF 6
ENDMDL
MODEL 6
REMARK VINA RESULT:       0.1      5.011      7.344
REMARK  6 active torsions:
REMARK  status: ('A' for Active; 'I' for Inactive)
REMARK    1  A    between atoms: S_2  and  C_1 
REMARK    2  A    between atoms: C_7  and  S_2 
REMARK    3  A    between atoms: N_10  and  C_6 
REMARK    4  A    between atoms: C_18  and  N_10 
REMARK    5  A    between atoms: N_14  and  C_19 
REMARK    6  A    between atoms: C_19  and  C_18 
ROOT
ATOM      1  C   UNL d   1      32.618  22.443 -20.568  0.00  0.00     0.187 A 
ATOM      2  N   UNL d   1      33.145  22.147 -21.079  0.00  0.00    -0.208 NA
ATOM      3  C   UNL d   1      31.948  22.600 -20.968  0.00  0.00     0.118 A 
ATOM      4  S   UNL d   1      32.065  22.398 -21.729  0.00  0.00    -0.035 SA
ATOM      5  C   UNL d   1      32.808  22.116 -21.799  0.00  0.00     0.196 A 
ATOM      6 CL   UNL d   1      31.258  22.914 -20.653  0.00  0.00    -0.073 Cl
ENDROOT
BRANCH   1   7
ATOM      7  S   UNL d   1      32.738  22.569 -19.768  0.00  0.00     0.228 S 
ATOM      8  O   UNL d   1      32.960  21.663 -19.573  0.00  0.00    -0.216 OA
ATOM      9  O   UNL d   1      32.527  23.470 -19.909  0.00  0.00    -0.216 OA
BRANCH   7  10
ATOM     10  C   UNL d   1      32.854  22.712 -18.968  0.00  0.00     0.089 A 
ATOM     11  C   UNL d   1      33.122  22.108 -18.475  0.00  0.00     0.011 A 
ATOM     12  C   UNL d   1      33.240  22.247 -17.673  0.00  0.00     0.001 A 
ATOM     13  C   UNL d   1      33.088  22.997 -17.362  0.00  0.00     0.000 A 
ATOM     14  C   UNL d   1      32.819  23.607 -17.854  0.00  0.00     0.001 A 
ATOM     15  C   UNL d   1      33.206  23.139 -16.557  0.00  0.00     0.000 C 
ATOM     16  C   UNL d   1      32.704  23.456 -18.660  0.00  0.00     0.011 A 
ENDBRANCH   7  10
ENDBRANCH   1   7
BRANCH   5  17
ATOM     17  N   UNL d   1      33.159  21.845 -22.493  0.00  0.00    -0.218 NA
BRANCH  17  18
ATOM     18  C   UNL d   1      33.162  21.051 -22.663  0.00  0.00     0.120 C 
BRANCH  18  19
ATOM     19  C   UNL d   1      33.239  20.792 -23.450  0.00  0.00     0.101 C 
BRANCH  19  20
ATOM     20  N   UNL d   1      33.212  19.986 -23.625  0.00  0.00    -0.299 N 
ATOM     21  C   UNL d   1      33.193  19.432 -23.023  0.00  0.00     0.100 C 
ATOM     22  C   UNL d   1      33.205  19.736 -24.410  0.00  0.00     0.100 C 
ENDBRANCH  19  20
ENDBRANCH  18  19
ENDBRANCH  17  18
ENDBRANCH   5  17
TORSDOF 6
ENDMDL
MODEL 7
REMARK VINA RESULT:       0.4      6.536      7.647
REMARK  6 active torsions:
REMARK  status: ('A' for Active; 'I' for Inactive)
REMARK    1  A    between atoms: S_2  and  C_1 
REMARK    2  A    between atoms: C_7  and  S_2 
REMARK    3  A    between atoms: N_10  and  C_6 
REMARK    4  A    between atoms: C_18  and  N_10 
REMARK    5  A    between atoms: N_14  and  C_19 
REMARK    6  A    between atoms: C_19  and  C_18 
ROOT
ATOM      1  C   UNL d   1      32.924  22.745 -20.497  0.00  0.00     0.187 A 
ATOM      2  N   UNL d   1      33.130  23.309 -19.979  0.00  0.00    -0.208 NA
ATOM      3  C   UNL d   1      32.742  22.088 -20.086  0.00  0.00     0.118 A 
ATOM      4  S   UNL d   1      32.837  22.250 -19.312  0.00  0.00    -0.035 SA
ATOM      5  C   UNL d   1      33.077  23.008 -19.245  0.00  0.00     0.196 A 
ATOM      6 CL   UNL d   1      32.500  21.371 -20.403  0.00  0.00    -0.073 Cl
ENDROOT
BRANCH   1   7
ATOM      7  S   UNL d   1      32.902  22.822 -21.312  0.00  0.00     0.228 S 
ATOM      8  O   UNL d   1      33.241  21.949 -21.487  0.00  0.00    -0.216 OA
ATOM      9  O   UNL d   1      32.567  23.688 -21.190  0.00  0.00    -0.216 OA
BRANCH   7  10
ATOM     10  C   UNL d   1      32.873  22.916 -22.127  0.00  0.00     0.089 A 
ATOM     11  C   UNL d   1      33.177  22.329 -22.621  0.00  0.00     0.011 A 
ATOM     12  C   UNL d   1      33.150  22.419 -23.438  0.00  0.00     0.001 A 
ATOM     13  C   UNL d   1      32.817  23.101 -23.763  0.00  0.00     0.000 A 
ATOM     14  C   UNL d   1      32.511  23.693 -23.270  0.00  0.00     0.001 A 
ATOM     15  C   UNL d   1      32.789  23.193 -24.583  0.00  0.00     0.000 C 
ATOM     16  C   UNL d   1      32.543  23.593 -22.449  0.00  0.00     0.011 A 
ENDBRANCH   7  10
ENDBRANCH   1   7
BRANCH   5  17
ATOM     17  N   UNL d   1      33.240  23.402 -18.541  0.00  0.00    -0.218 NA
BRANCH  17  18
ATOM     18  C   UNL d   1      33.065  23.053 -17.829  0.00  0.00     0.120 C 
BRANCH  18  19
ATOM     19  C   UNL d   1      32.662  23.482 -17.240  0.00  0.00     0.101 C 
BRANCH  19  20
ATOM     20  N   UNL d   1      32.653  23.208 -16.463  0.00  0.00    -0.299 N 
ATOM     21  C   UNL d   1      33.241  23.431 -15.938  0.00  0.00     0.100 C 
ATOM     22  C   UNL d   1      32.048  22.709 -16.210  0.00  0.00     0.100 C 
ENDBRANCH  19  20
ENDBRANCH  18  19
ENDBRANCH  17  18
ENDBRANCH   5  17
TORSDOF 6
ENDMDL
