MODEL 1
REMARK VINA RESULT:      28.5      0.000      0.000
REMARK  6 active torsions:
REMARK  status: ('A' for Active; 'I' for Inactive)
REMARK    1  A    between atoms: C_2  and  N_1 
REMARK       I    between atoms: C_3  and  N_9 
REMARK    2  A    between atoms: C_5  and  C_3 
REMARK    3  A    between atoms: C_6  and  C_5 
REMARK    4  A    between atoms: C_7  and  C_6 
REMARK    5  A    between atoms: O_14  and  C_7 
REMARK    6  A    between atoms: N_9  and  C_11 
ROOT
ATOM      1  C   UNL d   1      58.728  49.393  50.671  0.00  0.00     0.258 C 
ATOM      2  N   UNL d   1      59.466  49.665  50.422  0.00  0.00    -0.321 N 
ATOM      3  O   UNL d   1      58.683  48.809  51.240  0.00  0.00    -0.267 OA
ATOM      4  H   UNL d   1      59.511  50.248  49.854  0.00  0.00     0.169 HD
ENDROOT
BRANCH   2   5
ATOM      5  C   UNL d   1      60.144  49.341  50.751  0.00  0.00     0.061 A 
ATOM      6  C   UNL d   1      60.445  48.623  50.445  0.00  0.00     0.041 A 
ATOM      7  C   UNL d   1      61.128  48.288  50.770  0.00  0.00     0.128 A 
ATOM      8  C   UNL d   1      61.509  48.670  51.398  0.00  0.00     0.024 A 
ATOM      9  C   UNL d   1      61.213  49.377  51.700  0.00  0.00     0.003 A 
ATOM     10  C   UNL d   1      60.540  49.706  51.380  0.00  0.00     0.017 A 
BRANCH   7  11
ATOM     11  N   UNL d   1      61.427  47.583  50.472  0.00  0.00    -0.114 N 
ATOM     12  O   UNL d   1      60.918  46.994  50.200  0.00  0.00    -0.532 OA
ATOM     13  O   UNL d   1      62.245  47.467  50.447  0.00  0.00    -0.532 OA
ENDBRANCH   7  11
ENDBRANCH   2   5
BRANCH   1  14
ATOM     14  C   UNL d   1      58.043  49.708  50.350  0.00  0.00     0.066 C 
BRANCH  14  15
ATOM     15  C   UNL d   1      57.334  49.609  50.744  0.00  0.00     0.073 C 
BRANCH  15  16
ATOM     16  C   UNL d   1      56.690  49.249  50.370  0.00  0.00     0.296 C 
ATOM     17  O   UNL d   1      56.564  48.439  50.457  0.00  0.00    -0.259 OA
BRANCH  16  18
ATOM     18  O   UNL d   1      56.181  49.705  49.913  0.00  0.00    -0.296 OA
ATOM     19  C   UNL d   1      56.234  49.689  49.088  0.00  0.00     0.185 C 
ENDBRANCH  16  18
ENDBRANCH  15  16
ENDBRANCH  14  15
ENDBRANCH   1  14
TORSDOF 6
ENDMDL
