MODEL 1
REMARK VINA RESULT:      -2.0      0.000      0.000
REMARK  11 active torsions:
REMARK  status: ('A' for Active; 'I' for Inactive)
REMARK    1  A    between atoms: N_5  and  S_1 
REMARK    2  A    between atoms: C_8  and  S_1 
REMARK    3  A    between atoms: C_2  and  N_10 
REMARK    4  A    between atoms: C_9  and  N_5 
REMARK    5  A    between atoms: C_18  and  N_5 
REMARK    6  A    between atoms: C_13  and  C_9 
REMARK    7  A    between atoms: N_10  and  O_14 
REMARK    8  A    between atoms: C_17  and  C_13 
REMARK    9  A    between atoms: O_14  and  C_17 
REMARK   10  A    between atoms: C_27  and  C_18 
REMARK   11  A    between atoms: C_29  and  C_27 
ROOT
ATOM      1  C   UNL d   1      57.161  -1.169  31.491  0.00  0.00     0.240 C 
ATOM      2  O   UNL d   1      56.484  -1.623  31.369  0.00  0.00    -0.283 OA
ENDROOT
BRANCH   1   3
ATOM      3  C   UNL d   1      56.795  -0.943  32.200  0.00  0.00     0.136 C 
BRANCH   3   4
ATOM      4  N   UNL d   1      56.954  -0.194  32.513  0.00  0.00    -0.226 N 
BRANCH   4   5
ATOM      5  S   UNL d   1      56.455   0.130  33.090  0.00  0.00     0.271 S 
ATOM      6  O   UNL d   1      57.125   0.612  33.155  0.00  0.00    -0.200 OA
ATOM      7  O   UNL d   1      55.715  -0.220  33.185  0.00  0.00    -0.200 OA
BRANCH   5   8
ATOM      8  C   UNL d   1      55.808   0.264  33.577  0.00  0.00     0.104 A 
ATOM      9  C   UNL d   1      55.049   0.281  33.257  0.00  0.00     0.013 A 
ATOM     10  C   UNL d   1      54.399   0.417  33.751  0.00  0.00     0.001 A 
ATOM     11  C   UNL d   1      54.513   0.536  34.562  0.00  0.00     0.000 A 
ATOM     12  C   UNL d   1      55.301   0.509  34.831  0.00  0.00     0.001 A 
ATOM     13  C   UNL d   1      53.880   0.674  35.074  0.00  0.00     0.000 C 
ATOM     14  C   UNL d   1      55.969   0.377  34.377  0.00  0.00     0.013 A 
ENDBRANCH   5   8
ENDBRANCH   4   5
BRANCH   4  15
ATOM     15  C   UNL d   1      57.550   0.349  32.365  0.00  0.00     0.095 C 
BRANCH  15  16
ATOM     16  C   UNL d   1      58.342   0.116  32.430  0.00  0.00     0.065 C 
BRANCH  16  17
ATOM     17  C   UNL d   1      58.921   0.675  32.626  0.00  0.00     0.236 C 
ATOM     18  O   UNL d   1      59.714   0.498  32.524  0.00  0.00    -0.283 OA
ENDBRANCH  16  17
ENDBRANCH  15  16
ENDBRANCH   4  15
ENDBRANCH   3   4
ENDBRANCH   1   3
BRANCH   1  19
ATOM     19  C   UNL d   1      57.763  -1.167  30.938  0.00  0.00     0.193 C 
BRANCH  19  20
ATOM     20  O   UNL d   1      57.581  -1.210  30.134  0.00  0.00    -0.206 OA
BRANCH  20  21
ATOM     21  N   UNL d   1      57.998  -1.731  29.641  0.00  0.00    -0.126 NA
BRANCH  21  22
ATOM     22  C   UNL d   1      58.716  -1.500  29.309  0.00  0.00     0.108 A 
ATOM     23  C   UNL d   1      59.370  -1.988  29.175  0.00  0.00     0.020 A 
ATOM     24  C   UNL d   1      59.961  -1.522  28.835  0.00  0.00     0.002 A 
ATOM     25  C   UNL d   1      59.497  -2.781  29.317  0.00  0.00     0.002 A 
ATOM     26  C   UNL d   1      60.686  -1.868  28.639  0.00  0.00     0.000 A 
ATOM     27  C   UNL d   1      59.687  -0.756  28.756  0.00  0.00     0.002 A 
ATOM     28  C   UNL d   1      60.814  -2.665  28.782  0.00  0.00     0.000 A 
ATOM     29  C   UNL d   1      60.219  -3.120  29.121  0.00  0.00     0.000 A 
ATOM     30  C   UNL d   1      58.916  -0.737  29.048  0.00  0.00     0.020 A 
ATOM     31  C   UNL d   1      60.027  -0.072  28.461  0.00  0.00     0.000 A 
ATOM     32  C   UNL d   1      58.486  -0.036  29.045  0.00  0.00     0.002 A 
ATOM     33  C   UNL d   1      58.825   0.652  28.749  0.00  0.00     0.000 A 
ATOM     34  C   UNL d   1      59.602   0.629  28.455  0.00  0.00     0.000 A 
ENDBRANCH  21  22
ENDBRANCH  20  21
ENDBRANCH  19  20
ENDBRANCH   1  19
TORSDOF 11
ENDMDL
MODEL 2
REMARK VINA RESULT:      -1.6      1.513      5.928
REMARK  11 active torsions:
REMARK  status: ('A' for Active; 'I' for Inactive)
REMARK    1  A    between atoms: N_5  and  S_1 
REMARK    2  A    between atoms: C_8  and  S_1 
REMARK    3  A    between atoms: C_2  and  N_10 
REMARK    4  A    between atoms: C_9  and  N_5 
REMARK    5  A    between atoms: C_18  and  N_5 
REMARK    6  A    between atoms: C_13  and  C_9 
REMARK    7  A    between atoms: N_10  and  O_14 
REMARK    8  A    between atoms: C_17  and  C_13 
REMARK    9  A    between atoms: O_14  and  C_17 
REMARK   10  A    between atoms: C_27  and  C_18 
REMARK   11  A    between atoms: C_29  and  C_27 
ROOT
ATOM      1  C   UNL d   1      57.967  -0.999  30.736  0.00  0.00     0.240 C 
ATOM      2  O   UNL d   1      57.613  -1.727  30.892  0.00  0.00    -0.283 OA
ENDROOT
BRANCH   1   3
ATOM      3  C   UNL d   1      58.604  -1.450  30.455  0.00  0.00     0.136 C 
BRANCH   3   4
ATOM      4  N   UNL d   1      58.880  -1.319  29.686  0.00  0.00    -0.226 N 
BRANCH   4   5
ATOM      5  S   UNL d   1      59.276  -1.922  29.278  0.00  0.00     0.271 S 
ATOM      6  O   UNL d   1      59.064  -1.411  28.662  0.00  0.00    -0.200 OA
ATOM      7  O   UNL d   1      59.574  -2.545  29.727  0.00  0.00    -0.200 OA
BRANCH   5   8
ATOM      8  C   UNL d   1      59.690  -2.610  29.111  0.00  0.00     0.104 A 
ATOM      9  C   UNL d   1      60.496  -2.655  29.273  0.00  0.00     0.013 A 
ATOM     10  C   UNL d   1      60.911  -3.351  29.104  0.00  0.00     0.001 A 
ATOM     11  C   UNL d   1      60.516  -3.998  28.772  0.00  0.00     0.000 A 
ATOM     12  C   UNL d   1      59.701  -3.898  28.629  0.00  0.00     0.001 A 
ATOM     13  C   UNL d   1      60.909  -4.703  28.595  0.00  0.00     0.000 C 
ATOM     14  C   UNL d   1      59.256  -3.229  28.782  0.00  0.00     0.013 A 
ENDBRANCH   5   8
ENDBRANCH   4   5
BRANCH   4  15
ATOM     15  C   UNL d   1      58.845  -0.665  29.194  0.00  0.00     0.095 C 
BRANCH  15  16
ATOM     16  C   UNL d   1      58.860   0.096  29.521  0.00  0.00     0.065 C 
BRANCH  16  17
ATOM     17  C   UNL d   1      59.337   0.682  29.180  0.00  0.00     0.236 C 
ATOM     18  O   UNL d   1      59.695   0.551  28.456  0.00  0.00    -0.283 OA
ENDBRANCH  16  17
ENDBRANCH  15  16
ENDBRANCH   4  15
ENDBRANCH   3   4
ENDBRANCH   1   3
BRANCH   1  19
ATOM     19  C   UNL d   1      57.576  -0.302  30.909  0.00  0.00     0.193 C 
BRANCH  19  20
ATOM     20  O   UNL d   1      57.678   0.052  31.648  0.00  0.00    -0.206 OA
BRANCH  20  21
ATOM     21  N   UNL d   1      57.087   0.544  31.958  0.00  0.00    -0.126 NA
BRANCH  21  22
ATOM     22  C   UNL d   1      56.939   0.551  32.769  0.00  0.00     0.108 A 
ATOM     23  C   UNL d   1      57.509   0.594  33.367  0.00  0.00     0.020 A 
ATOM     24  C   UNL d   1      57.109   0.584  34.090  0.00  0.00     0.002 A 
ATOM     25  C   UNL d   1      58.322   0.639  33.343  0.00  0.00     0.002 A 
ATOM     26  C   UNL d   1      57.544   0.621  34.792  0.00  0.00     0.000 A 
ATOM     27  C   UNL d   1      56.305   0.536  33.951  0.00  0.00     0.002 A 
ATOM     28  C   UNL d   1      58.361   0.667  34.769  0.00  0.00     0.000 A 
ATOM     29  C   UNL d   1      58.749   0.676  34.044  0.00  0.00     0.000 A 
ATOM     30  C   UNL d   1      56.194   0.515  33.135  0.00  0.00     0.020 A 
ATOM     31  C   UNL d   1      55.656   0.509  34.451  0.00  0.00     0.000 A 
ATOM     32  C   UNL d   1      55.437   0.467  32.818  0.00  0.00     0.002 A 
ATOM     33  C   UNL d   1      54.784   0.439  33.317  0.00  0.00     0.000 A 
ATOM     34  C   UNL d   1      54.899   0.460  34.139  0.00  0.00     0.000 A 
ENDBRANCH  21  22
ENDBRANCH  20  21
ENDBRANCH  19  20
ENDBRANCH   1  19
TORSDOF 11
ENDMDL
MODEL 3
REMARK VINA RESULT:       0.8      1.312      2.311
REMARK  11 active torsions:
REMARK  status: ('A' for Active; 'I' for Inactive)
REMARK    1  A    between atoms: N_5  and  S_1 
REMARK    2  A    between atoms: C_8  and  S_1 
REMARK    3  A    between atoms: C_2  and  N_10 
REMARK    4  A    between atoms: C_9  and  N_5 
REMARK    5  A    between atoms: C_18  and  N_5 
REMARK    6  A    between atoms: C_13  and  C_9 
REMARK    7  A    between atoms: N_10  and  O_14 
REMARK    8  A    between atoms: C_17  and  C_13 
REMARK    9  A    between atoms: O_14  and  C_17 
REMARK   10  A    between atoms: C_27  and  C_18 
REMARK   11  A    between atoms: C_29  and  C_27 
ROOT
ATOM      1  C   UNL d   1      57.376  -0.193  29.944  0.00  0.00     0.240 C 
ATOM      2  O   UNL d   1      56.690   0.241  29.798  0.00  0.00    -0.283 OA
ENDROOT
BRANCH   1   3
ATOM      3  C   UNL d   1      57.625   0.478  30.364  0.00  0.00     0.136 C 
BRANCH   3   4
ATOM      4  N   UNL d   1      57.796   0.406  31.170  0.00  0.00    -0.226 N 
BRANCH   4   5
ATOM      5  S   UNL d   1      57.183   0.306  31.718  0.00  0.00     0.271 S 
ATOM      6  O   UNL d   1      56.777   0.258  30.998  0.00  0.00    -0.200 OA
ATOM      7  O   UNL d   1      57.386   0.322  32.516  0.00  0.00    -0.200 OA
BRANCH   5   8
ATOM      8  C   UNL d   1      56.770   0.233  32.423  0.00  0.00     0.104 A 
ATOM      9  C   UNL d   1      57.178   0.202  33.138  0.00  0.00     0.013 A 
ATOM     10  C   UNL d   1      56.758   0.128  33.848  0.00  0.00     0.001 A 
ATOM     11  C   UNL d   1      55.931   0.086  33.837  0.00  0.00     0.000 A 
ATOM     12  C   UNL d   1      55.571   0.122  33.087  0.00  0.00     0.001 A 
ATOM     13  C   UNL d   1      55.491   0.012  34.532  0.00  0.00     0.000 C 
ATOM     14  C   UNL d   1      55.949   0.194  32.365  0.00  0.00     0.013 A 
ENDBRANCH   5   8
ENDBRANCH   4   5
BRANCH   4  15
ATOM     15  C   UNL d   1      58.503   0.412  31.584  0.00  0.00     0.095 C 
BRANCH  15  16
ATOM     16  C   UNL d   1      59.193   0.680  31.213  0.00  0.00     0.065 C 
BRANCH  16  17
ATOM     17  C   UNL d   1      59.934   0.495  31.535  0.00  0.00     0.236 C 
ATOM     18  O   UNL d   1      60.589   0.430  31.049  0.00  0.00    -0.283 OA
ENDBRANCH  16  17
ENDBRANCH  15  16
ENDBRANCH   4  15
ENDBRANCH   3   4
ENDBRANCH   1   3
BRANCH   1  19
ATOM     19  C   UNL d   1      57.456  -0.951  29.649  0.00  0.00     0.193 C 
BRANCH  19  20
ATOM     20  O   UNL d   1      58.165  -1.178  29.292  0.00  0.00    -0.206 OA
BRANCH  20  21
ATOM     21  N   UNL d   1      58.155  -1.682  28.633  0.00  0.00    -0.126 NA
BRANCH  21  22
ATOM     22  C   UNL d   1      58.684  -2.313  28.589  0.00  0.00     0.108 A 
ATOM     23  C   UNL d   1      59.509  -2.256  28.564  0.00  0.00     0.020 A 
ATOM     24  C   UNL d   1      59.809  -3.024  28.522  0.00  0.00     0.002 A 
ATOM     25  C   UNL d   1      60.011  -1.614  28.575  0.00  0.00     0.002 A 
ATOM     26  C   UNL d   1      60.627  -3.137  28.490  0.00  0.00     0.000 A 
ATOM     27  C   UNL d   1      59.188  -3.555  28.520  0.00  0.00     0.002 A 
ATOM     28  C   UNL d   1      61.133  -2.492  28.501  0.00  0.00     0.000 A 
ATOM     29  C   UNL d   1      60.824  -1.732  28.543  0.00  0.00     0.000 A 
ATOM     30  C   UNL d   1      58.489  -3.120  28.562  0.00  0.00     0.020 A 
ATOM     31  C   UNL d   1      59.157  -4.373  28.487  0.00  0.00     0.000 A 
ATOM     32  C   UNL d   1      57.760  -3.500  28.570  0.00  0.00     0.002 A 
ATOM     33  C   UNL d   1      57.726  -4.322  28.536  0.00  0.00     0.000 A 
ATOM     34  C   UNL d   1      58.432  -4.757  28.495  0.00  0.00     0.000 A 
ENDBRANCH  21  22
ENDBRANCH  20  21
ENDBRANCH  19  20
ENDBRANCH   1  19
TORSDOF 11
ENDMDL
