MODEL 1
REMARK VINA RESULT:      10.6      0.000      0.000
REMARK  2 active torsions:
REMARK  status: ('A' for Active; 'I' for Inactive)
REMARK    1  A    between atoms: S_6  and  C_1 
REMARK    2  A    between atoms: C_7  and  S_6 
ROOT
ATOM      1  C   UNL d   1      58.805  49.705  50.535  0.00  0.00     0.194 A 
ATOM      2  N   UNL d   1      58.170  49.703  51.098  0.00  0.00    -0.220 NA
ATOM      3  N   UNL d   1      58.469  49.705  49.783  0.00  0.00    -0.220 NA
ATOM      4  C   UNL d   1      57.477  49.701  50.682  0.00  0.00     0.101 A 
ATOM      5  C   UNL d   1      57.666  49.703  49.851  0.00  0.00     0.101 A 
ATOM      6  C   UNL d   1      56.666  49.699  50.893  0.00  0.00     0.021 A 
ATOM      7  C   UNL d   1      57.062  49.702  49.291  0.00  0.00     0.021 A 
ATOM      8  C   UNL d   1      56.273  49.699  49.534  0.00  0.00     0.002 A 
ATOM      9  C   UNL d   1      56.089  49.698  50.339  0.00  0.00     0.002 A 
ENDROOT
BRANCH   1  10
ATOM     10  S   UNL d   1      59.409  49.707  51.096  0.00  0.00    -0.049 SA
BRANCH  10  11
ATOM     11  C   UNL d   1      60.198  49.700  50.852  0.00  0.00     0.032 C 
ATOM     12  C   UNL d   1      60.803  49.688  51.413  0.00  0.00     0.007 C 
ATOM     13  C   UNL d   1      60.576  49.704  50.119  0.00  0.00     0.007 C 
ENDBRANCH  10  11
ENDBRANCH   1  10
TORSDOF 2
ENDMDL
