MODEL 1
REMARK VINA RESULT:      32.8      0.000      0.000
REMARK  7 active torsions:
REMARK  status: ('A' for Active; 'I' for Inactive)
REMARK    1  A    between atoms: C_10  and  C_4 
REMARK    2  A    between atoms: N_12  and  C_5 
REMARK    3  A    between atoms: C_11  and  C_8 
REMARK    4  A    between atoms: C_21  and  N_12 
REMARK    5  A    between atoms: N_16  and  C_25 
REMARK    6  A    between atoms: C_20  and  C_21 
REMARK    7  A    between atoms: C_25  and  C_20 
ROOT
ATOM      1  C   UNL d   1      46.278 -17.671  42.800  0.00  0.00     0.168 A 
ATOM      2  N   UNL d   1      46.212 -16.983  43.267  0.00  0.00    -0.184 N 
ATOM      3  N   UNL d   1      46.230 -18.402  43.154  0.00  0.00    -0.231 NA
ATOM      4  C   UNL d   1      46.387 -17.605  42.003  0.00  0.00     0.057 A 
ATOM      5  C   UNL d   1      46.103 -17.059  44.066  0.00  0.00     0.217 A 
ATOM      6  N   UNL d   1      46.368 -16.195  42.122  0.00  0.00    -0.160 NA
ATOM      7  C   UNL d   1      46.054 -17.790  44.426  0.00  0.00     0.067 A 
ATOM      8  C   UNL d   1      46.119 -18.474  43.961  0.00  0.00     0.064 A 
ATOM      9  C   UNL d   1      46.433 -16.868  41.664  0.00  0.00     0.124 A 
ENDROOT
BRANCH   4  10
ATOM     10  C   UNL d   1      46.451 -18.279  41.546  0.00  0.00     0.005 A 
ATOM     11  C   UNL d   1      46.507 -19.011  41.893  0.00  0.00     0.001 A 
ATOM     12  C   UNL d   1      46.572 -19.692  41.430  0.00  0.00     0.011 A 
ATOM     13  C   UNL d   1      46.580 -19.632  40.626  0.00  0.00     0.058 A 
ATOM     14  C   UNL d   1      46.523 -18.887  40.276  0.00  0.00     0.011 A 
ATOM     15 CL   UNL d   1      46.647 -20.330  40.152  0.00  0.00    -0.082 Cl
ATOM     16  C   UNL d   1      46.460 -18.224  40.727  0.00  0.00     0.001 A 
ENDBRANCH   4  10
BRANCH   5  17
ATOM     17  N   UNL d   1      46.036 -16.358  44.543  0.00  0.00    -0.380 NA
BRANCH  17  18
ATOM     18  C   UNL d   1      45.972 -15.622  44.954  0.00  0.00     0.164 C 
BRANCH  18  19
ATOM     19  C   UNL d   1      45.498 -15.008  44.622  0.00  0.00     0.054 C 
BRANCH  19  20
ATOM     20  C   UNL d   1      45.624 -14.198  44.876  0.00  0.00     0.083 C 
BRANCH  20  21
ATOM     21  N   UNL d   1      45.437 -13.561  44.355  0.00  0.00    -0.300 N 
ATOM     22  C   UNL d   1      46.074 -13.088  44.660  0.00  0.00     0.100 C 
ATOM     23  C   UNL d   1      44.950 -13.239  43.743  0.00  0.00     0.100 C 
ENDBRANCH  20  21
ENDBRANCH  19  20
ENDBRANCH  18  19
ENDBRANCH  17  18
ENDBRANCH   5  17
BRANCH   8  24
ATOM     24  C   UNL d   1      46.071 -19.244  44.325  0.00  0.00     0.036 C 
ATOM     25  C   UNL d   1      46.019 -20.006  44.688  0.00  0.00     0.006 C 
ATOM     26  C   UNL d   1      46.624 -19.855  44.104  0.00  0.00     0.006 C 
ATOM     27  C   UNL d   1      45.465 -19.396  44.909  0.00  0.00     0.006 C 
ENDBRANCH   8  24
TORSDOF 7
ENDMDL
