MODEL 1
REMARK VINA RESULT:      83.1      0.000      0.000
REMARK  2 active torsions:
REMARK  status: ('A' for Active; 'I' for Inactive)
REMARK    1  A    between atoms: C_10  and  C_4 
REMARK       I    between atoms: N_12  and  C_10 
REMARK       I    between atoms: C_11  and  N_13 
REMARK    2  A    between atoms: C_14  and  C_11 
ROOT
ATOM      1  C   UNL d   1      13.921  13.259  -2.664  0.00  0.00     0.154 A 
ATOM      2  C   UNL d   1      14.295  13.925  -2.356  0.00  0.00     0.093 A 
ATOM      3  N   UNL d   1      13.915  12.549  -2.227  0.00  0.00    -0.211 NA
ATOM      4  C   UNL d   1      13.788  14.248  -3.549  0.00  0.00     0.122 A 
ATOM      5  N   UNL d   1      13.610  13.457  -3.398  0.00  0.00    -0.285 N 
ATOM      6  C   UNL d   1      14.663  13.892  -1.615  0.00  0.00     0.269 A 
ATOM      7  N   UNL d   1      14.659  13.194  -1.182  0.00  0.00    -0.259 N 
ATOM      8  C   UNL d   1      14.282  12.514  -1.488  0.00  0.00     0.140 A 
ATOM      9  C   UNL d   1      14.212  14.532  -2.901  0.00  0.00     0.030 A 
ATOM     10  C   UNL d   1      15.025  13.158  -0.444  0.00  0.00     0.084 A 
ATOM     11  O   UNL d   1      15.038  14.564  -1.309  0.00  0.00    -0.266 OA
ATOM     12  C   UNL d   1      14.275  11.819  -1.062  0.00  0.00     0.064 A 
ATOM     13  C   UNL d   1      15.016  12.456  -0.017  0.00  0.00     0.018 A 
ATOM     14  C   UNL d   1      14.637  11.779  -0.329  0.00  0.00    -0.008 A 
ATOM     15  C   UNL d   1      13.189  12.948  -3.898  0.00  0.00     0.101 C 
ENDROOT
BRANCH   4  16
ATOM     16  C   UNL d   1      13.581  14.677  -4.227  0.00  0.00     0.281 C 
ATOM     17  N   UNL d   1      13.849  15.450  -4.319  0.00  0.00    -0.268 N 
ATOM     18  C   UNL d   1      13.642  15.879  -4.996  0.00  0.00     0.102 A 
ATOM     19  C   UNL d   1      14.323  15.799  -3.743  0.00  0.00     0.102 A 
ATOM     20  C   UNL d   1      13.908  16.657  -5.096  0.00  0.00     0.102 A 
ATOM     21  N   UNL d   1      14.380  16.999  -4.518  0.00  0.00    -0.267 N 
ATOM     22  C   UNL d   1      14.648  17.775  -4.614  0.00  0.00     0.288 C 
ATOM     23  C   UNL d   1      14.582  16.561  -3.845  0.00  0.00     0.102 A 
ATOM     24  O   UNL d   1      15.120  18.118  -4.036  0.00  0.00    -0.264 OA
ATOM     25  O   UNL d   1      13.107  14.328  -4.802  0.00  0.00    -0.265 OA
BRANCH  22  26
ATOM     26  C   UNL d   1      14.433  18.193  -5.295  0.00  0.00     0.156 A 
ATOM     27  O   UNL d   1      13.785  18.024  -5.776  0.00  0.00    -0.300 OA
ATOM     28  C   UNL d   1      13.769  18.565  -6.388  0.00  0.00     0.123 A 
ATOM     29  C   UNL d   1      14.408  19.082  -6.298  0.00  0.00     0.029 A 
ATOM     30  C   UNL d   1      14.816  18.847  -5.621  0.00  0.00     0.032 A 
ENDBRANCH  22  26
ENDBRANCH   4  16
TORSDOF 2
ENDMDL
MODEL 2
REMARK VINA RESULT:      85.3      1.403      2.503
REMARK  2 active torsions:
REMARK  status: ('A' for Active; 'I' for Inactive)
REMARK    1  A    between atoms: C_10  and  C_4 
REMARK       I    between atoms: N_12  and  C_10 
REMARK       I    between atoms: C_11  and  N_13 
REMARK    2  A    between atoms: C_14  and  C_11 
ROOT
ATOM      1  C   UNL d   1      14.170  14.461  -3.069  0.00  0.00     0.154 A 
ATOM      2  C   UNL d   1      13.817  14.642  -3.790  0.00  0.00     0.093 A 
ATOM      3  N   UNL d   1      14.104  13.691  -2.758  0.00  0.00    -0.211 NA
ATOM      4  C   UNL d   1      14.424  15.743  -3.338  0.00  0.00     0.122 A 
ATOM      5  N   UNL d   1      14.544  15.137  -2.791  0.00  0.00    -0.285 N 
ATOM      6  C   UNL d   1      13.396  14.064  -4.207  0.00  0.00     0.269 A 
ATOM      7  N   UNL d   1      13.328  13.303  -3.903  0.00  0.00    -0.259 N 
ATOM      8  C   UNL d   1      13.684  13.111  -3.171  0.00  0.00     0.140 A 
ATOM      9  C   UNL d   1      13.973  15.431  -3.955  0.00  0.00     0.030 A 
ATOM     10  C   UNL d   1      12.909  12.724  -4.315  0.00  0.00     0.084 A 
ATOM     11  O   UNL d   1      13.042  14.250  -4.932  0.00  0.00    -0.266 OA
ATOM     12  C   UNL d   1      13.620  12.359  -2.866  0.00  0.00     0.064 A 
ATOM     13  C   UNL d   1      12.846  11.966  -4.004  0.00  0.00     0.018 A 
ATOM     14  C   UNL d   1      13.205  11.781  -3.272  0.00  0.00    -0.008 A 
ATOM     15  C   UNL d   1      14.968  15.199  -2.081  0.00  0.00     0.101 C 
ENDROOT
BRANCH   4  16
ATOM     16  C   UNL d   1      14.704  16.520  -3.279  0.00  0.00     0.281 C 
ATOM     17  N   UNL d   1      14.563  17.053  -3.891  0.00  0.00    -0.268 N 
ATOM     18  C   UNL d   1      14.843  17.830  -3.833  0.00  0.00     0.102 A 
ATOM     19  C   UNL d   1      14.146  16.818  -4.562  0.00  0.00     0.102 A 
ATOM     20  C   UNL d   1      14.705  18.371  -4.444  0.00  0.00     0.102 A 
ATOM     21  N   UNL d   1      14.288  18.130  -5.110  0.00  0.00    -0.267 N 
ATOM     22  C   UNL d   1      14.149  18.668  -5.722  0.00  0.00     0.288 C 
ATOM     23  C   UNL d   1      14.013  17.351  -5.158  0.00  0.00     0.102 A 
ATOM     24  O   UNL d   1      13.732  18.427  -6.388  0.00  0.00    -0.264 OA
ATOM     25  O   UNL d   1      15.120  16.755  -2.610  0.00  0.00    -0.265 OA
BRANCH  22  26
ATOM     26  C   UNL d   1      14.433  19.441  -5.652  0.00  0.00     0.156 A 
ATOM     27  O   UNL d   1      14.941  19.814  -6.185  0.00  0.00    -0.300 OA
ATOM     28  C   UNL d   1      15.088  20.571  -5.915  0.00  0.00     0.123 A 
ATOM     29  C   UNL d   1      14.674  20.682  -5.208  0.00  0.00     0.029 A 
ATOM     30  C   UNL d   1      14.271  19.980  -5.050  0.00  0.00     0.032 A 
ENDBRANCH  22  26
ENDBRANCH   4  16
TORSDOF 2
ENDMDL
