MODEL 1
REMARK VINA RESULT:      -2.2      0.000      0.000
REMARK  5 active torsions:
REMARK  status: ('A' for Active; 'I' for Inactive)
REMARK    1  A    between atoms: C_2  and  N_1 
REMARK    2  A    between atoms: N_5  and  C_3 
REMARK       I    between atoms: C_4  and  N_5 
REMARK       I    between atoms: N_9  and  C_4 
REMARK    3  A    between atoms: O_11  and  N_9 
REMARK    4  A    between atoms: C_13  and  O_11 
REMARK    5  A    between atoms: C_14  and  C_13 
ROOT
ATOM      1  C   UNL d   1      32.827  22.447 -21.003  0.00  0.00     0.156 A 
ATOM      2  C   UNL d   1      33.011  21.711 -20.679  0.00  0.00     0.160 A 
ATOM      3  C   UNL d   1      32.845  23.119 -20.535  0.00  0.00     0.026 A 
ATOM      4  C   UNL d   1      33.216  21.651 -19.873  0.00  0.00     0.034 A 
ATOM      5  C   UNL d   1      33.048  23.061 -19.734  0.00  0.00     0.002 A 
ATOM      6  C   UNL d   1      33.234  22.319 -19.408  0.00  0.00     0.003 A 
ENDROOT
BRANCH   2   7
ATOM      7  N   UNL d   1      32.994  21.032 -21.152  0.00  0.00    -0.335 NA
ATOM      8  C   UNL d   1      32.976  20.356 -21.622  0.00  0.00     0.499 C 
ATOM      9  O   UNL d   1      33.232  19.914 -20.981  0.00  0.00    -0.211 OA
ATOM     10  N   UNL d   1      32.959  19.683 -22.091  0.00  0.00    -0.199 NA
BRANCH  10  11
ATOM     11  O   UNL d   1      32.941  19.003 -22.564  0.00  0.00    -0.156 OA
BRANCH  11  12
ATOM     12  C   UNL d   1      32.384  18.665 -23.072  0.00  0.00     0.163 C 
BRANCH  12  13
ATOM     13  C   UNL d   1      32.898  18.040 -23.209  0.00  0.00     0.030 C 
ATOM     14  C   UNL d   1      32.343  17.693 -23.704  0.00  0.00     0.002 C 
ENDBRANCH  12  13
ENDBRANCH  11  12
ENDBRANCH  10  11
ENDBRANCH   2   7
BRANCH   1  15
ATOM     15  N   UNL d   1      32.624  22.505 -21.805  0.00  0.00    -0.111 N 
ATOM     16  O   UNL d   1      33.202  22.490 -22.392  0.00  0.00    -0.532 OA
ATOM     17  O   UNL d   1      31.818  22.579 -22.017  0.00  0.00    -0.532 OA
ENDBRANCH   1  15
TORSDOF 5
ENDMDL
MODEL 2
REMARK VINA RESULT:      -1.8      1.289      4.617
REMARK  5 active torsions:
REMARK  status: ('A' for Active; 'I' for Inactive)
REMARK    1  A    between atoms: C_2  and  N_1 
REMARK    2  A    between atoms: N_5  and  C_3 
REMARK       I    between atoms: C_4  and  N_5 
REMARK       I    between atoms: N_9  and  C_4 
REMARK    3  A    between atoms: O_11  and  N_9 
REMARK    4  A    between atoms: C_13  and  O_11 
REMARK    5  A    between atoms: C_14  and  C_13 
ROOT
ATOM      1  C   UNL d   1      32.829  18.090 -23.999  0.00  0.00     0.156 A 
ATOM      2  C   UNL d   1      33.034  18.116 -23.200  0.00  0.00     0.160 A 
ATOM      3  C   UNL d   1      32.828  17.376 -24.401  0.00  0.00     0.026 A 
ATOM      4  C   UNL d   1      33.241  17.414 -22.801  0.00  0.00     0.034 A 
ATOM      5  C   UNL d   1      33.033  16.678 -24.005  0.00  0.00     0.002 A 
ATOM      6  C   UNL d   1      33.240  16.704 -23.201  0.00  0.00     0.003 A 
ENDROOT
BRANCH   2   7
ATOM      7  N   UNL d   1      33.036  18.837 -22.793  0.00  0.00    -0.335 NA
ATOM      8  C   UNL d   1      33.037  19.555 -22.389  0.00  0.00     0.499 C 
ATOM      9  O   UNL d   1      33.199  19.152 -21.693  0.00  0.00    -0.211 OA
ATOM     10  N   UNL d   1      33.039  20.269 -21.986  0.00  0.00    -0.199 NA
BRANCH  10  11
ATOM     11  O   UNL d   1      33.040  20.990 -21.579  0.00  0.00    -0.156 OA
BRANCH  11  12
ATOM     12  C   UNL d   1      32.539  21.647 -21.562  0.00  0.00     0.163 C 
BRANCH  12  13
ATOM     13  C   UNL d   1      32.726  21.762 -20.772  0.00  0.00     0.030 C 
ATOM     14  C   UNL d   1      32.152  22.345 -20.720  0.00  0.00     0.002 C 
ENDBRANCH  12  13
ENDBRANCH  11  12
ENDBRANCH  10  11
ENDBRANCH   2   7
BRANCH   1  15
ATOM     15  N   UNL d   1      32.624  18.789 -24.394  0.00  0.00    -0.111 N 
ATOM     16  O   UNL d   1      31.849  19.069 -24.388  0.00  0.00    -0.532 OA
ATOM     17  O   UNL d   1      33.216  19.215 -24.804  0.00  0.00    -0.532 OA
ENDBRANCH   1  15
TORSDOF 5
ENDMDL
MODEL 3
REMARK VINA RESULT:      -1.0      2.914      6.112
REMARK  5 active torsions:
REMARK  status: ('A' for Active; 'I' for Inactive)
REMARK    1  A    between atoms: C_2  and  N_1 
REMARK    2  A    between atoms: N_5  and  C_3 
REMARK       I    between atoms: C_4  and  N_5 
REMARK       I    between atoms: N_9  and  C_4 
REMARK    3  A    between atoms: O_11  and  N_9 
REMARK    4  A    between atoms: C_13  and  O_11 
REMARK    5  A    between atoms: C_14  and  C_13 
ROOT
ATOM      1  C   UNL d   1      30.219  16.255 -24.315  0.00  0.00     0.156 A 
ATOM      2  C   UNL d   1      30.294  17.070 -24.415  0.00  0.00     0.160 A 
ATOM      3  C   UNL d   1      29.561  15.863 -24.603  0.00  0.00     0.026 A 
ATOM      4  C   UNL d   1      29.696  17.497 -24.811  0.00  0.00     0.034 A 
ATOM      5  C   UNL d   1      28.966  16.285 -24.996  0.00  0.00     0.002 A 
ATOM      6  C   UNL d   1      29.042  17.107 -25.097  0.00  0.00     0.003 A 
ENDROOT
BRANCH   2   7
ATOM      7  N   UNL d   1      30.960  17.467 -24.124  0.00  0.00    -0.335 NA
ATOM      8  C   UNL d   1      31.622  17.862 -23.834  0.00  0.00     0.499 C 
ATOM      9  O   UNL d   1      31.759  18.164 -24.584  0.00  0.00    -0.211 OA
ATOM     10  N   UNL d   1      32.282  18.254 -23.546  0.00  0.00    -0.199 NA
BRANCH  10  11
ATOM     11  O   UNL d   1      32.948  18.651 -23.255  0.00  0.00    -0.156 OA
BRANCH  11  12
ATOM     12  C   UNL d   1      33.197  18.892 -22.505  0.00  0.00     0.163 C 
BRANCH  12  13
ATOM     13  C   UNL d   1      32.910  19.645 -22.658  0.00  0.00     0.030 C 
ATOM     14  C   UNL d   1      33.241  19.914 -21.957  0.00  0.00     0.002 C 
ENDBRANCH  12  13
ENDBRANCH  11  12
ENDBRANCH  10  11
ENDBRANCH   2   7
BRANCH   1  15
ATOM     15  N   UNL d   1      30.815  15.833 -23.921  0.00  0.00    -0.111 N 
ATOM     16  O   UNL d   1      30.791  15.727 -23.104  0.00  0.00    -0.532 OA
ATOM     17  O   UNL d   1      31.447  15.511 -24.364  0.00  0.00    -0.532 OA
ENDBRANCH   1  15
TORSDOF 5
ENDMDL
MODEL 4
REMARK VINA RESULT:      -0.8      4.161      5.301
REMARK  5 active torsions:
REMARK  status: ('A' for Active; 'I' for Inactive)
REMARK    1  A    between atoms: C_2  and  N_1 
REMARK    2  A    between atoms: N_5  and  C_3 
REMARK       I    between atoms: C_4  and  N_5 
REMARK       I    between atoms: N_9  and  C_4 
REMARK    3  A    between atoms: O_11  and  N_9 
REMARK    4  A    between atoms: C_13  and  O_11 
REMARK    5  A    between atoms: C_14  and  C_13 
ROOT
ATOM      1  C   UNL d   1      32.684  18.084 -23.885  0.00  0.00     0.156 A 
ATOM      2  C   UNL d   1      31.973  18.049 -24.302  0.00  0.00     0.160 A 
ATOM      3  C   UNL d   1      33.240  18.657 -24.065  0.00  0.00     0.026 A 
ATOM      4  C   UNL d   1      31.820  18.599 -24.910  0.00  0.00     0.034 A 
ATOM      5  C   UNL d   1      33.089  19.205 -24.669  0.00  0.00     0.002 A 
ATOM      6  C   UNL d   1      32.373  19.169 -25.089  0.00  0.00     0.003 A 
ENDROOT
BRANCH   2   7
ATOM      7  N   UNL d   1      31.411  17.469 -24.119  0.00  0.00    -0.335 NA
ATOM      8  C   UNL d   1      30.851  16.892 -23.938  0.00  0.00     0.499 C 
ATOM      9  O   UNL d   1      30.472  17.050 -24.647  0.00  0.00    -0.211 OA
ATOM     10  N   UNL d   1      30.295  16.318 -23.757  0.00  0.00    -0.199 NA
BRANCH  10  11
ATOM     11  O   UNL d   1      29.732  15.738 -23.574  0.00  0.00    -0.156 OA
BRANCH  11  12
ATOM     12  C   UNL d   1      29.171  15.643 -22.975  0.00  0.00     0.163 C 
BRANCH  12  13
ATOM     13  C   UNL d   1      28.583  15.583 -23.544  0.00  0.00     0.030 C 
ATOM     14  C   UNL d   1      28.026  15.458 -22.956  0.00  0.00     0.002 C 
ENDBRANCH  12  13
ENDBRANCH  11  12
ENDBRANCH  10  11
ENDBRANCH   2   7
BRANCH   1  15
ATOM     15  N   UNL d   1      32.834  17.536 -23.281  0.00  0.00    -0.111 N 
ATOM     16  O   UNL d   1      33.192  16.812 -23.444  0.00  0.00    -0.532 OA
ATOM     17  O   UNL d   1      32.618  17.725 -22.496  0.00  0.00    -0.532 OA
ENDBRANCH   1  15
TORSDOF 5
ENDMDL
MODEL 5
REMARK VINA RESULT:       0.2      2.699      3.300
REMARK  5 active torsions:
REMARK  status: ('A' for Active; 'I' for Inactive)
REMARK    1  A    between atoms: C_2  and  N_1 
REMARK    2  A    between atoms: N_5  and  C_3 
REMARK       I    between atoms: C_4  and  N_5 
REMARK       I    between atoms: N_9  and  C_4 
REMARK    3  A    between atoms: O_11  and  N_9 
REMARK    4  A    between atoms: C_13  and  O_11 
REMARK    5  A    between atoms: C_14  and  C_13 
ROOT
ATOM      1  C   UNL d   1      32.316  22.261 -19.814  0.00  0.00     0.156 A 
ATOM      2  C   UNL d   1      32.447  23.033 -20.074  0.00  0.00     0.160 A 
ATOM      3  C   UNL d   1      32.290  22.096 -19.013  0.00  0.00     0.026 A 
ATOM      4  C   UNL d   1      32.554  23.647 -19.520  0.00  0.00     0.034 A 
ATOM      5  C   UNL d   1      32.396  22.705 -18.460  0.00  0.00     0.002 A 
ATOM      6  C   UNL d   1      32.528  23.482 -18.723  0.00  0.00     0.003 A 
ENDROOT
BRANCH   2   7
ATOM      7  N   UNL d   1      32.473  23.201 -20.885  0.00  0.00    -0.335 NA
ATOM      8  C   UNL d   1      32.499  23.367 -21.691  0.00  0.00     0.499 C 
ATOM      9  O   UNL d   1      33.241  23.702 -21.589  0.00  0.00    -0.211 OA
ATOM     10  N   UNL d   1      32.525  23.533 -22.494  0.00  0.00    -0.199 NA
BRANCH  10  11
ATOM     11  O   UNL d   1      32.551  23.701 -23.304  0.00  0.00    -0.156 OA
BRANCH  11  12
ATOM     12  C   UNL d   1      32.049  23.552 -23.944  0.00  0.00     0.163 C 
BRANCH  12  13
ATOM     13  C   UNL d   1      32.692  23.287 -24.379  0.00  0.00     0.030 C 
ATOM     14  C   UNL d   1      32.352  23.585 -25.063  0.00  0.00     0.002 C 
ENDBRANCH  12  13
ENDBRANCH  11  12
ENDBRANCH  10  11
ENDBRANCH   2   7
BRANCH   1  15
ATOM     15  N   UNL d   1      32.210  21.653 -20.367  0.00  0.00    -0.111 N 
ATOM     16  O   UNL d   1      32.856  21.265 -20.701  0.00  0.00    -0.532 OA
ATOM     17  O   UNL d   1      31.434  21.432 -20.587  0.00  0.00    -0.532 OA
ENDBRANCH   1  15
TORSDOF 5
ENDMDL
