MODEL 1
REMARK VINA RESULT:      63.0      0.000      0.000
REMARK  2 active torsions:
REMARK  status: ('A' for Active; 'I' for Inactive)
REMARK    1  A    between atoms: N_11  and  C_2 
REMARK    2  A    between atoms: C_16  and  N_11 
ROOT
ATOM      1  C   UNL d   1      59.620  49.707  50.770  0.00  0.00     0.024 A 
ATOM      2  C   UNL d   1      58.910  49.707  50.365  0.00  0.00     0.139 A 
ATOM      3  C   UNL d   1      60.335  49.706  50.361  0.00  0.00     0.022 A 
ATOM      4  C   UNL d   1      58.899  49.707  49.542  0.00  0.00     0.297 A 
ATOM      5  C   UNL d   1      59.627  49.706  51.601  0.00  0.00     0.005 A 
ATOM      6  C   UNL d   1      61.050  49.706  50.769  0.00  0.00     0.041 A 
ATOM      7  C   UNL d   1      61.067  49.706  51.595  0.00  0.00     0.196 A 
ATOM      8  N   UNL d   1      59.612  49.707  49.134  0.00  0.00    -0.207 NA
ATOM      9  C   UNL d   1      60.322  49.707  49.539  0.00  0.00     0.085 A 
ATOM     10  C   UNL d   1      60.343  49.706  52.010  0.00  0.00     0.039 A 
ATOM     11  O   UNL d   1      58.188  49.707  49.137  0.00  0.00    -0.264 OA
ATOM     12  O   UNL d   1      61.796  49.706  52.011  0.00  0.00    -0.287 OA
ATOM     13  C   UNL d   1      61.769  49.706  50.364  0.00  0.00     0.003 A 
ATOM     14  C   UNL d   1      58.913  49.706  52.009  0.00  0.00     0.000 A 
ATOM     15  C   UNL d   1      61.039  49.707  49.126  0.00  0.00     0.019 A 
ATOM     16  C   UNL d   1      60.360  49.706  52.834  0.00  0.00     0.003 A 
ATOM     17  C   UNL d   1      61.755  49.706  49.534  0.00  0.00     0.002 A 
ATOM     18  C   UNL d   1      58.922  49.706  52.838  0.00  0.00     0.000 A 
ATOM     19  C   UNL d   1      59.638  49.706  53.246  0.00  0.00     0.000 A 
ENDROOT
BRANCH   2  20
ATOM     20  N   UNL d   1      58.191  49.707  50.783  0.00  0.00    -0.241 NA
BRANCH  20  21
ATOM     21  C   UNL d   1      57.546  49.298  50.490  0.00  0.00     0.082 A 
ATOM     22  C   UNL d   1      57.617  48.485  50.363  0.00  0.00     0.019 A 
ATOM     23  C   UNL d   1      56.977  48.048  50.067  0.00  0.00     0.002 A 
ATOM     24  C   UNL d   1      56.248  48.444  49.894  0.00  0.00     0.000 A 
ATOM     25  C   UNL d   1      56.185  49.242  50.021  0.00  0.00     0.002 A 
ATOM     26  C   UNL d   1      56.830  49.682  50.319  0.00  0.00     0.019 A 
ENDBRANCH  20  21
ENDBRANCH   2  20
TORSDOF 2
ENDMDL
