MODEL 1
REMARK VINA RESULT:     122.0      0.000      0.000
REMARK  6 active torsions:
REMARK  status: ('A' for Active; 'I' for Inactive)
REMARK    1  A    between atoms: S_10  and  C_3 
REMARK    2  A    between atoms: C_14  and  C_7 
REMARK    3  A    between atoms: C_18  and  S_10 
REMARK       I    between atoms: N_11  and  C_12 
REMARK    4  A    between atoms: C_13  and  N_11 
REMARK    5  A    between atoms: C_12  and  C_18 
REMARK    6  A    between atoms: O_20  and  C_16 
ROOT
ATOM      1  N   UNL d   1     -55.919-102.607 -40.487  0.00  0.00    -0.186 N 
ATOM      2  N   UNL d   1     -56.553-102.690 -39.977  0.00  0.00    -0.162 NA
ATOM      3  C   UNL d   1     -55.102-102.683 -40.371  0.00  0.00     0.217 A 
ATOM      4  C   UNL d   1     -56.039-102.412 -41.279  0.00  0.00     0.187 A 
ATOM      5  N   UNL d   1     -54.736-102.535 -41.088  0.00  0.00    -0.120 NA
ATOM      6  N   UNL d   1     -55.315-102.367 -41.651  0.00  0.00    -0.127 NA
ATOM      7  C   UNL d   1     -57.322-102.577 -40.260  0.00  0.00     0.103 A 
ATOM      8  C   UNL d   1     -56.812-102.299 -41.561  0.00  0.00     0.042 A 
ATOM      9  C   UNL d   1     -57.447-102.381 -41.055  0.00  0.00     0.024 A 
ENDROOT
BRANCH   3  10
ATOM     10  S   UNL d   1     -54.711-102.873 -39.670  0.00  0.00    -0.041 SA
BRANCH  10  11
ATOM     11  C   UNL d   1     -55.051-102.707 -38.949  0.00  0.00     0.101 C 
BRANCH  11  12
ATOM     12  C   UNL d   1     -54.982-101.961 -38.624  0.00  0.00     0.286 C 
ATOM     13  N   UNL d   1     -55.100-101.835 -37.815  0.00  0.00    -0.206 NA
ATOM     14  O   UNL d   1     -54.792-101.316 -39.102  0.00  0.00    -0.265 OA
BRANCH  13  15
ATOM     15  C   UNL d   1     -55.031-101.080 -37.486  0.00  0.00     0.107 A 
ATOM     16  C   UNL d   1     -55.013-100.979 -36.671  0.00  0.00     0.112 A 
ATOM     17  C   UNL d   1     -54.942-100.217 -36.349  0.00  0.00     0.026 A 
ATOM     18  C   UNL d   1     -54.891 -99.573 -36.851  0.00  0.00     0.002 A 
ATOM     19  C   UNL d   1     -54.908 -99.660 -37.666  0.00  0.00     0.002 A 
ATOM     20  C   UNL d   1     -54.979-100.422 -37.988  0.00  0.00     0.021 A 
BRANCH  16  21
ATOM     21  O   UNL d   1     -55.065-101.646 -36.173  0.00  0.00    -0.327 OA
ATOM     22  C   UNL d   1     -54.917-101.567 -35.360  0.00  0.00     0.181 C 
ENDBRANCH  16  21
ENDBRANCH  13  15
ENDBRANCH  11  12
ENDBRANCH  10  11
ENDBRANCH   3  10
BRANCH   7  23
ATOM     23  C   UNL d   1     -57.958-102.663 -39.738  0.00  0.00     0.039 A 
ATOM     24  C   UNL d   1     -58.716-102.735 -40.013  0.00  0.00     0.101 A 
ATOM     25  N   UNL d   1     -59.337-102.819 -39.496  0.00  0.00    -0.242 NA
ATOM     26  C   UNL d   1     -59.202-102.832 -38.680  0.00  0.00     0.099 A 
ATOM     27  C   UNL d   1     -58.431-102.760 -38.400  0.00  0.00     0.021 A 
ATOM     28  C   UNL d   1     -57.801-102.674 -38.928  0.00  0.00     0.005 A 
ENDBRANCH   7  23
TORSDOF 6
ENDMDL
MODEL 2
REMARK VINA RESULT:     123.5      3.378      5.519
REMARK  6 active torsions:
REMARK  status: ('A' for Active; 'I' for Inactive)
REMARK    1  A    between atoms: S_10  and  C_3 
REMARK    2  A    between atoms: C_14  and  C_7 
REMARK    3  A    between atoms: C_18  and  S_10 
REMARK       I    between atoms: N_11  and  C_12 
REMARK    4  A    between atoms: C_13  and  N_11 
REMARK    5  A    between atoms: C_12  and  C_18 
REMARK    6  A    between atoms: O_20  and  C_16 
ROOT
ATOM      1  N   UNL d   1     -54.910-101.366 -42.355  0.00  0.00    -0.186 N 
ATOM      2  N   UNL d   1     -54.984-101.395 -41.541  0.00  0.00    -0.162 NA
ATOM      3  C   UNL d   1     -54.810-100.732 -42.879  0.00  0.00     0.217 A 
ATOM      4  C   UNL d   1     -54.928-102.057 -42.804  0.00  0.00     0.187 A 
ATOM      5  N   UNL d   1     -54.770-101.040 -43.636  0.00  0.00    -0.120 NA
ATOM      6  N   UNL d   1     -54.842-101.861 -43.592  0.00  0.00    -0.127 NA
ATOM      7  C   UNL d   1     -55.078-102.127 -41.166  0.00  0.00     0.103 A 
ATOM      8  C   UNL d   1     -55.023-102.791 -42.426  0.00  0.00     0.042 A 
ATOM      9  C   UNL d   1     -55.097-102.824 -41.614  0.00  0.00     0.024 A 
ENDROOT
BRANCH   3  10
ATOM     10  S   UNL d   1     -54.760 -99.930 -42.691  0.00  0.00    -0.041 SA
BRANCH  10  11
ATOM     11  C   UNL d   1     -55.419 -99.454 -42.730  0.00  0.00     0.101 C 
BRANCH  11  12
ATOM     12  C   UNL d   1     -55.792 -99.325 -43.445  0.00  0.00     0.286 C 
ATOM     13  N   UNL d   1     -56.598 -99.141 -43.479  0.00  0.00    -0.206 NA
ATOM     14  O   UNL d   1     -55.367 -99.378 -44.150  0.00  0.00    -0.265 OA
BRANCH  13  15
ATOM     15  C   UNL d   1     -56.975 -99.011 -44.203  0.00  0.00     0.107 A 
ATOM     16  C   UNL d   1     -57.786 -98.885 -44.234  0.00  0.00     0.112 A 
ATOM     17  C   UNL d   1     -58.157 -98.755 -44.966  0.00  0.00     0.026 A 
ATOM     18  C   UNL d   1     -57.708 -98.755 -45.649  0.00  0.00     0.002 A 
ATOM     19  C   UNL d   1     -56.897 -98.880 -45.631  0.00  0.00     0.002 A 
ATOM     20  C   UNL d   1     -56.526 -99.010 -44.900  0.00  0.00     0.021 A 
BRANCH  16  21
ATOM     21  O   UNL d   1     -58.231 -98.887 -43.529  0.00  0.00    -0.327 OA
ATOM     22  C   UNL d   1     -58.989 -99.226 -43.520  0.00  0.00     0.181 C 
ENDBRANCH  16  21
ENDBRANCH  13  15
ENDBRANCH  11  12
ENDBRANCH  10  11
ENDBRANCH   3  10
BRANCH   7  23
ATOM     23  C   UNL d   1     -55.152-102.148 -40.342  0.00  0.00     0.039 A 
ATOM     24  C   UNL d   1     -54.713-101.659 -39.871  0.00  0.00     0.101 A 
ATOM     25  N   UNL d   1     -54.790-101.685 -39.063  0.00  0.00    -0.242 NA
ATOM     26  C   UNL d   1     -55.320-102.213 -38.711  0.00  0.00     0.099 A 
ATOM     27  C   UNL d   1     -55.767-102.711 -39.190  0.00  0.00     0.021 A 
ATOM     28  C   UNL d   1     -55.687-102.683 -40.012  0.00  0.00     0.005 A 
ENDBRANCH   7  23
TORSDOF 6
ENDMDL
