MODEL 1
REMARK VINA RESULT:      76.7      0.000      0.000
REMARK  7 active torsions:
REMARK  status: ('A' for Active; 'I' for Inactive)
REMARK    1  A    between atoms: C_2  and  N_1 
REMARK    2  A    between atoms: C_4  and  C_2 
REMARK    3  A    between atoms: O_3  and  C_9 
REMARK    4  A    between atoms: C_7  and  O_3 
REMARK    5  A    between atoms: C_9  and  C_4 
REMARK    6  A    between atoms: C_10  and  C_12 
REMARK    7  A    between atoms: C_17  and  C_10 
ROOT
ATOM      1  N   UNL d   1      61.067  47.896  50.731  0.00  0.00    -0.300 N 
ATOM      2  C   UNL d   1      60.463  47.777  51.233  0.00  0.00     0.080 A 
ATOM      3  C   UNL d   1      61.148  48.631  50.317  0.00  0.00     0.080 A 
ATOM      4  C   UNL d   1      59.964  49.087  50.971  0.00  0.00     0.003 A 
ATOM      5  C   UNL d   1      59.903  48.375  51.358  0.00  0.00     0.019 A 
ATOM      6  C   UNL d   1      60.586  49.222  50.447  0.00  0.00     0.019 A 
ENDROOT
BRANCH   1   7
ATOM      7  C   UNL d   1      61.622  47.260  50.629  0.00  0.00     0.125 C 
BRANCH   7   8
ATOM      8  C   UNL d   1      61.389  46.536  50.242  0.00  0.00     0.238 C 
ATOM      9  O   UNL d   1      60.900  46.553  49.580  0.00  0.00    -0.283 OA
BRANCH   8  10
ATOM     10  C   UNL d   1      61.663  45.821  50.544  0.00  0.00     0.166 C 
BRANCH  10  11
ATOM     11  O   UNL d   1      61.209  45.138  50.479  0.00  0.00    -0.302 OA
BRANCH  11  12
ATOM     12  C   UNL d   1      61.547  44.397  50.692  0.00  0.00     0.100 A 
ATOM     13  C   UNL d   1      61.149  43.888  51.245  0.00  0.00     0.026 A 
ATOM     14  C   UNL d   1      61.476  43.161  51.456  0.00  0.00     0.013 A 
ATOM     15  C   UNL d   1      62.190  42.923  51.133  0.00  0.00     0.058 A 
ATOM     16  C   UNL d   1      62.592  43.409  50.591  0.00  0.00     0.013 A 
ATOM     17 CL   UNL d   1      62.528  42.171  51.352  0.00  0.00    -0.082 Cl
ATOM     18  C   UNL d   1      62.269  44.135  50.377  0.00  0.00     0.026 A 
ENDBRANCH  11  12
ENDBRANCH  10  11
ENDBRANCH   8  10
ENDBRANCH   7   8
ENDBRANCH   1   7
BRANCH   4  19
ATOM     19  C   UNL d   1      59.362  49.708  51.115  0.00  0.00     0.000 C 
BRANCH  19  20
ATOM     20  C   UNL d   1      58.609  49.641  50.762  0.00  0.00     0.000 A 
ATOM     21  C   UNL d   1      57.945  49.515  51.213  0.00  0.00     0.000 A 
ATOM     22  C   UNL d   1      57.194  49.450  50.849  0.00  0.00     0.000 A 
ATOM     23  C   UNL d   1      57.144  49.516  50.032  0.00  0.00     0.000 A 
ATOM     24  C   UNL d   1      57.809  49.643  49.581  0.00  0.00     0.000 A 
ATOM     25  C   UNL d   1      58.543  49.706  49.935  0.00  0.00     0.000 A 
ENDBRANCH  19  20
ENDBRANCH   4  19
TORSDOF 7
ENDMDL
MODEL 2
REMARK VINA RESULT:      76.8      2.411      5.537
REMARK  7 active torsions:
REMARK  status: ('A' for Active; 'I' for Inactive)
REMARK    1  A    between atoms: C_2  and  N_1 
REMARK    2  A    between atoms: C_4  and  C_2 
REMARK    3  A    between atoms: O_3  and  C_9 
REMARK    4  A    between atoms: C_7  and  O_3 
REMARK    5  A    between atoms: C_9  and  C_4 
REMARK    6  A    between atoms: C_10  and  C_12 
REMARK    7  A    between atoms: C_17  and  C_10 
ROOT
ATOM      1  N   UNL d   1      61.259  47.805  50.463  0.00  0.00    -0.300 N 
ATOM      2  C   UNL d   1      61.719  47.212  50.724  0.00  0.00     0.080 A 
ATOM      3  C   UNL d   1      60.978  47.815  49.664  0.00  0.00     0.080 A 
ATOM      4  C   UNL d   1      61.671  46.587  49.443  0.00  0.00     0.003 A 
ATOM      5  C   UNL d   1      61.931  46.595  50.213  0.00  0.00     0.019 A 
ATOM      6  C   UNL d   1      61.193  47.196  49.161  0.00  0.00     0.019 A 
ENDROOT
BRANCH   1   7
ATOM      7  C   UNL d   1      61.063  48.420  51.016  0.00  0.00     0.125 C 
BRANCH   7   8
ATOM      8  C   UNL d   1      60.971  49.227  50.756  0.00  0.00     0.238 C 
ATOM      9  O   UNL d   1      61.629  49.708  50.639  0.00  0.00    -0.283 OA
BRANCH   8  10
ATOM     10  C   UNL d   1      60.211  49.515  50.623  0.00  0.00     0.166 C 
BRANCH  10  11
ATOM     11  O   UNL d   1      59.580  49.261  51.086  0.00  0.00    -0.302 OA
BRANCH  11  12
ATOM     12  C   UNL d   1      58.794  49.367  50.805  0.00  0.00     0.100 A 
ATOM     13  C   UNL d   1      58.642  49.422  49.971  0.00  0.00     0.026 A 
ATOM     14  C   UNL d   1      57.873  49.526  49.690  0.00  0.00     0.013 A 
ATOM     15  C   UNL d   1      57.248  49.577  50.217  0.00  0.00     0.058 A 
ATOM     16  C   UNL d   1      57.380  49.524  51.036  0.00  0.00     0.013 A 
ATOM     17 CL   UNL d   1      56.453  49.684  49.927  0.00  0.00    -0.082 Cl
ATOM     18  C   UNL d   1      58.145  49.421  51.320  0.00  0.00     0.026 A 
ENDBRANCH  11  12
ENDBRANCH  10  11
ENDBRANCH   8  10
ENDBRANCH   7   8
ENDBRANCH   1   7
BRANCH   4  19
ATOM     19  C   UNL d   1      61.905  45.925  48.917  0.00  0.00     0.000 C 
BRANCH  19  20
ATOM     20  C   UNL d   1      61.666  45.149  49.103  0.00  0.00     0.000 A 
ATOM     21  C   UNL d   1      62.142  44.658  49.544  0.00  0.00     0.000 A 
ATOM     22  C   UNL d   1      61.894  43.880  49.725  0.00  0.00     0.000 A 
ATOM     23  C   UNL d   1      61.163  43.624  49.449  0.00  0.00     0.000 A 
ATOM     24  C   UNL d   1      60.688  44.114  49.008  0.00  0.00     0.000 A 
ATOM     25  C   UNL d   1      60.929  44.875  48.830  0.00  0.00     0.000 A 
ENDBRANCH  19  20
ENDBRANCH   4  19
TORSDOF 7
ENDMDL
