MODEL 1
REMARK VINA RESULT:       0.6      0.000      0.000
REMARK  7 active torsions:
REMARK  status: ('A' for Active; 'I' for Inactive)
REMARK    1  A    between atoms: C_5  and  C_1 
REMARK    2  A    between atoms: N_6  and  C_2 
REMARK       I    between atoms: N_10  and  C_5 
REMARK    3  A    between atoms: C_20  and  N_6 
REMARK    4  A    between atoms: C_9  and  C_12 
REMARK    5  A    between atoms: C_22  and  N_10 
REMARK    6  A    between atoms: C_11  and  C_22 
REMARK    7  A    between atoms: O_30  and  C_25 
ROOT
ATOM      1  C   UNL d   1      57.499  -0.305  30.493  0.00  0.00     0.099 A 
ATOM      2  C   UNL d   1      57.312  -1.099  30.381  0.00  0.00     0.187 A 
ATOM      3  C   UNL d   1      57.331   0.052  31.231  0.00  0.00     0.010 A 
ATOM      4  O   UNL d   1      56.966  -1.540  30.982  0.00  0.00    -0.289 OA
ATOM      5  C   UNL d   1      56.982  -0.388  31.839  0.00  0.00     0.025 A 
ATOM      6  C   UNL d   1      56.800  -1.174  31.720  0.00  0.00     0.102 A 
ATOM      7  C   UNL d   1      56.816  -0.038  32.567  0.00  0.00     0.026 A 
ATOM      8  C   UNL d   1      56.448  -1.627  32.327  0.00  0.00     0.027 A 
ATOM      9  C   UNL d   1      56.470  -0.474  33.169  0.00  0.00     0.094 A 
ATOM     10  C   UNL d   1      56.284  -1.269  33.056  0.00  0.00     0.026 A 
ENDROOT
BRANCH   2  11
ATOM     11  N   UNL d   1      57.482  -1.453  29.640  0.00  0.00    -0.222 NA
BRANCH  11  12
ATOM     12  C   UNL d   1      58.084  -2.015  29.589  0.00  0.00     0.084 A 
ATOM     13  C   UNL d   1      58.274  -2.339  28.855  0.00  0.00     0.019 A 
ATOM     14  C   UNL d   1      58.870  -2.895  28.809  0.00  0.00     0.008 A 
ATOM     15  C   UNL d   1      59.286  -3.137  29.486  0.00  0.00     0.065 A 
ATOM     16  C   UNL d   1      59.092  -2.809  30.220  0.00  0.00     0.008 A 
ATOM     17  C   UNL d   1      58.489  -2.248  30.263  0.00  0.00     0.019 A 
BRANCH  15  18
ATOM     18  C   UNL d   1      59.887  -3.699  29.435  0.00  0.00     0.211 C 
ATOM     19  O   UNL d   1      60.632  -3.545  29.767  0.00  0.00    -0.644 OA
ATOM     20  O   UNL d   1      59.761  -4.423  29.052  0.00  0.00    -0.644 OA
ENDBRANCH  15  18
ENDBRANCH  11  12
ENDBRANCH   2  11
BRANCH   1  21
ATOM     21  C   UNL d   1      57.846   0.139  29.893  0.00  0.00     0.283 C 
ATOM     22  N   UNL d   1      58.680   0.235  29.870  0.00  0.00    -0.204 NA
ATOM     23  O   UNL d   1      57.384   0.501  29.296  0.00  0.00    -0.265 OA
BRANCH  22  24
ATOM     24  C   UNL d   1      59.033   0.682  29.266  0.00  0.00     0.127 C 
BRANCH  24  25
ATOM     25  C   UNL d   1      59.851   0.681  29.170  0.00  0.00     0.119 A 
ATOM     26  O   UNL d   1      60.341   0.680  28.505  0.00  0.00    -0.304 OA
ATOM     27  C   UNL d   1      61.121   0.680  28.749  0.00  0.00     0.123 A 
ATOM     28  C   UNL d   1      61.133   0.681  29.560  0.00  0.00     0.029 A 
ATOM     29  C   UNL d   1      60.351   0.682  29.827  0.00  0.00     0.028 A 
ENDBRANCH  24  25
ENDBRANCH  22  24
ENDBRANCH   1  21
BRANCH   9  30
ATOM     30  O   UNL d   1      56.307  -0.112  33.899  0.00  0.00    -0.328 OA
ATOM     31  C   UNL d   1      55.521   0.097  34.096  0.00  0.00     0.181 C 
ENDBRANCH   9  30
TORSDOF 7
ENDMDL
