MODEL 1
REMARK VINA RESULT:      -9.6      0.000      0.000
REMARK  4 active torsions:
REMARK  status: ('A' for Active; 'I' for Inactive)
REMARK    1  A    between atoms: C_6  and  S_1 
REMARK    2  A    between atoms: N_9  and  S_1 
REMARK    3  A    between atoms: C_17  and  N_9 
REMARK       I    between atoms: C_13  and  N_15 
REMARK    4  A    between atoms: N_15  and  C_18 
ROOT
ATOM      1  C   UNL d   1     -49.046  13.639  22.403  0.00  0.00     0.054 A 
ATOM      2  C   UNL d   1     -49.018  14.286  22.892  0.00  0.00     0.196 A 
ATOM      3  C   UNL d   1     -49.690  13.446  21.979  0.00  0.00     0.043 A 
ATOM      4  C   UNL d   1     -50.358  13.896  22.018  0.00  0.00     0.196 A 
ATOM      5  C   UNL d   1     -48.370  13.126  22.322  0.00  0.00     0.108 A 
ATOM      6  C   UNL d   1     -49.685  14.769  22.954  0.00  0.00     0.042 A 
ATOM      7  C   UNL d   1     -50.344  14.569  22.519  0.00  0.00     0.042 A 
ATOM      8  O   UNL d   1     -48.295  14.435  23.318  0.00  0.00    -0.286 OA
ATOM      9  O   UNL d   1     -51.042  13.684  21.563  0.00  0.00    -0.287 OA
ATOM     10  C   UNL d   1     -49.708  12.772  21.475  0.00  0.00     0.003 A 
ATOM     11  C   UNL d   1     -48.405  12.487  21.836  0.00  0.00     0.013 A 
ATOM     12  C   UNL d   1     -49.692  15.435  23.441  0.00  0.00     0.003 A 
ATOM     13  C   UNL d   1     -51.062  15.065  22.569  0.00  0.00     0.003 A 
ATOM     14  C   UNL d   1     -49.040  12.290  21.413  0.00  0.00     0.001 A 
ATOM     15  C   UNL d   1     -50.346  15.895  23.493  0.00  0.00     0.000 A 
ATOM     16  C   UNL d   1     -51.032  15.712  23.058  0.00  0.00     0.000 A 
ENDROOT
BRANCH   5  17
ATOM     17  S   UNL d   1     -47.647  13.290  22.759  0.00  0.00     0.285 S 
ATOM     18  O   UNL d   1     -47.360  13.703  22.121  0.00  0.00    -0.198 OA
ATOM     19  O   UNL d   1     -47.966  12.851  23.419  0.00  0.00    -0.198 OA
BRANCH  17  20
ATOM     20  N   UNL d   1     -46.970  13.443  23.170  0.00  0.00    -0.158 NA
BRANCH  20  21
ATOM     21  C   UNL d   1     -46.328  12.895  23.144  0.00  0.00     0.094 A 
ATOM     22  C   UNL d   1     -45.634  13.082  22.755  0.00  0.00     0.021 A 
ATOM     23  C   UNL d   1     -45.002  12.536  22.733  0.00  0.00     0.021 A 
ATOM     24  C   UNL d   1     -45.075  11.780  23.116  0.00  0.00     0.085 A 
ATOM     25  C   UNL d   1     -45.795  11.602  23.511  0.00  0.00     0.021 A 
ATOM     26  C   UNL d   1     -46.402  12.135  23.529  0.00  0.00     0.021 A 
BRANCH  24  27
ATOM     27  N   UNL d   1     -44.443  11.257  23.083  0.00  0.00    -0.208 NA
ATOM     28  C   UNL d   1     -44.490  10.476  23.363  0.00  0.00     0.279 C 
ATOM     29  O   UNL d   1     -45.241  10.228  23.698  0.00  0.00    -0.265 OA
ATOM     30  C   UNL d   1     -43.870   9.926  23.344  0.00  0.00     0.068 C 
ENDBRANCH  24  27
ENDBRANCH  20  21
ENDBRANCH  17  20
ENDBRANCH   5  17
TORSDOF 4
ENDMDL
MODEL 2
REMARK VINA RESULT:      -9.5      1.074      1.409
REMARK  4 active torsions:
REMARK  status: ('A' for Active; 'I' for Inactive)
REMARK    1  A    between atoms: C_6  and  S_1 
REMARK    2  A    between atoms: N_9  and  S_1 
REMARK    3  A    between atoms: C_17  and  N_9 
REMARK       I    between atoms: C_13  and  N_15 
REMARK    4  A    between atoms: N_15  and  C_18 
ROOT
ATOM      1  C   UNL d   1     -49.001  13.553  22.507  0.00  0.00     0.054 A 
ATOM      2  C   UNL d   1     -48.962  14.223  22.962  0.00  0.00     0.196 A 
ATOM      3  C   UNL d   1     -49.670  13.309  22.153  0.00  0.00     0.043 A 
ATOM      4  C   UNL d   1     -50.354  13.728  22.235  0.00  0.00     0.196 A 
ATOM      5  C   UNL d   1     -48.309  13.069  22.385  0.00  0.00     0.108 A 
ATOM      6  C   UNL d   1     -49.645  14.676  23.066  0.00  0.00     0.042 A 
ATOM      7  C   UNL d   1     -50.330  14.424  22.703  0.00  0.00     0.042 A 
ATOM      8  O   UNL d   1     -48.212  14.427  23.312  0.00  0.00    -0.286 OA
ATOM      9  O   UNL d   1     -51.064  13.463  21.855  0.00  0.00    -0.287 OA
ATOM     10  C   UNL d   1     -49.699  12.611  21.683  0.00  0.00     0.003 A 
ATOM     11  C   UNL d   1     -48.355  12.406  21.933  0.00  0.00     0.013 A 
ATOM     12  C   UNL d   1     -49.642  15.363  23.522  0.00  0.00     0.003 A 
ATOM     13  C   UNL d   1     -51.064  14.887  22.799  0.00  0.00     0.003 A 
ATOM     14  C   UNL d   1     -49.016  12.159  21.580  0.00  0.00     0.001 A 
ATOM     15  C   UNL d   1     -50.311  15.794  23.615  0.00  0.00     0.000 A 
ATOM     16  C   UNL d   1     -51.024  15.558  23.254  0.00  0.00     0.000 A 
ENDROOT
BRANCH   5  17
ATOM     17  S   UNL d   1     -47.559  13.288  22.745  0.00  0.00     0.285 S 
ATOM     18  O   UNL d   1     -47.413  13.792  22.125  0.00  0.00    -0.198 OA
ATOM     19  O   UNL d   1     -47.730  12.753  23.389  0.00  0.00    -0.198 OA
BRANCH  17  20
ATOM     20  N   UNL d   1     -46.856  13.493  23.083  0.00  0.00    -0.158 NA
BRANCH  20  21
ATOM     21  C   UNL d   1     -46.132  13.201  22.762  0.00  0.00     0.094 A 
ATOM     22  C   UNL d   1     -45.785  12.523  23.060  0.00  0.00     0.021 A 
ATOM     23  C   UNL d   1     -45.068  12.238  22.738  0.00  0.00     0.021 A 
ATOM     24  C   UNL d   1     -44.693  12.651  22.096  0.00  0.00     0.085 A 
ATOM     25  C   UNL d   1     -45.062  13.346  21.800  0.00  0.00     0.021 A 
ATOM     26  C   UNL d   1     -45.755  13.615  22.116  0.00  0.00     0.021 A 
BRANCH  24  27
ATOM     27  N   UNL d   1     -43.990  12.355  21.793  0.00  0.00    -0.208 NA
ATOM     28  C   UNL d   1     -43.344  12.841  21.601  0.00  0.00     0.279 C 
ATOM     29  O   UNL d   1     -43.439  13.684  21.734  0.00  0.00    -0.265 OA
ATOM     30  C   UNL d   1     -42.621  12.573  21.295  0.00  0.00     0.068 C 
ENDBRANCH  24  27
ENDBRANCH  20  21
ENDBRANCH  17  20
ENDBRANCH   5  17
TORSDOF 4
ENDMDL
MODEL 3
REMARK VINA RESULT:      -7.4      1.708      2.427
REMARK  4 active torsions:
REMARK  status: ('A' for Active; 'I' for Inactive)
REMARK    1  A    between atoms: C_6  and  S_1 
REMARK    2  A    between atoms: N_9  and  S_1 
REMARK    3  A    between atoms: C_17  and  N_9 
REMARK       I    between atoms: C_13  and  N_15 
REMARK    4  A    between atoms: N_15  and  C_18 
ROOT
ATOM      1  C   UNL d   1     -48.159  13.587  22.991  0.00  0.00     0.054 A 
ATOM      2  C   UNL d   1     -48.449  12.856  23.191  0.00  0.00     0.196 A 
ATOM      3  C   UNL d   1     -48.617  14.234  22.932  0.00  0.00     0.043 A 
ATOM      4  C   UNL d   1     -49.410  14.189  23.073  0.00  0.00     0.196 A 
ATOM      5  C   UNL d   1     -47.328  13.695  22.830  0.00  0.00     0.108 A 
ATOM      6  C   UNL d   1     -49.257  12.776  23.342  0.00  0.00     0.042 A 
ATOM      7  C   UNL d   1     -49.726  13.440  23.282  0.00  0.00     0.042 A 
ATOM      8  O   UNL d   1     -47.901  12.206  23.235  0.00  0.00    -0.286 OA
ATOM      9  O   UNL d   1     -49.894  14.882  23.009  0.00  0.00    -0.287 OA
ATOM     10  C   UNL d   1     -48.304  14.986  22.724  0.00  0.00     0.003 A 
ATOM     11  C   UNL d   1     -47.046  14.421  22.632  0.00  0.00     0.013 A 
ATOM     12  C   UNL d   1     -49.587  12.049  23.548  0.00  0.00     0.003 A 
ATOM     13  C   UNL d   1     -50.583  13.378  23.437  0.00  0.00     0.003 A 
ATOM     14  C   UNL d   1     -47.496  15.067  22.573  0.00  0.00     0.001 A 
ATOM     15  C   UNL d   1     -50.372  11.984  23.692  0.00  0.00     0.000 A 
ATOM     16  C   UNL d   1     -50.873  12.647  23.637  0.00  0.00     0.000 A 
ENDROOT
BRANCH   5  17
ATOM     17  S   UNL d   1     -46.787  13.028  22.879  0.00  0.00     0.285 S 
ATOM     18  O   UNL d   1     -46.538  13.288  23.607  0.00  0.00    -0.198 OA
ATOM     19  O   UNL d   1     -47.061  12.770  22.112  0.00  0.00    -0.198 OA
BRANCH  17  20
ATOM     20  N   UNL d   1     -46.280  12.402  22.924  0.00  0.00    -0.158 NA
BRANCH  20  21
ATOM     21  C   UNL d   1     -45.532  12.436  22.535  0.00  0.00     0.094 A 
ATOM     22  C   UNL d   1     -45.442  12.850  21.835  0.00  0.00     0.021 A 
ATOM     23  C   UNL d   1     -44.699  12.881  21.455  0.00  0.00     0.021 A 
ATOM     24  C   UNL d   1     -44.028  12.482  21.792  0.00  0.00     0.085 A 
ATOM     25  C   UNL d   1     -44.136  12.061  22.511  0.00  0.00     0.021 A 
ATOM     26  C   UNL d   1     -44.857  12.035  22.874  0.00  0.00     0.021 A 
BRANCH  24  27
ATOM     27  N   UNL d   1     -43.307  12.524  21.402  0.00  0.00    -0.208 NA
ATOM     28  C   UNL d   1     -42.856  13.222  21.365  0.00  0.00     0.279 C 
ATOM     29  O   UNL d   1     -43.179  13.914  21.758  0.00  0.00    -0.265 OA
ATOM     30  C   UNL d   1     -42.126  13.297  20.981  0.00  0.00     0.068 C 
ENDBRANCH  24  27
ENDBRANCH  20  21
ENDBRANCH  17  20
ENDBRANCH   5  17
TORSDOF 4
ENDMDL
MODEL 4
REMARK VINA RESULT:      -7.1      1.698      2.268
REMARK  4 active torsions:
REMARK  status: ('A' for Active; 'I' for Inactive)
REMARK    1  A    between atoms: C_6  and  S_1 
REMARK    2  A    between atoms: N_9  and  S_1 
REMARK    3  A    between atoms: C_17  and  N_9 
REMARK       I    between atoms: C_13  and  N_15 
REMARK    4  A    between atoms: N_15  and  C_18 
ROOT
ATOM      1  C   UNL d   1     -48.358  12.556  23.155  0.00  0.00     0.054 A 
ATOM      2  C   UNL d   1     -48.625  13.275  22.891  0.00  0.00     0.196 A 
ATOM      3  C   UNL d   1     -48.844  11.981  23.413  0.00  0.00     0.043 A 
ATOM      4  C   UNL d   1     -49.643  12.093  23.422  0.00  0.00     0.196 A 
ATOM      5  C   UNL d   1     -47.523  12.380  23.168  0.00  0.00     0.108 A 
ATOM      6  C   UNL d   1     -49.438  13.421  22.887  0.00  0.00     0.042 A 
ATOM      7  C   UNL d   1     -49.935  12.832  23.152  0.00  0.00     0.042 A 
ATOM      8  O   UNL d   1     -48.049  13.845  22.629  0.00  0.00    -0.286 OA
ATOM      9  O   UNL d   1     -50.155  11.477  23.698  0.00  0.00    -0.287 OA
ATOM     10  C   UNL d   1     -48.555  11.239  23.684  0.00  0.00     0.003 A 
ATOM     11  C   UNL d   1     -47.265  11.667  23.431  0.00  0.00     0.013 A 
ATOM     12  C   UNL d   1     -49.745  14.141  22.626  0.00  0.00     0.003 A 
ATOM     13  C   UNL d   1     -50.798  12.965  23.157  0.00  0.00     0.003 A 
ATOM     14  C   UNL d   1     -47.742  11.093  23.688  0.00  0.00     0.001 A 
ATOM     15  C   UNL d   1     -50.536  14.271  22.627  0.00  0.00     0.000 A 
ATOM     16  C   UNL d   1     -51.064  13.685  22.893  0.00  0.00     0.000 A 
ENDROOT
BRANCH   5  17
ATOM     17  S   UNL d   1     -46.954  12.967  22.900  0.00  0.00     0.285 S 
ATOM     18  O   UNL d   1     -46.771  13.138  23.673  0.00  0.00    -0.198 OA
ATOM     19  O   UNL d   1     -47.158  12.774  22.093  0.00  0.00    -0.198 OA
BRANCH  17  20
ATOM     20  N   UNL d   1     -46.419  13.517  22.648  0.00  0.00    -0.158 NA
BRANCH  20  21
ATOM     21  C   UNL d   1     -45.671  13.270  22.346  0.00  0.00     0.094 A 
ATOM     22  C   UNL d   1     -45.044  13.124  22.851  0.00  0.00     0.021 A 
ATOM     23  C   UNL d   1     -44.305  12.880  22.547  0.00  0.00     0.021 A 
ATOM     24  C   UNL d   1     -44.198  12.781  21.709  0.00  0.00     0.085 A 
ATOM     25  C   UNL d   1     -44.851  12.935  21.203  0.00  0.00     0.021 A 
ATOM     26  C   UNL d   1     -45.563  13.171  21.503  0.00  0.00     0.021 A 
BRANCH  24  27
ATOM     27  N   UNL d   1     -43.464  12.541  21.430  0.00  0.00    -0.208 NA
ATOM     28  C   UNL d   1     -42.824  13.064  21.342  0.00  0.00     0.279 C 
ATOM     29  O   UNL d   1     -42.959  13.884  21.557  0.00  0.00    -0.265 OA
ATOM     30  C   UNL d   1     -42.072  12.852  21.064  0.00  0.00     0.068 C 
ENDBRANCH  24  27
ENDBRANCH  20  21
ENDBRANCH  17  20
ENDBRANCH   5  17
TORSDOF 4
ENDMDL
MODEL 5
REMARK VINA RESULT:      -7.1      1.293      5.515
REMARK  4 active torsions:
REMARK  status: ('A' for Active; 'I' for Inactive)
REMARK    1  A    between atoms: C_6  and  S_1 
REMARK    2  A    between atoms: N_9  and  S_1 
REMARK    3  A    between atoms: C_17  and  N_9 
REMARK       I    between atoms: C_13  and  N_15 
REMARK    4  A    between atoms: N_15  and  C_18 
ROOT
ATOM      1  C   UNL d   1     -45.565  12.105  22.730  0.00  0.00     0.054 A 
ATOM      2  C   UNL d   1     -45.593  11.410  23.147  0.00  0.00     0.196 A 
ATOM      3  C   UNL d   1     -44.903  12.374  22.382  0.00  0.00     0.043 A 
ATOM      4  C   UNL d   1     -44.214  11.956  22.431  0.00  0.00     0.196 A 
ATOM      5  C   UNL d   1     -46.262  12.589  22.643  0.00  0.00     0.108 A 
ATOM      6  C   UNL d   1     -44.906  10.958  23.217  0.00  0.00     0.042 A 
ATOM      7  C   UNL d   1     -44.227  11.235  22.860  0.00  0.00     0.042 A 
ATOM      8  O   UNL d   1     -46.337  11.182  23.494  0.00  0.00    -0.286 OA
ATOM      9  O   UNL d   1     -43.511  12.248  22.058  0.00  0.00    -0.287 OA
ATOM     10  C   UNL d   1     -44.885  13.096  21.951  0.00  0.00     0.003 A 
ATOM     11  C   UNL d   1     -46.227  13.276  22.228  0.00  0.00     0.013 A 
ATOM     12  C   UNL d   1     -44.897  10.247  23.634  0.00  0.00     0.003 A 
ATOM     13  C   UNL d   1     -43.488  10.774  22.921  0.00  0.00     0.003 A 
ATOM     14  C   UNL d   1     -45.573  13.548  21.881  0.00  0.00     0.001 A 
ATOM     15  C   UNL d   1     -44.224   9.817  23.695  0.00  0.00     0.000 A 
ATOM     16  C   UNL d   1     -43.518  10.078  23.339  0.00  0.00     0.000 A 
ENDROOT
BRANCH   5  17
ATOM     17  S   UNL d   1     -47.005  12.344  23.000  0.00  0.00     0.285 S 
ATOM     18  O   UNL d   1     -47.170  11.897  22.342  0.00  0.00    -0.198 OA
ATOM     19  O   UNL d   1     -46.816  12.820  23.684  0.00  0.00    -0.198 OA
BRANCH  17  20
ATOM     20  N   UNL d   1     -47.703  12.116  23.336  0.00  0.00    -0.158 NA
BRANCH  20  21
ATOM     21  C   UNL d   1     -48.386  12.607  23.266  0.00  0.00     0.094 A 
ATOM     22  C   UNL d   1     -49.017  12.381  22.798  0.00  0.00     0.021 A 
ATOM     23  C   UNL d   1     -49.691  12.871  22.733  0.00  0.00     0.021 A 
ATOM     24  C   UNL d   1     -49.726  13.610  23.153  0.00  0.00     0.085 A 
ATOM     25  C   UNL d   1     -49.069  13.828  23.629  0.00  0.00     0.021 A 
ATOM     26  C   UNL d   1     -48.421  13.350  23.688  0.00  0.00     0.021 A 
BRANCH  24  27
ATOM     27  N   UNL d   1     -50.396  14.077  23.075  0.00  0.00    -0.208 NA
ATOM     28  C   UNL d   1     -50.405  14.782  22.634  0.00  0.00     0.279 C 
ATOM     29  O   UNL d   1     -49.670  15.010  22.252  0.00  0.00    -0.265 OA
ATOM     30  C   UNL d   1     -51.064  15.274  22.537  0.00  0.00     0.068 C 
ENDBRANCH  24  27
ENDBRANCH  20  21
ENDBRANCH  17  20
ENDBRANCH   5  17
TORSDOF 4
ENDMDL
