MODEL 1
REMARK VINA RESULT:      -3.1      0.000      0.000
REMARK  5 active torsions:
REMARK  status: ('A' for Active; 'I' for Inactive)
REMARK    1  A    between atoms: N_12  and  C_4 
REMARK    2  A    between atoms: C_19  and  N_5 
REMARK    3  A    between atoms: C_11  and  S_18 
REMARK    4  A    between atoms: S_18  and  C_21 
REMARK    5  A    between atoms: C_21  and  C_19 
ROOT
ATOM      1  C   UNL d   1      59.694  -2.774  28.877  0.00  0.00     0.191 A 
ATOM      2  C   UNL d   1      58.983  -2.370  28.976  0.00  0.00     0.174 A 
ATOM      3  N   UNL d   1      60.305  -2.226  28.936  0.00  0.00    -0.042 NA
ATOM      4  C   UNL d   1      59.978  -1.491  29.070  0.00  0.00     0.722 A 
ATOM      5  N   UNL d   1      59.155  -1.572  29.096  0.00  0.00    -0.132 N 
ATOM      6  N   UNL d   1      59.690  -3.588  28.747  0.00  0.00    -0.239 N 
ATOM      7  C   UNL d   1      58.975  -3.999  28.715  0.00  0.00     0.358 A 
ATOM      8  N   UNL d   1      58.264  -3.595  28.814  0.00  0.00    -0.152 NA
ATOM      9  C   UNL d   1      58.267  -2.780  28.945  0.00  0.00     0.303 A 
ATOM     10  O   UNL d   1      58.977  -4.815  28.584  0.00  0.00    -0.244 OA
ATOM     11  O   UNL d   1      57.556  -2.376  29.044  0.00  0.00    -0.263 OA
ATOM     12  C   UNL d   1      60.395  -3.988  28.648  0.00  0.00     0.105 C 
ENDROOT
BRANCH   5  13
ATOM     13  C   UNL d   1      58.603  -0.967  29.220  0.00  0.00     0.105 C 
BRANCH  13  14
ATOM     14  C   UNL d   1      58.106  -0.986  29.884  0.00  0.00     0.058 C 
BRANCH  14  15
ATOM     15  S   UNL d   1      57.681  -0.300  30.102  0.00  0.00    -0.041 SA
BRANCH  15  16
ATOM     16  C   UNL d   1      57.387  -0.237  30.873  0.00  0.00     0.215 A 
ATOM     17  N   UNL d   1      57.718   0.287  31.406  0.00  0.00    -0.214 NA
ATOM     18  C   UNL d   1      57.317   0.224  32.109  0.00  0.00     0.107 A 
ATOM     19  C   UNL d   1      57.419   0.622  32.830  0.00  0.00     0.021 A 
ATOM     20  C   UNL d   1      56.735  -0.333  32.032  0.00  0.00     0.120 A 
ATOM     21  C   UNL d   1      56.923   0.446  33.470  0.00  0.00     0.002 A 
ATOM     22  C   UNL d   1      56.342  -0.111  33.389  0.00  0.00     0.002 A 
ATOM     23  C   UNL d   1      56.247  -0.503  32.668  0.00  0.00     0.026 A 
ATOM     24  O   UNL d   1      56.775  -0.627  31.252  0.00  0.00    -0.283 OA
ENDBRANCH  15  16
ENDBRANCH  14  15
ENDBRANCH  13  14
ENDBRANCH   5  13
BRANCH   4  25
ATOM     25  N   UNL d   1      60.364  -0.768  29.167  0.00  0.00    -0.139 N 
ATOM     26  C   UNL d   1      60.377  -0.218  28.544  0.00  0.00     0.098 A 
ATOM     27  C   UNL d   1      60.763   0.505  28.642  0.00  0.00     0.020 A 
ATOM     28  C   UNL d   1      61.133   0.682  29.351  0.00  0.00     0.003 A 
ATOM     29  C   UNL d   1      61.119   0.134  29.967  0.00  0.00     0.020 A 
ATOM     30  C   UNL d   1      60.734  -0.592  29.877  0.00  0.00     0.098 A 
ENDBRANCH   4  25
TORSDOF 5
ENDMDL
