MODEL 1
REMARK VINA RESULT:      -2.7      0.000      0.000
REMARK  3 active torsions:
REMARK  status: ('A' for Active; 'I' for Inactive)
REMARK    1  A    between atoms: C_7  and  C_2 
REMARK    2  A    between atoms: N_5  and  C_8 
REMARK    3  A    between atoms: C_9  and  C_7 
ROOT
ATOM      1  C   UNL d   1      29.185  16.548 -23.826  0.00  0.00     0.127 A 
ATOM      2  C   UNL d   1      30.013  16.511 -23.825  0.00  0.00     0.023 A 
ATOM      3  C   UNL d   1      30.397  15.964 -23.346  0.00  0.00     0.002 A 
ATOM      4  C   UNL d   1      28.751  16.043 -23.352  0.00  0.00     0.024 A 
ATOM      5  C   UNL d   1      29.961  15.453 -22.866  0.00  0.00     0.000 A 
ATOM      6  C   UNL d   1      29.135  15.497 -22.873  0.00  0.00     0.002 A 
ENDROOT
BRANCH   2   7
ATOM      7  C   UNL d   1      30.446  17.020 -24.303  0.00  0.00     0.013 C 
BRANCH   7   8
ATOM      8  C   UNL d   1      31.251  16.884 -24.429  0.00  0.00     0.092 A 
ATOM      9  C   UNL d   1      31.867  17.398 -24.235  0.00  0.00     0.288 A 
ATOM     10  N   UNL d   1      32.575  17.035 -24.460  0.00  0.00    -0.163 NA
ATOM     11  O   UNL d   1      31.787  18.138 -23.881  0.00  0.00    -0.265 OA
ATOM     12  C   UNL d   1      32.400  16.305 -24.789  0.00  0.00     0.313 A 
ATOM     13  S   UNL d   1      31.582  16.208 -24.772  0.00  0.00    -0.021 SA
ATOM     14  O   UNL d   1      32.946  15.762 -25.086  0.00  0.00    -0.258 OA
ENDBRANCH   7   8
ENDBRANCH   2   7
BRANCH   1  15
ATOM     15  N   UNL d   1      28.800  17.099 -24.310  0.00  0.00    -0.114 N 
ATOM     16  O   UNL d   1      28.629  16.917 -25.097  0.00  0.00    -0.532 OA
ATOM     17  O   UNL d   1      28.585  17.837 -24.001  0.00  0.00    -0.532 OA
ENDBRANCH   1  15
TORSDOF 3
ENDMDL
MODEL 2
REMARK VINA RESULT:      -2.5      1.327      3.498
REMARK  3 active torsions:
REMARK  status: ('A' for Active; 'I' for Inactive)
REMARK    1  A    between atoms: C_7  and  C_2 
REMARK    2  A    between atoms: N_5  and  C_8 
REMARK    3  A    between atoms: C_9  and  C_7 
ROOT
ATOM      1  C   UNL d   1      32.747  16.605 -23.688  0.00  0.00     0.127 A 
ATOM      2  C   UNL d   1      31.925  16.707 -23.704  0.00  0.00     0.023 A 
ATOM      3  C   UNL d   1      31.606  17.465 -23.698  0.00  0.00     0.002 A 
ATOM      4  C   UNL d   1      33.241  17.256 -23.667  0.00  0.00     0.024 A 
ATOM      5  C   UNL d   1      32.102  18.124 -23.677  0.00  0.00     0.000 A 
ATOM      6  C   UNL d   1      32.922  18.014 -23.661  0.00  0.00     0.002 A 
ENDROOT
BRANCH   2   7
ATOM      7  C   UNL d   1      31.432  16.049 -23.725  0.00  0.00     0.013 C 
BRANCH   7   8
ATOM      8  C   UNL d   1      30.630  16.140 -23.901  0.00  0.00     0.092 A 
ATOM      9  C   UNL d   1      29.998  15.897 -23.428  0.00  0.00     0.288 A 
ATOM     10  N   UNL d   1      29.300  16.100 -23.823  0.00  0.00    -0.163 NA
ATOM     11  O   UNL d   1      30.057  15.522 -22.698  0.00  0.00    -0.265 OA
ATOM     12  C   UNL d   1      29.497  16.463 -24.530  0.00  0.00     0.313 A 
ATOM     13  S   UNL d   1      30.318  16.490 -24.583  0.00  0.00    -0.021 SA
ATOM     14  O   UNL d   1      28.966  16.752 -25.092  0.00  0.00    -0.258 OA
ENDBRANCH   7   8
ENDBRANCH   2   7
BRANCH   1  15
ATOM     15  N   UNL d   1      33.066  15.842 -23.694  0.00  0.00    -0.114 N 
ATOM     16  O   UNL d   1      33.222  15.459 -24.409  0.00  0.00    -0.532 OA
ATOM     17  O   UNL d   1      33.230  15.460 -22.977  0.00  0.00    -0.532 OA
ENDBRANCH   1  15
TORSDOF 3
ENDMDL
MODEL 3
REMARK VINA RESULT:      -2.5      2.194      2.832
REMARK  3 active torsions:
REMARK  status: ('A' for Active; 'I' for Inactive)
REMARK    1  A    between atoms: C_7  and  C_2 
REMARK    2  A    between atoms: N_5  and  C_8 
REMARK    3  A    between atoms: C_9  and  C_7 
ROOT
ATOM      1  C   UNL d   1      31.541  16.313 -24.062  0.00  0.00     0.127 A 
ATOM      2  C   UNL d   1      31.717  17.122 -24.013  0.00  0.00     0.023 A 
ATOM      3  C   UNL d   1      31.161  17.677 -24.255  0.00  0.00     0.002 A 
ATOM      4  C   UNL d   1      30.816  16.068 -24.349  0.00  0.00     0.024 A 
ATOM      5  C   UNL d   1      30.428  17.432 -24.546  0.00  0.00     0.000 A 
ATOM      6  C   UNL d   1      30.260  16.623 -24.591  0.00  0.00     0.002 A 
ENDROOT
BRANCH   2   7
ATOM      7  C   UNL d   1      32.447  17.364 -23.723  0.00  0.00     0.013 C 
BRANCH   7   8
ATOM      8  C   UNL d   1      32.709  18.136 -23.858  0.00  0.00     0.092 A 
ATOM      9  C   UNL d   1      32.926  18.685 -23.280  0.00  0.00     0.288 A 
ATOM     10  N   UNL d   1      33.150  19.379 -23.668  0.00  0.00    -0.163 NA
ATOM     11  O   UNL d   1      32.918  18.558 -22.467  0.00  0.00    -0.265 OA
ATOM     12  C   UNL d   1      33.074  19.263 -24.476  0.00  0.00     0.313 A 
ATOM     13  S   UNL d   1      32.802  18.496 -24.598  0.00  0.00    -0.021 SA
ATOM     14  O   UNL d   1      33.241  19.817 -25.064  0.00  0.00    -0.258 OA
ENDBRANCH   7   8
ENDBRANCH   2   7
BRANCH   1  15
ATOM     15  N   UNL d   1      32.101  15.756 -23.817  0.00  0.00    -0.114 N 
ATOM     16  O   UNL d   1      32.660  15.463 -24.350  0.00  0.00    -0.532 OA
ATOM     17  O   UNL d   1      32.102  15.490 -23.032  0.00  0.00    -0.532 OA
ENDBRANCH   1  15
TORSDOF 3
ENDMDL
MODEL 4
REMARK VINA RESULT:      -2.3      1.171      3.179
REMARK  3 active torsions:
REMARK  status: ('A' for Active; 'I' for Inactive)
REMARK    1  A    between atoms: C_7  and  C_2 
REMARK    2  A    between atoms: N_5  and  C_8 
REMARK    3  A    between atoms: C_9  and  C_7 
ROOT
ATOM      1  C   UNL d   1      32.016  16.930 -24.389  0.00  0.00     0.127 A 
ATOM      2  C   UNL d   1      31.236  16.673 -24.501  0.00  0.00     0.023 A 
ATOM      3  C   UNL d   1      31.092  15.944 -24.854  0.00  0.00     0.002 A 
ATOM      4  C   UNL d   1      32.641  16.462 -24.629  0.00  0.00     0.024 A 
ATOM      5  C   UNL d   1      31.721  15.469 -25.097  0.00  0.00     0.000 A 
ATOM      6  C   UNL d   1      32.497  15.733 -24.982  0.00  0.00     0.002 A 
ENDROOT
BRANCH   2   7
ATOM      7  C   UNL d   1      30.610  17.147 -24.258  0.00  0.00     0.013 C 
BRANCH   7   8
ATOM      8  C   UNL d   1      29.853  16.826 -24.183  0.00  0.00     0.092 A 
ATOM      9  C   UNL d   1      29.171  17.092 -24.564  0.00  0.00     0.288 A 
ATOM     10  N   UNL d   1      28.546  16.607 -24.324  0.00  0.00    -0.163 NA
ATOM     11  O   UNL d   1      29.126  17.727 -25.087  0.00  0.00    -0.265 OA
ATOM     12  C   UNL d   1      28.837  16.047 -23.801  0.00  0.00     0.313 A 
ATOM     13  S   UNL d   1      29.645  16.178 -23.711  0.00  0.00    -0.021 SA
ATOM     14  O   UNL d   1      28.398  15.455 -23.430  0.00  0.00    -0.258 OA
ENDBRANCH   7   8
ENDBRANCH   2   7
BRANCH   1  15
ATOM     15  N   UNL d   1      32.159  17.664 -24.034  0.00  0.00    -0.114 N 
ATOM     16  O   UNL d   1      32.196  18.350 -24.491  0.00  0.00    -0.532 OA
ATOM     17  O   UNL d   1      32.265  17.709 -23.213  0.00  0.00    -0.532 OA
ENDBRANCH   1  15
TORSDOF 3
ENDMDL
MODEL 5
REMARK VINA RESULT:      -2.3      1.267      2.017
REMARK  3 active torsions:
REMARK  status: ('A' for Active; 'I' for Inactive)
REMARK    1  A    between atoms: C_7  and  C_2 
REMARK    2  A    between atoms: N_5  and  C_8 
REMARK    3  A    between atoms: C_9  and  C_7 
ROOT
ATOM      1  C   UNL d   1      29.472  16.803 -24.305  0.00  0.00     0.127 A 
ATOM      2  C   UNL d   1      30.289  16.936 -24.354  0.00  0.00     0.023 A 
ATOM      3  C   UNL d   1      30.572  17.599 -24.750  0.00  0.00     0.002 A 
ATOM      4  C   UNL d   1      28.949  17.329 -24.648  0.00  0.00     0.024 A 
ATOM      5  C   UNL d   1      30.046  18.133 -25.097  0.00  0.00     0.000 A 
ATOM      6  C   UNL d   1      29.232  17.992 -25.043  0.00  0.00     0.002 A 
ENDROOT
BRANCH   2   7
ATOM      7  C   UNL d   1      30.811  16.405 -24.008  0.00  0.00     0.013 C 
BRANCH   7   8
ATOM      8  C   UNL d   1      31.596  16.624 -23.877  0.00  0.00     0.092 A 
ATOM      9  C   UNL d   1      32.266  16.212 -24.130  0.00  0.00     0.288 A 
ATOM     10  N   UNL d   1      32.929  16.634 -23.875  0.00  0.00    -0.163 NA
ATOM     11  O   UNL d   1      32.267  15.509 -24.559  0.00  0.00    -0.265 OA
ATOM     12  C   UNL d   1      32.675  17.298 -23.468  0.00  0.00     0.313 A 
ATOM     13  S   UNL d   1      31.852  17.296 -23.467  0.00  0.00    -0.021 SA
ATOM     14  O   UNL d   1      33.158  17.870 -23.120  0.00  0.00    -0.258 OA
ENDBRANCH   7   8
ENDBRANCH   2   7
BRANCH   1  15
ATOM     15  N   UNL d   1      29.189  16.135 -23.907  0.00  0.00    -0.114 N 
ATOM     16  O   UNL d   1      29.098  16.144 -23.087  0.00  0.00    -0.532 OA
ATOM     17  O   UNL d   1      28.995  15.453 -24.336  0.00  0.00    -0.532 OA
ENDBRANCH   1  15
TORSDOF 3
ENDMDL
MODEL 6
REMARK VINA RESULT:      -1.4      4.998      6.270
REMARK  3 active torsions:
REMARK  status: ('A' for Active; 'I' for Inactive)
REMARK    1  A    between atoms: C_7  and  C_2 
REMARK    2  A    between atoms: N_5  and  C_8 
REMARK    3  A    between atoms: C_9  and  C_7 
ROOT
ATOM      1  C   UNL d   1      32.612  22.545 -21.373  0.00  0.00     0.127 A 
ATOM      2  C   UNL d   1      32.977  21.956 -21.828  0.00  0.00     0.023 A 
ATOM      3  C   UNL d   1      33.240  22.131 -22.587  0.00  0.00     0.002 A 
ATOM      4  C   UNL d   1      32.512  23.297 -21.677  0.00  0.00     0.024 A 
ATOM      5  C   UNL d   1      33.141  22.890 -22.898  0.00  0.00     0.000 A 
ATOM      6  C   UNL d   1      32.775  23.471 -22.436  0.00  0.00     0.002 A 
ENDROOT
BRANCH   2   7
ATOM      7  C   UNL d   1      33.075  21.202 -21.518  0.00  0.00     0.013 C 
BRANCH   7   8
ATOM      8  C   UNL d   1      33.131  20.552 -22.024  0.00  0.00     0.092 A 
ATOM      9  C   UNL d   1      33.205  19.761 -21.796  0.00  0.00     0.288 A 
ATOM     10  N   UNL d   1      33.241  19.305 -22.484  0.00  0.00    -0.163 NA
ATOM     11  O   UNL d   1      33.236  19.483 -21.021  0.00  0.00    -0.265 OA
ATOM     12  C   UNL d   1      33.190  19.805 -23.131  0.00  0.00     0.313 A 
ATOM     13  S   UNL d   1      33.122  20.577 -22.852  0.00  0.00    -0.021 SA
ATOM     14  O   UNL d   1      33.205  19.578 -23.924  0.00  0.00    -0.258 OA
ENDBRANCH   7   8
ENDBRANCH   2   7
BRANCH   1  15
ATOM     15  N   UNL d   1      32.348  22.367 -20.609  0.00  0.00    -0.114 N 
ATOM     16  O   UNL d   1      31.560  22.161 -20.475  0.00  0.00    -0.532 OA
ATOM     17  O   UNL d   1      32.880  22.397 -19.973  0.00  0.00    -0.532 OA
ENDBRANCH   1  15
TORSDOF 3
ENDMDL
MODEL 7
REMARK VINA RESULT:      -1.3      1.821      3.446
REMARK  3 active torsions:
REMARK  status: ('A' for Active; 'I' for Inactive)
REMARK    1  A    between atoms: C_7  and  C_2 
REMARK    2  A    between atoms: N_5  and  C_8 
REMARK    3  A    between atoms: C_9  and  C_7 
ROOT
ATOM      1  C   UNL d   1      32.790  18.695 -23.874  0.00  0.00     0.127 A 
ATOM      2  C   UNL d   1      32.687  17.890 -23.704  0.00  0.00     0.023 A 
ATOM      3  C   UNL d   1      32.858  17.605 -22.952  0.00  0.00     0.002 A 
ATOM      4  C   UNL d   1      33.061  19.204 -23.296  0.00  0.00     0.024 A 
ATOM      5  C   UNL d   1      33.132  18.117 -22.366  0.00  0.00     0.000 A 
ATOM      6  C   UNL d   1      33.233  18.920 -22.543  0.00  0.00     0.002 A 
ENDROOT
BRANCH   2   7
ATOM      7  C   UNL d   1      32.414  17.380 -24.289  0.00  0.00     0.013 C 
BRANCH   7   8
ATOM      8  C   UNL d   1      31.977  16.711 -24.082  0.00  0.00     0.092 A 
ATOM      9  C   UNL d   1      32.122  15.938 -24.333  0.00  0.00     0.288 A 
ATOM     10  N   UNL d   1      31.548  15.453 -23.989  0.00  0.00    -0.163 NA
ATOM     11  O   UNL d   1      32.731  15.698 -24.833  0.00  0.00    -0.265 OA
ATOM     12  C   UNL d   1      31.052  15.918 -23.532  0.00  0.00     0.313 A 
ATOM     13  S   UNL d   1      31.314  16.697 -23.586  0.00  0.00    -0.021 SA
ATOM     14  O   UNL d   1      30.405  15.655 -23.094  0.00  0.00    -0.258 OA
ENDBRANCH   7   8
ENDBRANCH   2   7
BRANCH   1  15
ATOM     15  N   UNL d   1      32.617  18.979 -24.631  0.00  0.00    -0.114 N 
ATOM     16  O   UNL d   1      31.847  18.944 -24.926  0.00  0.00    -0.532 OA
ATOM     17  O   UNL d   1      33.223  19.302 -25.097  0.00  0.00    -0.532 OA
ENDBRANCH   1  15
TORSDOF 3
ENDMDL
MODEL 8
REMARK VINA RESULT:      -1.0      5.070      6.134
REMARK  3 active torsions:
REMARK  status: ('A' for Active; 'I' for Inactive)
REMARK    1  A    between atoms: C_7  and  C_2 
REMARK    2  A    between atoms: N_5  and  C_8 
REMARK    3  A    between atoms: C_9  and  C_7 
ROOT
ATOM      1  C   UNL d   1      32.609  22.393 -20.924  0.00  0.00     0.127 A 
ATOM      2  C   UNL d   1      32.926  21.717 -21.283  0.00  0.00     0.023 A 
ATOM      3  C   UNL d   1      33.240  21.116 -20.819  0.00  0.00     0.002 A 
ATOM      4  C   UNL d   1      32.608  22.463 -20.109  0.00  0.00     0.024 A 
ATOM      5  C   UNL d   1      33.241  21.183 -19.996  0.00  0.00     0.000 A 
ATOM      6  C   UNL d   1      32.922  21.862 -19.645  0.00  0.00     0.002 A 
ENDROOT
BRANCH   2   7
ATOM      7  C   UNL d   1      32.925  21.651 -22.102  0.00  0.00     0.013 C 
BRANCH   7   8
ATOM      8  C   UNL d   1      33.024  20.912 -22.457  0.00  0.00     0.092 A 
ATOM      9  C   UNL d   1      33.169  20.771 -23.258  0.00  0.00     0.288 A 
ATOM     10  N   UNL d   1      33.228  19.954 -23.361  0.00  0.00    -0.163 NA
ATOM     11  O   UNL d   1      33.241  21.346 -23.844  0.00  0.00    -0.265 OA
ATOM     12  C   UNL d   1      33.121  19.591 -22.634  0.00  0.00     0.313 A 
ATOM     13  S   UNL d   1      32.994  20.180 -22.072  0.00  0.00    -0.021 SA
ATOM     14  O   UNL d   1      33.137  18.779 -22.488  0.00  0.00    -0.258 OA
ENDBRANCH   7   8
ENDBRANCH   2   7
BRANCH   1  15
ATOM     15  N   UNL d   1      32.293  22.997 -21.393  0.00  0.00    -0.114 N 
ATOM     16  O   UNL d   1      31.489  23.004 -21.581  0.00  0.00    -0.532 OA
ATOM     17  O   UNL d   1      32.788  23.599 -21.676  0.00  0.00    -0.532 OA
ENDBRANCH   1  15
TORSDOF 3
ENDMDL
MODEL 9
REMARK VINA RESULT:      -0.1      5.594      6.691
REMARK  3 active torsions:
REMARK  status: ('A' for Active; 'I' for Inactive)
REMARK    1  A    between atoms: C_7  and  C_2 
REMARK    2  A    between atoms: N_5  and  C_8 
REMARK    3  A    between atoms: C_9  and  C_7 
ROOT
ATOM      1  C   UNL d   1      32.563  23.186 -21.271  0.00  0.00     0.127 A 
ATOM      2  C   UNL d   1      32.674  22.369 -21.180  0.00  0.00     0.023 A 
ATOM      3  C   UNL d   1      32.982  22.074 -20.477  0.00  0.00     0.002 A 
ATOM      4  C   UNL d   1      32.759  23.697 -20.664  0.00  0.00     0.024 A 
ATOM      5  C   UNL d   1      33.182  22.588 -19.862  0.00  0.00     0.000 A 
ATOM      6  C   UNL d   1      33.067  23.402 -19.961  0.00  0.00     0.002 A 
ENDROOT
BRANCH   2   7
ATOM      7  C   UNL d   1      32.475  21.859 -21.793  0.00  0.00     0.013 C 
BRANCH   7   8
ATOM      8  C   UNL d   1      32.660  21.056 -21.738  0.00  0.00     0.092 A 
ATOM      9  C   UNL d   1      32.939  20.577 -22.350  0.00  0.00     0.288 A 
ATOM     10  N   UNL d   1      33.047  19.818 -22.043  0.00  0.00    -0.163 NA
ATOM     11  O   UNL d   1      33.082  20.818 -23.125  0.00  0.00    -0.265 OA
ATOM     12  C   UNL d   1      32.838  19.824 -21.250  0.00  0.00     0.313 A 
ATOM     13  S   UNL d   1      32.598  20.588 -21.057  0.00  0.00    -0.021 SA
ATOM     14  O   UNL d   1      32.862  19.180 -20.735  0.00  0.00    -0.258 OA
ENDBRANCH   7   8
ENDBRANCH   2   7
BRANCH   1  15
ATOM     15  N   UNL d   1      32.252  23.481 -21.979  0.00  0.00    -0.114 N 
ATOM     16  O   UNL d   1      32.742  23.603 -22.632  0.00  0.00    -0.532 OA
ATOM     17  O   UNL d   1      31.443  23.655 -22.032  0.00  0.00    -0.532 OA
ENDBRANCH   1  15
TORSDOF 3
ENDMDL
