MODEL 1
REMARK VINA RESULT:      -2.5      0.000      0.000
REMARK  3 active torsions:
REMARK  status: ('A' for Active; 'I' for Inactive)
REMARK    1  A    between atoms: C_3  and  C_1 
REMARK       I    between atoms: N_4  and  C_1 
REMARK    2  A    between atoms: N_2  and  C_7 
REMARK    3  A    between atoms: C_16  and  N_4 
ROOT
ATOM      1  C   UNL d   1      57.328  -0.238  31.186  0.00  0.00     0.064 A 
ATOM      2  C   UNL d   1      57.653  -0.939  30.886  0.00  0.00     0.019 A 
ATOM      3  C   UNL d   1      57.470   0.475  30.781  0.00  0.00     0.019 A 
ATOM      4  C   UNL d   1      58.247  -0.222  29.803  0.00  0.00     0.085 A 
ATOM      5  C   UNL d   1      58.110  -0.931  30.198  0.00  0.00     0.021 A 
ATOM      6  C   UNL d   1      57.927   0.483  30.093  0.00  0.00     0.021 A 
ENDROOT
BRANCH   4   7
ATOM      7  N   UNL d   1      58.703  -0.214  29.116  0.00  0.00    -0.208 NA
ATOM      8  C   UNL d   1      59.504  -0.060  29.155  0.00  0.00     0.285 C 
ATOM      9  O   UNL d   1      59.961  -0.052  28.467  0.00  0.00    -0.265 OA
BRANCH   8  10
ATOM     10  C   UNL d   1      59.856   0.088  29.884  0.00  0.00     0.087 A 
ATOM     11  S   UNL d   1      59.749   0.681  30.441  0.00  0.00    -0.082 SA
ATOM     12  C   UNL d   1      60.254   0.547  31.067  0.00  0.00     0.036 A 
ATOM     13  C   UNL d   1      60.688  -0.140  30.907  0.00  0.00     0.008 A 
ATOM     14  C   UNL d   1      60.437  -0.420  30.173  0.00  0.00     0.012 A 
ENDBRANCH   8  10
ENDBRANCH   4   7
BRANCH   1  15
ATOM     15  N   UNL d   1      56.871  -0.246  31.874  0.00  0.00    -0.301 N 
ATOM     16  C   UNL d   1      56.574  -0.949  32.164  0.00  0.00     0.100 A 
ATOM     17  C   UNL d   1      56.118  -0.957  32.851  0.00  0.00     0.100 A 
ATOM     18  N   UNL d   1      55.958  -0.262  33.249  0.00  0.00    -0.299 N 
ATOM     19  C   UNL d   1      56.256   0.450  32.959  0.00  0.00     0.100 A 
ATOM     20  C   UNL d   1      55.502  -0.270  33.935  0.00  0.00     0.100 C 
ATOM     21  C   UNL d   1      56.712   0.458  32.272  0.00  0.00     0.100 A 
ENDBRANCH   1  15
TORSDOF 3
ENDMDL
MODEL 2
REMARK VINA RESULT:      -1.9      2.320      4.518
REMARK  3 active torsions:
REMARK  status: ('A' for Active; 'I' for Inactive)
REMARK    1  A    between atoms: C_3  and  C_1 
REMARK       I    between atoms: N_4  and  C_1 
REMARK    2  A    between atoms: N_2  and  C_7 
REMARK    3  A    between atoms: C_16  and  N_4 
ROOT
ATOM      1  C   UNL d   1      57.493   0.214  31.426  0.00  0.00     0.064 A 
ATOM      2  C   UNL d   1      57.917   0.118  32.132  0.00  0.00     0.019 A 
ATOM      3  C   UNL d   1      56.702   0.470  31.466  0.00  0.00     0.019 A 
ATOM      4  C   UNL d   1      56.779   0.527  32.893  0.00  0.00     0.085 A 
ATOM      5  C   UNL d   1      57.562   0.274  32.862  0.00  0.00     0.021 A 
ATOM      6  C   UNL d   1      56.347   0.625  32.195  0.00  0.00     0.021 A 
ENDROOT
BRANCH   4   7
ATOM      7  N   UNL d   1      56.425   0.682  33.622  0.00  0.00    -0.208 NA
ATOM      8  C   UNL d   1      55.945   0.123  33.974  0.00  0.00     0.285 C 
ATOM      9  O   UNL d   1      55.590   0.279  34.703  0.00  0.00    -0.265 OA
BRANCH   8  10
ATOM     10  C   UNL d   1      55.815  -0.598  33.598  0.00  0.00     0.087 A 
ATOM     11  S   UNL d   1      56.293  -1.252  33.475  0.00  0.00    -0.082 SA
ATOM     12  C   UNL d   1      55.868  -1.814  33.064  0.00  0.00     0.036 A 
ATOM     13  C   UNL d   1      55.109  -1.513  32.923  0.00  0.00     0.008 A 
ATOM     14  C   UNL d   1      55.081  -0.759  33.256  0.00  0.00     0.012 A 
ENDBRANCH   8  10
ENDBRANCH   4   7
BRANCH   1  15
ATOM     15  N   UNL d   1      57.848   0.058  30.697  0.00  0.00    -0.301 N 
ATOM     16  C   UNL d   1      57.946   0.657  30.151  0.00  0.00     0.100 A 
ATOM     17  C   UNL d   1      58.301   0.502  29.422  0.00  0.00     0.100 A 
ATOM     18  N   UNL d   1      58.557  -0.253  29.240  0.00  0.00    -0.299 N 
ATOM     19  C   UNL d   1      58.458  -0.859  29.789  0.00  0.00     0.100 A 
ATOM     20  C   UNL d   1      58.911  -0.408  28.512  0.00  0.00     0.100 C 
ATOM     21  C   UNL d   1      58.104  -0.704  30.517  0.00  0.00     0.100 A 
ENDBRANCH   1  15
TORSDOF 3
ENDMDL
MODEL 3
REMARK VINA RESULT:      -0.7      9.229     10.058
REMARK  3 active torsions:
REMARK  status: ('A' for Active; 'I' for Inactive)
REMARK    1  A    between atoms: C_3  and  C_1 
REMARK       I    between atoms: N_4  and  C_1 
REMARK    2  A    between atoms: N_2  and  C_7 
REMARK    3  A    between atoms: C_16  and  N_4 
ROOT
ATOM      1  C   UNL d   1      58.963  -9.656  33.122  0.00  0.00     0.064 A 
ATOM      2  C   UNL d   1      59.785  -9.553  33.075  0.00  0.00     0.019 A 
ATOM      3  C   UNL d   1      58.618  -9.788  33.867  0.00  0.00     0.019 A 
ATOM      4  C   UNL d   1      59.904  -9.715  34.490  0.00  0.00     0.085 A 
ATOM      5  C   UNL d   1      60.252  -9.583  33.756  0.00  0.00     0.021 A 
ATOM      6  C   UNL d   1      59.085  -9.818  34.548  0.00  0.00     0.021 A 
ENDROOT
BRANCH   4   7
ATOM      7  N   UNL d   1      60.371  -9.744  35.169  0.00  0.00    -0.208 NA
ATOM      8  C   UNL d   1      60.442  -9.087  35.649  0.00  0.00     0.285 C 
ATOM      9  O   UNL d   1      60.910  -9.116  36.329  0.00  0.00    -0.265 OA
BRANCH   8  10
ATOM     10  C   UNL d   1      60.045  -8.393  35.451  0.00  0.00     0.087 A 
ATOM     11  S   UNL d   1      60.137  -7.857  34.837  0.00  0.00    -0.082 SA
ATOM     12  C   UNL d   1      59.582  -7.266  34.920  0.00  0.00     0.036 A 
ATOM     13  C   UNL d   1      59.130  -7.427  35.596  0.00  0.00     0.008 A 
ATOM     14  C   UNL d   1      59.421  -8.126  35.921  0.00  0.00     0.012 A 
ENDBRANCH   8  10
ENDBRANCH   4   7
BRANCH   1  15
ATOM     15  N   UNL d   1      58.496  -9.626  32.441  0.00  0.00    -0.301 N 
ATOM     16  C   UNL d   1      58.814  -9.818  31.714  0.00  0.00     0.100 A 
ATOM     17  C   UNL d   1      58.347  -9.788  31.035  0.00  0.00     0.100 A 
ATOM     18  N   UNL d   1      57.562  -9.568  31.083  0.00  0.00    -0.299 N 
ATOM     19  C   UNL d   1      57.238  -9.374  31.815  0.00  0.00     0.100 A 
ATOM     20  C   UNL d   1      57.095  -9.538  30.404  0.00  0.00     0.100 C 
ATOM     21  C   UNL d   1      57.705  -9.403  32.494  0.00  0.00     0.100 A 
ENDBRANCH   1  15
TORSDOF 3
ENDMDL
MODEL 4
REMARK VINA RESULT:      -0.3      2.939      4.681
REMARK  3 active torsions:
REMARK  status: ('A' for Active; 'I' for Inactive)
REMARK    1  A    between atoms: C_3  and  C_1 
REMARK       I    between atoms: N_4  and  C_1 
REMARK    2  A    between atoms: N_2  and  C_7 
REMARK    3  A    between atoms: C_16  and  N_4 
ROOT
ATOM      1  C   UNL d   1      59.475  -2.976  29.058  0.00  0.00     0.064 A 
ATOM      2  C   UNL d   1      59.039  -2.606  28.459  0.00  0.00     0.019 A 
ATOM      3  C   UNL d   1      59.488  -2.632  29.816  0.00  0.00     0.019 A 
ATOM      4  C   UNL d   1      58.641  -1.573  29.361  0.00  0.00     0.085 A 
ATOM      5  C   UNL d   1      58.624  -1.908  28.610  0.00  0.00     0.021 A 
ATOM      6  C   UNL d   1      59.073  -1.934  29.967  0.00  0.00     0.021 A 
ENDROOT
BRANCH   4   7
ATOM      7  N   UNL d   1      58.226  -0.875  29.512  0.00  0.00    -0.208 NA
ATOM      8  C   UNL d   1      58.596  -0.151  29.433  0.00  0.00     0.285 C 
ATOM      9  O   UNL d   1      58.181   0.547  29.584  0.00  0.00    -0.265 OA
BRANCH   8  10
ATOM     10  C   UNL d   1      59.385  -0.119  29.201  0.00  0.00     0.087 A 
ATOM     11  S   UNL d   1      59.755  -0.226  28.477  0.00  0.00    -0.082 SA
ATOM     12  C   UNL d   1      60.558  -0.127  28.576  0.00  0.00     0.036 A 
ATOM     13  C   UNL d   1      60.702   0.044  29.374  0.00  0.00     0.008 A 
ATOM     14  C   UNL d   1      59.972   0.047  29.757  0.00  0.00     0.012 A 
ENDBRANCH   8  10
ENDBRANCH   4   7
BRANCH   1  15
ATOM     15  N   UNL d   1      59.890  -3.674  28.907  0.00  0.00    -0.301 N 
ATOM     16  C   UNL d   1      60.704  -3.665  28.846  0.00  0.00     0.100 A 
ATOM     17  C   UNL d   1      61.119  -4.362  28.695  0.00  0.00     0.100 A 
ATOM     18  N   UNL d   1      60.719  -5.069  28.606  0.00  0.00    -0.299 N 
ATOM     19  C   UNL d   1      59.898  -5.082  28.667  0.00  0.00     0.100 A 
ATOM     20  C   UNL d   1      61.133  -5.765  28.455  0.00  0.00     0.100 C 
ATOM     21  C   UNL d   1      59.483  -4.385  28.818  0.00  0.00     0.100 A 
ENDBRANCH   1  15
TORSDOF 3
ENDMDL
