MODEL 1
REMARK VINA RESULT:       0.7      0.000      0.000
REMARK  6 active torsions:
REMARK  status: ('A' for Active; 'I' for Inactive)
REMARK    1  A    between atoms: N_6  and  S_1 
REMARK    2  A    between atoms: C_7  and  S_1 
REMARK       I    between atoms: C_2  and  N_4 
REMARK    3  A    between atoms: C_8  and  C_2 
REMARK    4  A    between atoms: C_3  and  C_12 
REMARK       I    between atoms: N_5  and  C_3 
REMARK    5  A    between atoms: C_23  and  N_6 
REMARK    6  A    between atoms: O_29  and  C_26 
ROOT
ATOM      1  C   UNL d   1      57.292   0.065  32.491  0.00  0.00     0.057 A 
ATOM      2  C   UNL d   1      57.293  -0.136  30.856  0.00  0.00     0.094 A 
ATOM      3  C   UNL d   1      57.042  -0.650  32.156  0.00  0.00     0.006 A 
ATOM      4  C   UNL d   1      57.543   0.679  32.005  0.00  0.00     0.006 A 
ATOM      5  C   UNL d   1      57.045  -0.745  31.332  0.00  0.00     0.020 A 
ATOM      6  C   UNL d   1      57.544   0.579  31.186  0.00  0.00     0.020 A 
ENDROOT
BRANCH   1   7
ATOM      7  C   UNL d   1      57.291   0.164  33.319  0.00  0.00     0.265 C 
ATOM      8  N   UNL d   1      56.577   0.269  33.730  0.00  0.00    -0.269 N 
ATOM      9  C   UNL d   1      56.577   0.366  34.550  0.00  0.00     0.102 A 
ATOM     10  C   UNL d   1      55.863   0.276  33.316  0.00  0.00     0.102 A 
ATOM     11  C   UNL d   1      55.865   0.470  34.952  0.00  0.00     0.102 A 
ATOM     12  N   UNL d   1      55.158   0.475  34.528  0.00  0.00    -0.267 N 
ATOM     13  C   UNL d   1      54.447   0.578  34.926  0.00  0.00     0.288 C 
ATOM     14  C   UNL d   1      55.156   0.379  33.715  0.00  0.00     0.102 A 
ATOM     15  O   UNL d   1      54.447   0.677  35.750  0.00  0.00    -0.264 OA
ATOM     16  O   UNL d   1      58.009   0.157  33.734  0.00  0.00    -0.267 OA
BRANCH  13  17
ATOM     17  C   UNL d   1      53.741   0.585  34.515  0.00  0.00     0.156 A 
ATOM     18  O   UNL d   1      53.649   0.546  33.690  0.00  0.00    -0.300 OA
ATOM     19  C   UNL d   1      52.846   0.569  33.524  0.00  0.00     0.123 A 
ATOM     20  C   UNL d   1      52.430   0.622  34.235  0.00  0.00     0.029 A 
ATOM     21  C   UNL d   1      52.982   0.632  34.847  0.00  0.00     0.032 A 
ENDBRANCH  13  17
ENDBRANCH   1   7
BRANCH   2  22
ATOM     22  N   UNL d   1      57.295  -0.232  30.036  0.00  0.00    -0.158 NA
BRANCH  22  23
ATOM     23  S   UNL d   1      57.982  -0.460  29.657  0.00  0.00     0.285 S 
ATOM     24  O   UNL d   1      57.961  -1.185  30.053  0.00  0.00    -0.198 OA
ATOM     25  O   UNL d   1      58.009   0.259  29.259  0.00  0.00    -0.198 OA
BRANCH  23  26
ATOM     26  C   UNL d   1      58.676  -0.693  29.275  0.00  0.00     0.107 A 
ATOM     27  C   UNL d   1      58.889  -1.490  29.256  0.00  0.00     0.037 A 
ATOM     28  C   UNL d   1      59.583  -1.723  28.874  0.00  0.00     0.095 A 
ATOM     29  C   UNL d   1      60.062  -1.157  28.512  0.00  0.00     0.024 A 
ATOM     30  C   UNL d   1      59.851  -0.367  28.531  0.00  0.00     0.003 A 
ATOM     31  C   UNL d   1      59.159  -0.130  28.912  0.00  0.00     0.013 A 
BRANCH  28  32
ATOM     32  O   UNL d   1      59.804  -2.528  28.851  0.00  0.00    -0.328 OA
ATOM     33  C   UNL d   1      60.598  -2.740  28.758  0.00  0.00     0.181 C 
ENDBRANCH  28  32
ENDBRANCH  23  26
ENDBRANCH  22  23
ENDBRANCH   2  22
TORSDOF 6
ENDMDL
