MODEL 1
REMARK VINA RESULT:      76.9      0.000      0.000
REMARK  9 active torsions:
REMARK  status: ('A' for Active; 'I' for Inactive)
REMARK    1  A    between atoms: N_4  and  C_1 
REMARK       I    between atoms: C_8  and  N_4 
REMARK    2  A    between atoms: C_19  and  N_4 
REMARK    3  A    between atoms: S_6  and  C_11 
REMARK    4  A    between atoms: C_14  and  S_6 
REMARK    5  A    between atoms: C_10  and  C_8 
REMARK    6  A    between atoms: C_11  and  C_10 
REMARK    7  A    between atoms: C_20  and  C_19 
REMARK    8  A    between atoms: C_23  and  C_20 
REMARK    9  A    between atoms: N_21  and  C_23 
ROOT
ATOM      1  N   UNL d   1     -49.539  27.548  35.102  0.00  0.00    -0.253 N 
ATOM      2  C   UNL d   1     -49.917  27.413  34.379  0.00  0.00     0.267 C 
ATOM      3  O   UNL d   1     -49.731  27.862  33.722  0.00  0.00    -0.267 OA
ENDROOT
BRANCH   1   4
ATOM      4  C   UNL d   1     -48.963  28.150  35.153  0.00  0.00     0.182 A 
ATOM      5  N   UNL d   1     -49.097  28.950  35.022  0.00  0.00    -0.222 NA
ATOM      6  C   UNL d   1     -48.379  29.357  35.129  0.00  0.00     0.089 A 
ATOM      7  C   UNL d   1     -48.187  30.144  35.071  0.00  0.00     0.018 A 
ATOM      8  C   UNL d   1     -47.808  28.798  35.327  0.00  0.00     0.050 A 
ATOM      9  C   UNL d   1     -47.413  30.396  35.211  0.00  0.00     0.002 A 
ATOM     10  C   UNL d   1     -48.762  30.704  34.872  0.00  0.00     0.002 C 
ATOM     11  C   UNL d   1     -47.211  31.186  35.155  0.00  0.00     0.000 C 
ATOM     12  C   UNL d   1     -46.844  29.839  35.408  0.00  0.00     0.001 A 
ATOM     13  C   UNL d   1     -47.048  29.041  35.464  0.00  0.00     0.008 A 
ATOM     14  S   UNL d   1     -48.162  28.050  35.344  0.00  0.00    -0.048 SA
ENDBRANCH   1   4
BRANCH   1  15
ATOM     15  C   UNL d   1     -49.727  27.095  35.765  0.00  0.00     0.086 C 
BRANCH  15  16
ATOM     16  C   UNL d   1     -50.128  27.443  36.402  0.00  0.00     0.038 C 
BRANCH  16  17
ATOM     17  C   UNL d   1     -50.190  27.038  37.118  0.00  0.00     0.082 C 
BRANCH  17  18
ATOM     18  N   UNL d   1     -50.859  27.134  37.591  0.00  0.00    -0.300 N 
ATOM     19  C   UNL d   1     -51.419  26.530  37.641  0.00  0.00     0.100 C 
ATOM     20  C   UNL d   1     -50.965  27.833  38.012  0.00  0.00     0.100 C 
ENDBRANCH  17  18
ENDBRANCH  16  17
ENDBRANCH  15  16
ENDBRANCH   1  15
BRANCH   2  21
ATOM     21  C   UNL d   1     -50.488  26.815  34.331  0.00  0.00     0.073 C 
BRANCH  21  22
ATOM     22  C   UNL d   1     -50.675  26.494  33.588  0.00  0.00     0.104 C 
BRANCH  22  23
ATOM     23  S   UNL d   1     -50.952  25.716  33.524  0.00  0.00     0.211 S 
ATOM     24  O   UNL d   1     -50.175  25.437  33.597  0.00  0.00    -0.217 OA
ATOM     25  O   UNL d   1     -51.736  26.001  33.450  0.00  0.00    -0.217 OA
BRANCH  23  26
ATOM     26  C   UNL d   1     -51.228  24.940  33.460  0.00  0.00     0.088 A 
ATOM     27  C   UNL d   1     -52.035  24.798  33.439  0.00  0.00     0.011 A 
ATOM     28  C   UNL d   1     -52.313  24.016  33.375  0.00  0.00     0.001 A 
ATOM     29  C   UNL d   1     -51.776  23.398  33.333  0.00  0.00     0.000 A 
ATOM     30  C   UNL d   1     -50.972  23.536  33.353  0.00  0.00     0.001 A 
ATOM     31  C   UNL d   1     -50.696  24.311  33.417  0.00  0.00     0.011 A 
ENDBRANCH  23  26
ENDBRANCH  22  23
ENDBRANCH  21  22
ENDBRANCH   2  21
TORSDOF 9
ENDMDL
