MODEL 1
REMARK VINA RESULT:       0.1      0.000      0.000
REMARK  5 active torsions:
REMARK  status: ('A' for Active; 'I' for Inactive)
REMARK    1  A    between atoms: N_2  and  S_1 
REMARK    2  A    between atoms: C_6  and  S_1 
REMARK       I    between atoms: C_3  and  N_4 
REMARK    3  A    between atoms: C_5  and  C_3 
REMARK    4  A    between atoms: O_20  and  C_21 
REMARK    5  A    between atoms: C_24  and  O_20 
ROOT
ATOM      1  S   UNL d   1     -41.483-120.996 -51.408  0.00  0.00     0.271 S 
ATOM      2  O   UNL d   1     -41.461-120.439 -50.803  0.00  0.00    -0.200 OA
ATOM      3  O   UNL d   1     -41.161-120.445 -51.927  0.00  0.00    -0.200 OA
ENDROOT
BRANCH   1   4
ATOM      4  N   UNL d   1     -41.806-121.551 -50.889  0.00  0.00    -0.226 N 
ATOM      5  C   UNL d   1     -41.394-121.788 -50.222  0.00  0.00     0.111 A 
ATOM      6  C   UNL d   1     -41.719-122.341 -49.708  0.00  0.00     0.103 A 
ATOM      7  N   UNL d   1     -42.462-122.654 -49.869  0.00  0.00    -0.267 N 
ATOM      8  C   UNL d   1     -42.787-123.208 -49.355  0.00  0.00     0.288 C 
ATOM      9  C   UNL d   1     -42.880-122.422 -50.534  0.00  0.00     0.103 A 
ATOM     10  O   UNL d   1     -43.532-123.528 -49.507  0.00  0.00    -0.264 OA
ATOM     11  C   UNL d   1     -42.557-121.868 -51.053  0.00  0.00     0.111 A 
BRANCH   8  12
ATOM     12  C   UNL d   1     -42.371-123.447 -48.681  0.00  0.00     0.156 A 
ATOM     13  O   UNL d   1     -41.558-123.587 -48.626  0.00  0.00    -0.300 OA
ATOM     14  C   UNL d   1     -41.386-123.813 -47.857  0.00  0.00     0.123 A 
ATOM     15  C   UNL d   1     -42.089-123.817 -47.422  0.00  0.00     0.029 A 
ATOM     16  C   UNL d   1     -42.698-123.589 -47.938  0.00  0.00     0.032 A 
ENDBRANCH   8  12
ENDBRANCH   1   4
BRANCH   1  17
ATOM     17  C   UNL d   1     -41.505-121.552 -52.016  0.00  0.00     0.104 A 
ATOM     18  C   UNL d   1     -41.135-122.287 -51.933  0.00  0.00     0.015 A 
ATOM     19  C   UNL d   1     -41.160-122.836 -52.543  0.00  0.00     0.025 A 
ATOM     20  C   UNL d   1     -41.554-122.655 -53.239  0.00  0.00     0.100 A 
ATOM     21  C   UNL d   1     -41.927-121.924 -53.333  0.00  0.00     0.025 A 
ATOM     22  C   UNL d   1     -41.904-121.372 -52.724  0.00  0.00     0.015 A 
BRANCH  20  23
ATOM     23  O   UNL d   1     -41.577-123.214 -53.855  0.00  0.00    -0.307 OA
BRANCH  23  24
ATOM     24  C   UNL d   1     -42.027-123.057 -54.534  0.00  0.00     0.100 A 
ATOM     25  C   UNL d   1     -41.782-122.479 -55.078  0.00  0.00     0.025 A 
ATOM     26  C   UNL d   1     -42.234-122.328 -55.752  0.00  0.00     0.002 A 
ATOM     27  C   UNL d   1     -42.929-122.751 -55.884  0.00  0.00     0.000 A 
ATOM     28  C   UNL d   1     -43.174-123.329 -55.339  0.00  0.00     0.002 A 
ATOM     29  C   UNL d   1     -42.722-123.481 -54.665  0.00  0.00     0.025 A 
ENDBRANCH  23  24
ENDBRANCH  20  23
ENDBRANCH   1  17
TORSDOF 5
ENDMDL
