MODEL 1
REMARK VINA RESULT:      56.9      0.000      0.000
REMARK  7 active torsions:
REMARK  status: ('A' for Active; 'I' for Inactive)
REMARK    1  A    between atoms: C_7  and  C_1 
REMARK    2  A    between atoms: C_11  and  N_2 
REMARK    3  A    between atoms: C_10  and  C_5 
REMARK    4  A    between atoms: C_6  and  C_7 
REMARK    5  A    between atoms: C_18  and  C_11 
REMARK    6  A    between atoms: O_20  and  C_15 
REMARK    7  A    between atoms: N_19  and  C_18 
ROOT
ATOM      1  C   UNL d   1      45.230 -15.466  44.656  0.00  0.00     0.101 A 
ATOM      2  N   UNL d   1      44.217 -14.597  44.638  0.00  0.00    -0.269 N 
ATOM      3  C   UNL d   1      44.532 -15.883  44.811  0.00  0.00     0.256 A 
ATOM      4  C   UNL d   1      43.908 -15.348  44.800  0.00  0.00     0.304 A 
ATOM      5  C   UNL d   1      45.028 -14.674  44.550  0.00  0.00     0.075 A 
ATOM      6  O   UNL d   1      43.108 -15.532  44.929  0.00  0.00    -0.263 OA
ATOM      7  O   UNL d   1      44.470 -16.699  44.953  0.00  0.00    -0.281 OA
ENDROOT
BRANCH   1   8
ATOM      8  C   UNL d   1      45.987 -15.791  44.616  0.00  0.00     0.223 C 
ATOM      9  O   UNL d   1      46.641 -15.347  44.862  0.00  0.00    -0.284 OA
BRANCH   8  10
ATOM     10  C   UNL d   1      46.101 -16.557  44.332  0.00  0.00     0.139 A 
ATOM     11  O   UNL d   1      46.389 -16.762  43.583  0.00  0.00    -0.304 OA
ATOM     12  C   UNL d   1      46.411 -17.584  43.542  0.00  0.00     0.100 A 
ATOM     13  C   UNL d   1      46.646 -18.094  42.937  0.00  0.00     0.025 A 
ATOM     14  C   UNL d   1      46.140 -17.887  44.252  0.00  0.00     0.025 A 
ATOM     15  C   UNL d   1      46.608 -18.904  43.050  0.00  0.00     0.002 A 
ATOM     16  C   UNL d   1      46.335 -19.204  43.767  0.00  0.00     0.000 A 
ATOM     17  C   UNL d   1      46.102 -18.701  44.366  0.00  0.00     0.002 A 
ATOM     18  C   UNL d   1      45.949 -17.248  44.740  0.00  0.00     0.030 A 
ENDBRANCH   8  10
ENDBRANCH   1   8
BRANCH   5  19
ATOM     19  C   UNL d   1      45.570 -14.059  44.382  0.00  0.00     0.039 A 
ATOM     20  C   UNL d   1      45.935 -14.027  43.640  0.00  0.00     0.096 A 
ATOM     21  C   UNL d   1      46.469 -13.423  43.470  0.00  0.00     0.024 A 
ATOM     22  C   UNL d   1      46.644 -12.840  44.048  0.00  0.00     0.002 A 
ATOM     23  C   UNL d   1      46.273 -12.880  44.793  0.00  0.00     0.000 A 
ATOM     24  C   UNL d   1      45.738 -13.489  44.954  0.00  0.00     0.003 A 
BRANCH  20  25
ATOM     25  O   UNL d   1      45.761 -14.601  43.073  0.00  0.00    -0.328 OA
ATOM     26  C   UNL d   1      45.621 -14.374  42.289  0.00  0.00     0.181 C 
ENDBRANCH  20  25
ENDBRANCH   5  19
BRANCH   2  27
ATOM     27  C   UNL d   1      43.777 -13.896  44.577  0.00  0.00     0.102 C 
BRANCH  27  28
ATOM     28  C   UNL d   1      43.260 -13.783  43.946  0.00  0.00     0.100 C 
BRANCH  28  29
ATOM     29  N   UNL d   1      43.179 -13.029  43.605  0.00  0.00    -0.299 N 
ATOM     30  C   UNL d   1      43.043 -12.376  44.091  0.00  0.00     0.100 C 
ATOM     31  C   UNL d   1      43.236 -12.942  42.791  0.00  0.00     0.100 C 
ENDBRANCH  28  29
ENDBRANCH  27  28
ENDBRANCH   2  27
TORSDOF 7
ENDMDL
MODEL 2
REMARK VINA RESULT:      58.6      1.910      4.782
REMARK  7 active torsions:
REMARK  status: ('A' for Active; 'I' for Inactive)
REMARK    1  A    between atoms: C_7  and  C_1 
REMARK    2  A    between atoms: C_11  and  N_2 
REMARK    3  A    between atoms: C_10  and  C_5 
REMARK    4  A    between atoms: C_6  and  C_7 
REMARK    5  A    between atoms: C_18  and  C_11 
REMARK    6  A    between atoms: O_20  and  C_15 
REMARK    7  A    between atoms: N_19  and  C_18 
ROOT
ATOM      1  C   UNL d   1      45.437 -16.615  43.285  0.00  0.00     0.101 A 
ATOM      2  N   UNL d   1      45.864 -17.865  43.480  0.00  0.00    -0.269 N 
ATOM      3  C   UNL d   1      45.396 -16.777  44.096  0.00  0.00     0.256 A 
ATOM      4  C   UNL d   1      45.658 -17.547  44.216  0.00  0.00     0.304 A 
ATOM      5  C   UNL d   1      45.727 -17.290  42.911  0.00  0.00     0.075 A 
ATOM      6  O   UNL d   1      45.707 -17.934  44.949  0.00  0.00    -0.263 OA
ATOM      7  O   UNL d   1      45.135 -16.255  44.688  0.00  0.00    -0.281 OA
ENDROOT
BRANCH   1   8
ATOM      8  C   UNL d   1      45.226 -15.903  42.924  0.00  0.00     0.223 C 
ATOM      9  O   UNL d   1      44.835 -15.911  42.195  0.00  0.00    -0.284 OA
BRANCH   8  10
ATOM     10  C   UNL d   1      45.400 -15.182  43.283  0.00  0.00     0.139 A 
ATOM     11  O   UNL d   1      45.565 -15.063  44.086  0.00  0.00    -0.304 OA
ATOM     12  C   UNL d   1      45.706 -14.260  44.195  0.00  0.00     0.100 A 
ATOM     13  C   UNL d   1      45.895 -13.825  44.871  0.00  0.00     0.025 A 
ATOM     14  C   UNL d   1      45.630 -13.883  43.473  0.00  0.00     0.025 A 
ATOM     15  C   UNL d   1      46.007 -13.016  44.817  0.00  0.00     0.002 A 
ATOM     16  C   UNL d   1      45.929 -12.642  44.086  0.00  0.00     0.000 A 
ATOM     17  C   UNL d   1      45.742 -13.069  43.417  0.00  0.00     0.002 A 
ATOM     18  C   UNL d   1      45.440 -14.457  42.909  0.00  0.00     0.030 A 
ENDBRANCH   8  10
ENDBRANCH   1   8
BRANCH   5  19
ATOM     19  C   UNL d   1      45.855 -17.364  42.089  0.00  0.00     0.039 A 
ATOM     20  C   UNL d   1      45.319 -17.795  41.627  0.00  0.00     0.096 A 
ATOM     21  C   UNL d   1      45.443 -17.870  40.817  0.00  0.00     0.024 A 
ATOM     22  C   UNL d   1      46.111 -17.512  40.456  0.00  0.00     0.002 A 
ATOM     23  C   UNL d   1      46.645 -17.080  40.926  0.00  0.00     0.000 A 
ATOM     24  C   UNL d   1      46.514 -17.009  41.740  0.00  0.00     0.003 A 
BRANCH  20  25
ATOM     25  O   UNL d   1      44.664 -18.146  41.984  0.00  0.00    -0.328 OA
ATOM     26  C   UNL d   1      44.099 -18.529  41.515  0.00  0.00     0.181 C 
ENDBRANCH  20  25
ENDBRANCH   5  19
BRANCH   2  27
ATOM     27  C   UNL d   1      46.155 -18.630  43.348  0.00  0.00     0.102 C 
BRANCH  27  28
ATOM     28  C   UNL d   1      46.510 -19.050  43.961  0.00  0.00     0.100 C 
BRANCH  28  29
ATOM     29  N   UNL d   1      46.529 -19.881  43.939  0.00  0.00    -0.299 N 
ATOM     30  C   UNL d   1      46.622 -20.267  43.214  0.00  0.00     0.100 C 
ATOM     31  C   UNL d   1      46.454 -20.309  44.635  0.00  0.00     0.100 C 
ENDBRANCH  28  29
ENDBRANCH  27  28
ENDBRANCH   2  27
TORSDOF 7
ENDMDL
