MODEL 1
REMARK VINA RESULT:      86.1      0.000      0.000
REMARK  8 active torsions:
REMARK  status: ('A' for Active; 'I' for Inactive)
REMARK    1  A    between atoms: N_4  and  C_1 
REMARK    2  A    between atoms: C_2  and  O_12 
REMARK    3  A    between atoms: C_8  and  C_2 
REMARK       I    between atoms: C_10  and  N_4 
REMARK    4  A    between atoms: O_12  and  C_5 
REMARK    5  A    between atoms: S_20  and  C_6 
REMARK    6  A    between atoms: C_14  and  C_10 
REMARK    7  A    between atoms: C_16  and  C_26 
REMARK    8  A    between atoms: C_26  and  S_20 
ROOT
ATOM      1  C   UNL d   1      60.208  48.984  50.658  0.00  0.00     0.167 A 
ATOM      2  C   UNL d   1      60.824  49.047  50.119  0.00  0.00     0.222 A 
ATOM      3  C   UNL d   1      61.367  48.421  50.070  0.00  0.00     0.069 A 
ATOM      4  C   UNL d   1      60.129  48.319  51.138  0.00  0.00     0.151 A 
ATOM      5  C   UNL d   1      61.288  47.756  50.551  0.00  0.00     0.110 A 
ATOM      6  O   UNL d   1      60.665  47.711  51.085  0.00  0.00    -0.302 OA
ATOM      7  O   UNL d   1      60.903  49.706  49.643  0.00  0.00    -0.284 OA
ENDROOT
BRANCH   5   8
ATOM      8  C   UNL d   1      61.830  47.141  50.496  0.00  0.00     0.062 C 
BRANCH   8   9
ATOM      9  S   UNL d   1      61.569  46.362  50.559  0.00  0.00    -0.057 SA
BRANCH   9  10
ATOM     10  C   UNL d   1      61.767  45.456  50.745  0.00  0.00     0.166 A 
ATOM     11  S   UNL d   1      62.351  44.876  50.730  0.00  0.00    -0.006 SA
ATOM     12  C   UNL d   1      62.025  44.173  51.017  0.00  0.00     0.269 A 
ATOM     13  N   UNL d   1      61.234  44.324  51.211  0.00  0.00    -0.107 NA
ATOM     14  N   UNL d   1      61.075  45.116  51.043  0.00  0.00    -0.132 NA
BRANCH  12  15
ATOM     15  N   UNL d   1      62.184  43.382  51.185  0.00  0.00    -0.337 NA
ATOM     16  C   UNL d   1      62.343  42.590  51.352  0.00  0.00     0.330 C 
ATOM     17  O   UNL d   1      62.019  42.693  52.104  0.00  0.00    -0.251 OA
BRANCH  16  18
ATOM     18  C   UNL d   1      62.684  41.960  50.940  0.00  0.00     0.070 A 
ATOM     19  C   UNL d   1      63.062  41.673  50.266  0.00  0.00     0.006 A 
ATOM     20  C   UNL d   1      62.895  41.156  50.906  0.00  0.00     0.006 A 
ENDBRANCH  16  18
ENDBRANCH  12  15
ENDBRANCH   9  10
ENDBRANCH   8   9
ENDBRANCH   5   8
BRANCH   1  21
ATOM     21  O   UNL d   1      59.659  49.603  50.716  0.00  0.00    -0.268 OA
BRANCH  21  22
ATOM     22  C   UNL d   1      59.042  49.660  50.167  0.00  0.00     0.305 C 
ATOM     23  O   UNL d   1      59.206  49.701  49.360  0.00  0.00    -0.259 OA
BRANCH  22  24
ATOM     24  C   UNL d   1      58.249  49.674  50.432  0.00  0.00     0.118 A 
ATOM     25  C   UNL d   1      58.072  49.671  51.244  0.00  0.00     0.147 A 
ATOM     26  F   UNL d   1      58.696  49.652  51.799  0.00  0.00    -0.204 F 
ATOM     27  C   UNL d   1      57.303  49.685  51.512  0.00  0.00     0.030 A 
ATOM     28  C   UNL d   1      56.688  49.703  50.964  0.00  0.00     0.005 A 
ATOM     29  C   UNL d   1      56.838  49.707  50.144  0.00  0.00     0.030 A 
ATOM     30  C   UNL d   1      57.633  49.693  49.883  0.00  0.00     0.147 A 
ATOM     31  F   UNL d   1      57.808  49.696  49.068  0.00  0.00    -0.204 F 
ENDBRANCH  22  24
ENDBRANCH  21  22
ENDBRANCH   1  21
TORSDOF 8
ENDMDL
