MODEL 1
REMARK VINA RESULT:      85.4      0.000      0.000
REMARK  8 active torsions:
REMARK  status: ('A' for Active; 'I' for Inactive)
REMARK    1  A    between atoms: C_7  and  C_3 
REMARK    2  A    between atoms: C_9  and  C_4 
REMARK    3  A    between atoms: O_13  and  C_7 
REMARK    4  A    between atoms: O_15  and  C_12 
REMARK    5  A    between atoms: C_26  and  O_13 
REMARK    6  A    between atoms: O_25  and  C_14 
REMARK    7  A    between atoms: C_16  and  O_15 
REMARK    8  A    between atoms: C_28  and  O_25 
ROOT
ATOM      1  N   UNL d   1     -52.425  25.430  33.615  0.00  0.00    -0.254 N 
ATOM      2  C   UNL d   1     -52.890  24.780  33.412  0.00  0.00     0.182 A 
ATOM      3  C   UNL d   1     -51.266  24.600  33.626  0.00  0.00     0.097 A 
ATOM      4  C   UNL d   1     -51.613  25.343  33.723  0.00  0.00     0.075 A 
ATOM      5  N   UNL d   1     -52.541  24.040  33.316  0.00  0.00    -0.222 NA
ATOM      6  C   UNL d   1     -51.728  23.948  33.422  0.00  0.00     0.090 A 
ATOM      7  C   UNL d   1     -52.770  26.175  33.713  0.00  0.00     0.267 A 
ATOM      8  S   UNL d   1     -53.694  24.869  33.306  0.00  0.00    -0.049 SA
ATOM      9  C   UNL d   1     -53.586  26.256  33.603  0.00  0.00     0.068 A 
ATOM     10  O   UNL d   1     -52.308  26.827  33.916  0.00  0.00    -0.267 OA
ATOM     11  C   UNL d   1     -54.048  25.603  33.400  0.00  0.00     0.043 A 
ATOM     12  C   UNL d   1     -51.381  23.211  33.327  0.00  0.00     0.021 C 
ENDROOT
BRANCH   4  13
ATOM     13  C   UNL d   1     -51.151  25.995  33.926  0.00  0.00     0.019 A 
ATOM     14  C   UNL d   1     -50.981  26.145  34.716  0.00  0.00     0.028 A 
ATOM     15  C   UNL d   1     -50.520  26.797  34.919  0.00  0.00     0.123 A 
ATOM     16  C   UNL d   1     -50.227  27.303  34.325  0.00  0.00     0.126 A 
ATOM     17  C   UNL d   1     -50.401  27.147  33.529  0.00  0.00     0.027 A 
ATOM     18  C   UNL d   1     -50.864  26.493  33.331  0.00  0.00     0.004 A 
BRANCH  15  19
ATOM     19  O   UNL d   1     -50.347  26.951  35.709  0.00  0.00    -0.303 OA
BRANCH  19  20
ATOM     20  C   UNL d   1     -50.711  26.513  36.305  0.00  0.00     0.123 C 
ATOM     21  C   UNL d   1     -50.782  26.827  37.063  0.00  0.00     0.029 C 
ENDBRANCH  19  20
ENDBRANCH  15  19
BRANCH  16  22
ATOM     22  O   UNL d   1     -49.765  27.956  34.524  0.00  0.00    -0.271 OA
BRANCH  22  23
ATOM     23  C   UNL d   1     -49.156  28.197  34.028  0.00  0.00     0.300 C 
ATOM     24  O   UNL d   1     -49.332  28.597  33.328  0.00  0.00    -0.259 OA
ATOM     25  C   UNL d   1     -48.373  28.039  34.227  0.00  0.00     0.074 C 
ENDBRANCH  22  23
ENDBRANCH  16  22
ENDBRANCH   4  13
BRANCH   3  26
ATOM     26  C   UNL d   1     -50.454  24.514  33.734  0.00  0.00     0.303 C 
ATOM     27  O   UNL d   1     -49.922  25.000  33.332  0.00  0.00    -0.259 OA
BRANCH  26  28
ATOM     28  O   UNL d   1     -50.174  23.933  34.251  0.00  0.00    -0.273 OA
BRANCH  28  29
ATOM     29  C   UNL d   1     -49.458  23.547  34.090  0.00  0.00     0.103 C 
ATOM     30  C   UNL d   1     -48.949  23.338  34.703  0.00  0.00     0.027 C 
ATOM     31  C   UNL d   1     -49.254  23.370  33.311  0.00  0.00     0.027 C 
ENDBRANCH  28  29
ENDBRANCH  26  28
ENDBRANCH   3  26
TORSDOF 8
ENDMDL
