MODEL 1
REMARK VINA RESULT:      60.5      0.000      0.000
REMARK  4 active torsions:
REMARK  status: ('A' for Active; 'I' for Inactive)
REMARK    1  A    between atoms: S_6  and  C_1 
REMARK    2  A    between atoms: C_19  and  S_6 
REMARK    3  A    between atoms: C_7  and  C_19 
REMARK       I    between atoms: N_10  and  C_7 
REMARK    4  A    between atoms: C_14  and  N_10 
ROOT
ATOM      1  C   UNL d   1      59.709  49.649  51.139  0.00  0.00     0.286 C 
ATOM      2  N   UNL d   1      59.328  49.623  50.412  0.00  0.00    -0.207 NA
ATOM      3  O   UNL d   1      59.259  49.692  51.831  0.00  0.00    -0.265 OA
ENDROOT
BRANCH   1   4
ATOM      4  C   UNL d   1      60.527  49.633  51.180  0.00  0.00     0.099 C 
BRANCH   4   5
ATOM      5  S   UNL d   1      60.913  48.968  51.461  0.00  0.00    -0.062 SA
BRANCH   5   6
ATOM      6  C   UNL d   1      61.233  48.417  50.935  0.00  0.00     0.114 A 
ATOM      7  C   UNL d   1      61.181  47.613  51.096  0.00  0.00     0.042 A 
ATOM      8  C   UNL d   1      61.502  47.062  50.569  0.00  0.00     0.085 A 
ATOM      9  C   UNL d   1      60.807  47.357  51.786  0.00  0.00     0.004 A 
ATOM     10  C   UNL d   1      61.449  46.255  50.733  0.00  0.00     0.019 A 
ATOM     11  N   UNL d   1      61.874  47.315  49.882  0.00  0.00    -0.224 NA
ATOM     12  C   UNL d   1      61.075  45.999  51.422  0.00  0.00     0.002 A 
ATOM     13  C   UNL d   1      60.755  46.550  51.949  0.00  0.00     0.000 A 
ATOM     14  C   UNL d   1      61.928  48.121  49.719  0.00  0.00     0.200 A 
ATOM     15  N   UNL d   1      61.607  48.673  50.245  0.00  0.00    -0.217 NA
ENDBRANCH   5   6
ENDBRANCH   4   5
ENDBRANCH   1   4
BRANCH   2  16
ATOM     16  C   UNL d   1      58.506  49.639  50.369  0.00  0.00     0.087 A 
ATOM     17  C   UNL d   1      58.141  49.658  49.635  0.00  0.00     0.045 A 
ATOM     18  C   UNL d   1      57.316  49.675  49.589  0.00  0.00     0.121 A 
ATOM     19  O   UNL d   1      56.803  49.695  48.940  0.00  0.00    -0.299 OA
ATOM     20  C   UNL d   1      56.867  49.672  50.278  0.00  0.00     0.119 A 
ATOM     21  C   UNL d   1      56.037  49.705  49.237  0.00  0.00     0.304 A 
ATOM     22  O   UNL d   1      56.071  49.690  50.062  0.00  0.00    -0.300 OA
ATOM     23  C   UNL d   1      57.245  49.652  51.010  0.00  0.00     0.028 A 
ATOM     24  C   UNL d   1      58.058  49.636  51.058  0.00  0.00     0.021 A 
ENDBRANCH   2  16
TORSDOF 4
ENDMDL
