MODEL 1
REMARK VINA RESULT:      -5.9      0.000      0.000
REMARK  4 active torsions:
REMARK  status: ('A' for Active; 'I' for Inactive)
REMARK    1  A    between atoms: S_6  and  C_1 
REMARK    2  A    between atoms: C_7  and  S_6 
REMARK    3  A    between atoms: C_10  and  C_7 
REMARK    4  A    between atoms: C_11  and  C_10 
ROOT
ATOM      1  C   UNL d   1     -48.541  14.293  22.979  0.00  0.00     0.194 A 
ATOM      2  N   UNL d   1     -48.706  15.118  23.013  0.00  0.00    -0.220 NA
ATOM      3  N   UNL d   1     -49.232  13.891  23.187  0.00  0.00    -0.220 NA
ATOM      4  C   UNL d   1     -49.477  15.210  23.234  0.00  0.00     0.101 A 
ATOM      5  C   UNL d   1     -49.809  14.436  23.344  0.00  0.00     0.101 A 
ATOM      6  C   UNL d   1     -49.980  15.859  23.369  0.00  0.00     0.021 A 
ATOM      7  C   UNL d   1     -50.597  14.354  23.574  0.00  0.00     0.021 A 
ATOM      8  C   UNL d   1     -51.063  15.023  23.698  0.00  0.00     0.002 A 
ATOM      9  C   UNL d   1     -50.742  15.772  23.592  0.00  0.00     0.002 A 
ENDROOT
BRANCH   1  10
ATOM     10  S   UNL d   1     -47.754  14.371  22.749  0.00  0.00    -0.048 SA
BRANCH  10  11
ATOM     11  C   UNL d   1     -47.238  13.726  22.785  0.00  0.00     0.038 C 
BRANCH  11  12
ATOM     12  C   UNL d   1     -46.442  13.830  22.593  0.00  0.00     0.007 C 
BRANCH  12  13
ATOM     13  C   UNL d   1     -45.951  13.182  22.612  0.00  0.00     0.001 C 
ATOM     14  C   UNL d   1     -45.278  13.184  22.134  0.00  0.00     0.000 C 
ATOM     15  C   UNL d   1     -45.915  12.458  22.998  0.00  0.00     0.000 C 
ENDBRANCH  12  13
ENDBRANCH  11  12
ENDBRANCH  10  11
ENDBRANCH   1  10
TORSDOF 4
ENDMDL
MODEL 2
REMARK VINA RESULT:      -5.5      1.440      1.845
REMARK  4 active torsions:
REMARK  status: ('A' for Active; 'I' for Inactive)
REMARK    1  A    between atoms: S_6  and  C_1 
REMARK    2  A    between atoms: C_7  and  S_6 
REMARK    3  A    between atoms: C_10  and  C_7 
REMARK    4  A    between atoms: C_11  and  C_10 
ROOT
ATOM      1  C   UNL d   1     -48.396  12.751  23.124  0.00  0.00     0.194 A 
ATOM      2  N   UNL d   1     -48.936  13.394  23.190  0.00  0.00    -0.220 NA
ATOM      3  N   UNL d   1     -48.823  12.054  23.246  0.00  0.00    -0.220 NA
ATOM      4  C   UNL d   1     -49.668  13.091  23.347  0.00  0.00     0.101 A 
ATOM      5  C   UNL d   1     -49.596  12.245  23.383  0.00  0.00     0.101 A 
ATOM      6  C   UNL d   1     -50.425  13.412  23.473  0.00  0.00     0.021 A 
ATOM      7  C   UNL d   1     -50.260  11.781  23.537  0.00  0.00     0.021 A 
ATOM      8  C   UNL d   1     -50.995  12.138  23.656  0.00  0.00     0.002 A 
ATOM      9  C   UNL d   1     -51.064  12.955  23.622  0.00  0.00     0.002 A 
ENDROOT
BRANCH   1  10
ATOM     10  S   UNL d   1     -47.731  13.210  22.971  0.00  0.00    -0.048 SA
BRANCH  10  11
ATOM     11  C   UNL d   1     -47.000  12.857  22.817  0.00  0.00     0.038 C 
BRANCH  11  12
ATOM     12  C   UNL d   1     -46.327  13.328  22.742  0.00  0.00     0.007 C 
BRANCH  12  13
ATOM     13  C   UNL d   1     -45.625  12.973  22.535  0.00  0.00     0.001 C 
ATOM     14  C   UNL d   1     -45.161  13.329  21.953  0.00  0.00     0.000 C 
ATOM     15  C   UNL d   1     -45.196  12.306  22.748  0.00  0.00     0.000 C 
ENDBRANCH  12  13
ENDBRANCH  11  12
ENDBRANCH  10  11
ENDBRANCH   1  10
TORSDOF 4
ENDMDL
MODEL 3
REMARK VINA RESULT:      -5.1      1.688      4.289
REMARK  4 active torsions:
REMARK  status: ('A' for Active; 'I' for Inactive)
REMARK    1  A    between atoms: S_6  and  C_1 
REMARK    2  A    between atoms: C_7  and  S_6 
REMARK    3  A    between atoms: C_10  and  C_7 
REMARK    4  A    between atoms: C_11  and  C_10 
ROOT
ATOM      1  C   UNL d   1     -47.708  12.909  23.169  0.00  0.00     0.194 A 
ATOM      2  N   UNL d   1     -47.338  13.500  22.697  0.00  0.00    -0.220 NA
ATOM      3  N   UNL d   1     -47.136  12.340  23.350  0.00  0.00    -0.220 NA
ATOM      4  C   UNL d   1     -46.564  13.292  22.597  0.00  0.00     0.101 A 
ATOM      5  C   UNL d   1     -46.437  12.560  23.009  0.00  0.00     0.101 A 
ATOM      6  C   UNL d   1     -45.910  13.622  22.202  0.00  0.00     0.021 A 
ATOM      7  C   UNL d   1     -45.691  12.208  23.005  0.00  0.00     0.021 A 
ATOM      8  C   UNL d   1     -45.067  12.567  22.600  0.00  0.00     0.002 A 
ATOM      9  C   UNL d   1     -45.190  13.275  22.202  0.00  0.00     0.002 A 
ENDROOT
BRANCH   1  10
ATOM     10  S   UNL d   1     -48.454  13.256  23.176  0.00  0.00    -0.048 SA
BRANCH  10  11
ATOM     11  C   UNL d   1     -49.136  12.792  23.225  0.00  0.00     0.038 C 
BRANCH  11  12
ATOM     12  C   UNL d   1     -49.871  13.156  23.310  0.00  0.00     0.007 C 
BRANCH  12  13
ATOM     13  C   UNL d   1     -50.540  12.694  23.267  0.00  0.00     0.001 C 
ATOM     14  C   UNL d   1     -51.061  12.814  22.638  0.00  0.00     0.000 C 
ATOM     15  C   UNL d   1     -50.889  12.088  23.698  0.00  0.00     0.000 C 
ENDBRANCH  12  13
ENDBRANCH  11  12
ENDBRANCH  10  11
ENDBRANCH   1  10
TORSDOF 4
ENDMDL
MODEL 4
REMARK VINA RESULT:      -4.7      8.301      9.819
REMARK  4 active torsions:
REMARK  status: ('A' for Active; 'I' for Inactive)
REMARK    1  A    between atoms: S_6  and  C_1 
REMARK    2  A    between atoms: C_7  and  S_6 
REMARK    3  A    between atoms: C_10  and  C_7 
REMARK    4  A    between atoms: C_11  and  C_10 
ROOT
ATOM      1  C   UNL d   1     -40.115  14.462  18.484  0.00  0.00     0.194 A 
ATOM      2  N   UNL d   1     -40.235  15.272  18.678  0.00  0.00    -0.220 NA
ATOM      3  N   UNL d   1     -40.350  14.012  19.136  0.00  0.00    -0.220 NA
ATOM      4  C   UNL d   1     -40.535  15.309  19.426  0.00  0.00     0.101 A 
ATOM      5  C   UNL d   1     -40.608  14.513  19.716  0.00  0.00     0.101 A 
ATOM      6  C   UNL d   1     -40.772  15.921  19.939  0.00  0.00     0.021 A 
ATOM      7  C   UNL d   1     -40.902  14.376  20.473  0.00  0.00     0.021 A 
ATOM      8  C   UNL d   1     -41.126  15.010  20.951  0.00  0.00     0.002 A 
ATOM      9  C   UNL d   1     -41.056  15.778  20.672  0.00  0.00     0.002 A 
ENDROOT
BRANCH   1  10
ATOM     10  S   UNL d   1     -39.820  14.595  17.727  0.00  0.00    -0.048 SA
BRANCH  10  11
ATOM     11  C   UNL d   1     -39.294  14.062  17.378  0.00  0.00     0.038 C 
BRANCH  11  12
ATOM     12  C   UNL d   1     -39.007  14.210  16.619  0.00  0.00     0.007 C 
BRANCH  12  13
ATOM     13  C   UNL d   1     -38.409  13.739  16.331  0.00  0.00     0.001 C 
ATOM     14  C   UNL d   1     -38.146  13.866  15.560  0.00  0.00     0.000 C 
ATOM     15  C   UNL d   1     -37.943  13.118  16.598  0.00  0.00     0.000 C 
ENDBRANCH  12  13
ENDBRANCH  11  12
ENDBRANCH  10  11
ENDBRANCH   1  10
TORSDOF 4
ENDMDL
MODEL 5
REMARK VINA RESULT:      -4.7      8.451     10.754
REMARK  4 active torsions:
REMARK  status: ('A' for Active; 'I' for Inactive)
REMARK    1  A    between atoms: S_6  and  C_1 
REMARK    2  A    between atoms: C_7  and  S_6 
REMARK    3  A    between atoms: C_10  and  C_7 
REMARK    4  A    between atoms: C_11  and  C_10 
ROOT
ATOM      1  C   UNL d   1     -39.696  14.133  18.197  0.00  0.00     0.194 A 
ATOM      2  N   UNL d   1     -39.542  14.591  17.507  0.00  0.00    -0.220 NA
ATOM      3  N   UNL d   1     -39.267  13.430  18.129  0.00  0.00    -0.220 NA
ATOM      4  C   UNL d   1     -39.034  14.175  17.038  0.00  0.00     0.101 A 
ATOM      5  C   UNL d   1     -38.860  13.442  17.430  0.00  0.00     0.101 A 
ATOM      6  C   UNL d   1     -38.670  14.305  16.301  0.00  0.00     0.021 A 
ATOM      7  C   UNL d   1     -38.351  12.897  17.079  0.00  0.00     0.021 A 
ATOM      8  C   UNL d   1     -38.010  13.062  16.347  0.00  0.00     0.002 A 
ATOM      9  C   UNL d   1     -38.177  13.771  15.967  0.00  0.00     0.002 A 
ENDROOT
BRANCH   1  10
ATOM     10  S   UNL d   1     -40.205  14.675  18.550  0.00  0.00    -0.048 SA
BRANCH  10  11
ATOM     11  C   UNL d   1     -40.379  14.626  19.357  0.00  0.00     0.038 C 
BRANCH  11  12
ATOM     12  C   UNL d   1     -40.823  15.223  19.714  0.00  0.00     0.007 C 
BRANCH  12  13
ATOM     13  C   UNL d   1     -40.984  15.163  20.509  0.00  0.00     0.001 C 
ATOM     14  C   UNL d   1     -41.070  15.858  20.947  0.00  0.00     0.000 C 
ATOM     15  C   UNL d   1     -41.099  14.567  21.063  0.00  0.00     0.000 C 
ENDBRANCH  12  13
ENDBRANCH  11  12
ENDBRANCH  10  11
ENDBRANCH   1  10
TORSDOF 4
ENDMDL
MODEL 6
REMARK VINA RESULT:      -4.5      9.200      9.524
REMARK  4 active torsions:
REMARK  status: ('A' for Active; 'I' for Inactive)
REMARK    1  A    between atoms: S_6  and  C_1 
REMARK    2  A    between atoms: C_7  and  S_6 
REMARK    3  A    between atoms: C_10  and  C_7 
REMARK    4  A    between atoms: C_11  and  C_10 
ROOT
ATOM      1  C   UNL d   1     -40.051  14.532  19.507  0.00  0.00     0.194 A 
ATOM      2  N   UNL d   1     -40.413  15.280  19.368  0.00  0.00    -0.220 NA
ATOM      3  N   UNL d   1     -39.986  14.148  18.778  0.00  0.00    -0.220 NA
ATOM      4  C   UNL d   1     -40.561  15.343  18.577  0.00  0.00     0.101 A 
ATOM      5  C   UNL d   1     -40.292  14.629  18.204  0.00  0.00     0.101 A 
ATOM      6  C   UNL d   1     -40.900  15.922  18.084  0.00  0.00     0.021 A 
ATOM      7  C   UNL d   1     -40.371  14.533  17.389  0.00  0.00     0.021 A 
ATOM      8  C   UNL d   1     -40.713  15.131  16.935  0.00  0.00     0.002 A 
ATOM      9  C   UNL d   1     -40.973  15.822  17.294  0.00  0.00     0.002 A 
ENDROOT
BRANCH   1  10
ATOM     10  S   UNL d   1     -39.969  14.624  20.321  0.00  0.00    -0.048 SA
BRANCH  10  11
ATOM     11  C   UNL d   1     -39.488  14.112  20.757  0.00  0.00     0.038 C 
BRANCH  11  12
ATOM     12  C   UNL d   1     -39.517  14.131  21.581  0.00  0.00     0.007 C 
BRANCH  12  13
ATOM     13  C   UNL d   1     -38.954  13.718  21.999  0.00  0.00     0.001 C 
ATOM     14  C   UNL d   1     -39.037  13.657  22.817  0.00  0.00     0.000 C 
ATOM     15  C   UNL d   1     -38.263  13.303  21.840  0.00  0.00     0.000 C 
ENDBRANCH  12  13
ENDBRANCH  11  12
ENDBRANCH  10  11
ENDBRANCH   1  10
TORSDOF 4
ENDMDL
MODEL 7
REMARK VINA RESULT:      -4.3      9.219      9.621
REMARK  4 active torsions:
REMARK  status: ('A' for Active; 'I' for Inactive)
REMARK    1  A    between atoms: S_6  and  C_1 
REMARK    2  A    between atoms: C_7  and  S_6 
REMARK    3  A    between atoms: C_10  and  C_7 
REMARK    4  A    between atoms: C_11  and  C_10 
ROOT
ATOM      1  C   UNL d   1     -40.014  15.088  20.062  0.00  0.00     0.194 A 
ATOM      2  N   UNL d   1     -39.829  14.407  20.523  0.00  0.00    -0.220 NA
ATOM      3  N   UNL d   1     -39.865  15.753  20.529  0.00  0.00    -0.220 NA
ATOM      4  C   UNL d   1     -39.575  14.657  21.247  0.00  0.00     0.101 A 
ATOM      5  C   UNL d   1     -39.598  15.506  21.251  0.00  0.00     0.101 A 
ATOM      6  C   UNL d   1     -39.315  14.282  21.943  0.00  0.00     0.021 A 
ATOM      7  C   UNL d   1     -39.367  15.922  21.925  0.00  0.00     0.021 A 
ATOM      8  C   UNL d   1     -39.114  15.513  22.596  0.00  0.00     0.002 A 
ATOM      9  C   UNL d   1     -39.092  14.692  22.592  0.00  0.00     0.002 A 
ENDROOT
BRANCH   1  10
ATOM     10  S   UNL d   1     -40.245  14.677  19.387  0.00  0.00    -0.048 SA
BRANCH  10  11
ATOM     11  C   UNL d   1     -40.375  15.074  18.674  0.00  0.00     0.038 C 
BRANCH  11  12
ATOM     12  C   UNL d   1     -40.556  14.643  17.995  0.00  0.00     0.007 C 
BRANCH  12  13
ATOM     13  C   UNL d   1     -40.629  15.042  17.290  0.00  0.00     0.001 C 
ATOM     14  C   UNL d   1     -40.050  14.931  16.713  0.00  0.00     0.000 C 
ATOM     15  C   UNL d   1     -41.152  15.573  16.943  0.00  0.00     0.000 C 
ENDBRANCH  12  13
ENDBRANCH  11  12
ENDBRANCH  10  11
ENDBRANCH   1  10
TORSDOF 4
ENDMDL
MODEL 8
REMARK VINA RESULT:      -3.8      2.031      2.698
REMARK  4 active torsions:
REMARK  status: ('A' for Active; 'I' for Inactive)
REMARK    1  A    between atoms: S_6  and  C_1 
REMARK    2  A    between atoms: C_7  and  S_6 
REMARK    3  A    between atoms: C_10  and  C_7 
REMARK    4  A    between atoms: C_11  and  C_10 
ROOT
ATOM      1  C   UNL d   1     -47.480  12.074  22.792  0.00  0.00     0.194 A 
ATOM      2  N   UNL d   1     -47.665  12.857  23.041  0.00  0.00    -0.220 NA
ATOM      3  N   UNL d   1     -47.995  11.880  22.176  0.00  0.00    -0.220 NA
ATOM      4  C   UNL d   1     -48.275  13.127  22.586  0.00  0.00     0.101 A 
ATOM      5  C   UNL d   1     -48.484  12.510  22.040  0.00  0.00     0.101 A 
ATOM      6  C   UNL d   1     -48.712  13.833  22.544  0.00  0.00     0.021 A 
ATOM      7  C   UNL d   1     -49.095  12.627  21.500  0.00  0.00     0.021 A 
ATOM      8  C   UNL d   1     -49.506  13.343  21.490  0.00  0.00     0.002 A 
ATOM      9  C   UNL d   1     -49.304  13.939  22.017  0.00  0.00     0.002 A 
ENDROOT
BRANCH   1  10
ATOM     10  S   UNL d   1     -46.868  11.953  23.330  0.00  0.00    -0.048 SA
BRANCH  10  11
ATOM     11  C   UNL d   1     -46.215  11.487  23.129  0.00  0.00     0.038 C 
BRANCH  11  12
ATOM     12  C   UNL d   1     -45.618  11.362  23.684  0.00  0.00     0.007 C 
BRANCH  12  13
ATOM     13  C   UNL d   1     -45.079  10.768  23.548  0.00  0.00     0.001 C 
ATOM     14  C   UNL d   1     -44.377  10.955  23.159  0.00  0.00     0.000 C 
ATOM     15  C   UNL d   1     -45.014   9.962  23.694  0.00  0.00     0.000 C 
ENDBRANCH  12  13
ENDBRANCH  11  12
ENDBRANCH  10  11
ENDBRANCH   1  10
TORSDOF 4
ENDMDL
