MODEL 1
REMARK VINA RESULT:      -1.1      0.000      0.000
REMARK  5 active torsions:
REMARK  status: ('A' for Active; 'I' for Inactive)
REMARK       I    between atoms: C_8  and  N_1 
REMARK    1  A    between atoms: C_10  and  C_3 
REMARK    2  A    between atoms: C_4  and  S_14 
REMARK    3  A    between atoms: C_15  and  C_6 
REMARK    4  A    between atoms: C_16  and  C_8 
REMARK    5  A    between atoms: S_14  and  C_16 
ROOT
ATOM      1  N   UNL d   1      32.874  21.675 -22.334  0.00  0.00    -0.195 N 
ATOM      2  N   UNL d   1      32.883  21.862 -23.116  0.00  0.00    -0.162 NA
ATOM      3  C   UNL d   1      32.693  22.666 -23.198  0.00  0.00     0.109 A 
ATOM      4  C   UNL d   1      32.677  22.363 -21.908  0.00  0.00     0.088 A 
ATOM      5  C   UNL d   1      32.571  22.953 -22.453  0.00  0.00     0.041 A 
ATOM      6  C   UNL d   1      33.012  20.990 -21.927  0.00  0.00     0.275 C 
ATOM      7  O   UNL d   1      32.960  20.965 -21.095  0.00  0.00    -0.266 OA
ENDROOT
BRANCH   4   8
ATOM      8  C   UNL d   1      32.597  22.459 -21.106  0.00  0.00     0.018 A 
ATOM      9  C   UNL d   1      33.241  22.695 -20.652  0.00  0.00     0.004 A 
ATOM     10  C   UNL d   1      33.151  22.792 -19.828  0.00  0.00     0.030 A 
ATOM     11  C   UNL d   1      32.426  22.654 -19.472  0.00  0.00     0.140 A 
ATOM     12  C   UNL d   1      31.782  22.418 -19.930  0.00  0.00     0.030 A 
ATOM     13  F   UNL d   1      32.319  22.746 -18.652  0.00  0.00    -0.204 F 
ATOM     14  C   UNL d   1      31.862  22.319 -20.751  0.00  0.00     0.004 A 
ENDBRANCH   4   8
BRANCH   6  15
ATOM     15  C   UNL d   1      33.211  20.292 -22.340  0.00  0.00     0.128 C 
BRANCH  15  16
ATOM     16  S   UNL d   1      32.739  19.612 -22.266  0.00  0.00    -0.069 SA
BRANCH  16  17
ATOM     17  C   UNL d   1      32.844  18.968 -22.783  0.00  0.00     0.140 A 
ATOM     18  N   UNL d   1      32.812  19.017 -23.601  0.00  0.00    -0.232 NA
ATOM     19  C   UNL d   1      32.944  18.260 -23.900  0.00  0.00     0.088 A 
ATOM     20  C   UNL d   1      32.975  17.975 -24.679  0.00  0.00     0.020 A 
ATOM     21  C   UNL d   1      33.057  17.749 -23.271  0.00  0.00     0.049 A 
ATOM     22  C   UNL d   1      33.120  17.174 -24.821  0.00  0.00     0.002 A 
ATOM     23  C   UNL d   1      33.234  16.660 -24.173  0.00  0.00     0.001 A 
ATOM     24  C   UNL d   1      33.201  16.954 -23.405  0.00  0.00     0.008 A 
ATOM     25  S   UNL d   1      32.996  18.186 -22.569  0.00  0.00    -0.060 SA
ENDBRANCH  16  17
ENDBRANCH  15  16
ENDBRANCH   6  15
BRANCH   3  26
ATOM     26  C   UNL d   1      32.646  23.068 -23.917  0.00  0.00     0.049 A 
ATOM     27  S   UNL d   1      33.182  23.340 -24.466  0.00  0.00    -0.085 SA
ATOM     28  C   UNL d   1      32.756  23.702 -25.071  0.00  0.00     0.035 A 
ATOM     29  C   UNL d   1      31.967  23.657 -24.905  0.00  0.00     0.007 A 
ATOM     30  C   UNL d   1      31.884  23.259 -24.180  0.00  0.00     0.009 A 
ENDBRANCH   3  26
TORSDOF 5
ENDMDL
