MODEL 1
REMARK VINA RESULT:      47.3      0.000      0.000
REMARK  4 active torsions:
REMARK  status: ('A' for Active; 'I' for Inactive)
REMARK    1  A    between atoms: C_5  and  N_1 
REMARK    2  A    between atoms: C_9  and  C_3 
REMARK    3  A    between atoms: C_7  and  C_5 
REMARK    4  A    between atoms: O_10  and  C_8 
ROOT
ATOM      1  N   UNL d   1      59.316  49.690  50.524  0.00  0.00    -0.289 N 
ATOM      2  N   UNL d   1      58.692  49.708  49.326  0.00  0.00    -0.227 NA
ATOM      3  C   UNL d   1      59.442  49.701  49.699  0.00  0.00     0.148 A 
ATOM      4  C   UNL d   1      58.492  49.690  50.664  0.00  0.00     0.083 A 
ATOM      5  C   UNL d   1      58.105  49.701  49.923  0.00  0.00     0.099 A 
ATOM      6  C   UNL d   1      58.033  49.682  51.359  0.00  0.00     0.019 A 
ATOM      7  C   UNL d   1      57.281  49.704  49.882  0.00  0.00     0.021 A 
ATOM      8  C   UNL d   1      57.206  49.685  51.319  0.00  0.00     0.002 A 
ATOM      9  C   UNL d   1      56.831  49.696  50.582  0.00  0.00     0.002 A 
ENDROOT
BRANCH   1  10
ATOM     10  C   UNL d   1      59.898  49.681  51.110  0.00  0.00     0.083 C 
BRANCH  10  11
ATOM     11  C   UNL d   1      60.295  48.992  51.291  0.00  0.00     0.040 A 
ATOM     12  C   UNL d   1      60.896  49.004  51.844  0.00  0.00     0.096 A 
ATOM     13  C   UNL d   1      61.298  48.308  52.028  0.00  0.00     0.024 A 
ATOM     14  C   UNL d   1      61.094  47.600  51.654  0.00  0.00     0.002 A 
ATOM     15  C   UNL d   1      60.488  47.591  51.096  0.00  0.00     0.000 A 
ATOM     16  C   UNL d   1      60.089  48.289  50.915  0.00  0.00     0.004 A 
BRANCH  12  17
ATOM     17  O   UNL d   1      61.099  49.704  52.215  0.00  0.00    -0.328 OA
ATOM     18  C   UNL d   1      61.657  49.708  52.826  0.00  0.00     0.181 C 
ENDBRANCH  12  17
ENDBRANCH  10  11
ENDBRANCH   1  10
BRANCH   3  19
ATOM     19  C   UNL d   1      60.171  49.704  49.319  0.00  0.00     0.037 C 
ATOM     20  C   UNL d   1      60.397  49.058  48.861  0.00  0.00     0.003 C 
ENDBRANCH   3  19
TORSDOF 4
ENDMDL
