MODEL 1
REMARK VINA RESULT:      58.8      0.000      0.000
REMARK  4 active torsions:
REMARK  status: ('A' for Active; 'I' for Inactive)
REMARK    1  A    between atoms: C_15  and  C_2 
REMARK    2  A    between atoms: C_6  and  S_16 
REMARK    3  A    between atoms: N_8  and  C_11 
REMARK    4  A    between atoms: S_16  and  C_15 
ROOT
ATOM      1  C   UNL d   1     -50.207  26.011  33.498  0.00  0.00     0.141 A 
ATOM      2  N   UNL d   1     -51.014  26.086  33.501  0.00  0.00    -0.232 NA
ATOM      3  S   UNL d   1     -50.016  25.209  33.433  0.00  0.00    -0.060 SA
ATOM      4  C   UNL d   1     -51.346  25.325  33.438  0.00  0.00     0.090 A 
ATOM      5  C   UNL d   1     -52.299  24.249  33.348  0.00  0.00     0.128 A 
ATOM      6  C   UNL d   1     -50.740  24.781  33.396  0.00  0.00     0.049 A 
ATOM      7  C   UNL d   1     -52.135  25.072  33.415  0.00  0.00     0.043 A 
ATOM      8  C   UNL d   1     -51.692  23.713  33.306  0.00  0.00     0.024 A 
ATOM      9  C   UNL d   1     -50.909  23.972  33.329  0.00  0.00     0.010 A 
ENDROOT
BRANCH   1  10
ATOM     10  S   UNL d   1     -49.669  26.642  33.551  0.00  0.00    -0.059 SA
BRANCH  10  11
ATOM     11  C   UNL d   1     -49.925  27.379  33.798  0.00  0.00     0.059 C 
BRANCH  11  12
ATOM     12  C   UNL d   1     -49.395  27.899  34.176  0.00  0.00     0.112 A 
ATOM     13  C   UNL d   1     -49.291  28.706  33.967  0.00  0.00     0.119 A 
ATOM     14  N   UNL d   1     -48.714  28.995  34.490  0.00  0.00    -0.284 N 
ATOM     15 BR   UNL d   1     -49.688  29.111  33.365  0.00  0.00    -0.028 Br
ATOM     16  C   UNL d   1     -48.480  28.391  34.992  0.00  0.00     0.148 A 
ATOM     17  C   UNL d   1     -48.385  29.742  34.555  0.00  0.00     0.082 A 
ATOM     18  N   UNL d   1     -48.907  27.714  34.791  0.00  0.00    -0.226 NA
ATOM     19  C   UNL d   1     -47.912  28.521  35.570  0.00  0.00     0.037 A 
ATOM     20  C   UNL d   1     -47.581  29.273  35.634  0.00  0.00     0.005 A 
ATOM     21  C   UNL d   1     -47.815  29.877  35.133  0.00  0.00     0.019 A 
ENDBRANCH  11  12
ENDBRANCH  10  11
ENDBRANCH   1  10
BRANCH   5  22
ATOM     22  N   UNL d   1     -53.113  23.996  33.325  0.00  0.00    -0.114 N 
ATOM     23  O   UNL d   1     -53.300  23.191  33.321  0.00  0.00    -0.532 OA
ATOM     24  O   UNL d   1     -53.715  24.561  33.306  0.00  0.00    -0.532 OA
ENDBRANCH   5  22
TORSDOF 4
ENDMDL
MODEL 2
REMARK VINA RESULT:      60.7      1.294      1.838
REMARK  4 active torsions:
REMARK  status: ('A' for Active; 'I' for Inactive)
REMARK    1  A    between atoms: C_15  and  C_2 
REMARK    2  A    between atoms: C_6  and  S_16 
REMARK    3  A    between atoms: N_8  and  C_11 
REMARK    4  A    between atoms: S_16  and  C_15 
ROOT
ATOM      1  C   UNL d   1     -49.845  27.173  33.876  0.00  0.00     0.141 A 
ATOM      2  N   UNL d   1     -49.610  26.397  33.876  0.00  0.00    -0.232 NA
ATOM      3  S   UNL d   1     -50.651  27.205  33.694  0.00  0.00    -0.060 SA
ATOM      4  C   UNL d   1     -50.271  25.925  33.693  0.00  0.00     0.090 A 
ATOM      5  C   UNL d   1     -51.107  24.784  33.423  0.00  0.00     0.128 A 
ATOM      6  C   UNL d   1     -50.914  26.413  33.580  0.00  0.00     0.049 A 
ATOM      7  C   UNL d   1     -50.353  25.104  33.617  0.00  0.00     0.043 A 
ATOM      8  C   UNL d   1     -51.743  25.275  33.311  0.00  0.00     0.024 A 
ATOM      9  C   UNL d   1     -51.654  26.092  33.388  0.00  0.00     0.010 A 
ENDROOT
BRANCH   1  10
ATOM     10  S   UNL d   1     -49.351  27.822  34.034  0.00  0.00    -0.059 SA
BRANCH  10  11
ATOM     11  C   UNL d   1     -49.185  28.031  34.808  0.00  0.00     0.059 C 
BRANCH  11  12
ATOM     12  C   UNL d   1     -48.665  28.664  34.966  0.00  0.00     0.112 A 
ATOM     13  C   UNL d   1     -48.365  28.851  35.728  0.00  0.00     0.119 A 
ATOM     14  N   UNL d   1     -47.878  29.514  35.613  0.00  0.00    -0.284 N 
ATOM     15 BR   UNL d   1     -48.529  28.450  36.432  0.00  0.00    -0.028 Br
ATOM     16  C   UNL d   1     -47.884  29.718  34.819  0.00  0.00     0.148 A 
ATOM     17  C   UNL d   1     -47.435  29.946  36.150  0.00  0.00     0.082 A 
ATOM     18  N   UNL d   1     -48.375  29.185  34.424  0.00  0.00    -0.226 NA
ATOM     19  C   UNL d   1     -47.448  30.357  34.545  0.00  0.00     0.037 A 
ATOM     20  C   UNL d   1     -47.003  30.791  35.088  0.00  0.00     0.005 A 
ATOM     21  C   UNL d   1     -46.997  30.587  35.881  0.00  0.00     0.019 A 
ENDBRANCH  11  12
ENDBRANCH  10  11
ENDBRANCH   1  10
BRANCH   5  22
ATOM     22  N   UNL d   1     -51.184  23.939  33.347  0.00  0.00    -0.114 N 
ATOM     23  O   UNL d   1     -50.512  23.459  33.308  0.00  0.00    -0.532 OA
ATOM     24  O   UNL d   1     -51.937  23.600  33.312  0.00  0.00    -0.532 OA
ENDBRANCH   5  22
TORSDOF 4
ENDMDL
