MODEL 1
REMARK VINA RESULT:      10.9      0.000      0.000
REMARK  4 active torsions:
REMARK  status: ('A' for Active; 'I' for Inactive)
REMARK    1  A    between atoms: C_10  and  C_3 
REMARK    2  A    between atoms: C_12  and  C_6 
REMARK    3  A    between atoms: O_15  and  C_10 
REMARK    4  A    between atoms: C_22  and  O_15 
ROOT
ATOM      1  C   UNL d   1     -41.734-122.379 -52.797  0.00  0.00     0.057 A 
ATOM      2  C   UNL d   1     -41.758-121.823 -52.188  0.00  0.00     0.085 A 
ATOM      3  C   UNL d   1     -42.112-121.371 -53.731  0.00  0.00     0.081 A 
ATOM      4  N   UNL d   1     -41.957-121.044 -52.341  0.00  0.00    -0.245 NA
ATOM      5  C   UNL d   1     -41.519-123.107 -52.474  0.00  0.00     0.197 A 
ATOM      6  C   UNL d   1     -41.911-122.150 -53.565  0.00  0.00     0.013 A 
ATOM      7  C   UNL d   1     -42.136-120.813 -53.119  0.00  0.00     0.086 A 
ATOM      8  C   UNL d   1     -41.556-122.209 -51.483  0.00  0.00     0.021 A 
ATOM      9  C   UNL d   1     -41.409-123.000 -51.659  0.00  0.00     0.041 A 
ATOM     10  O   UNL d   1     -41.429-123.817 -52.888  0.00  0.00    -0.286 OA
ATOM     11  C   UNL d   1     -42.337-120.030 -53.281  0.00  0.00     0.021 C 
ATOM     12  C   UNL d   1     -41.487-121.942 -50.697  0.00  0.00     0.002 A 
ATOM     13  C   UNL d   1     -41.193-123.530 -51.059  0.00  0.00     0.003 A 
ATOM     14  C   UNL d   1     -41.125-123.257 -50.279  0.00  0.00     0.000 A 
ATOM     15  C   UNL d   1     -41.272-122.469 -50.106  0.00  0.00     0.000 A 
ENDROOT
BRANCH   6  16
ATOM     16  C   UNL d   1     -41.888-122.706 -54.175  0.00  0.00     0.020 A 
ATOM     17  C   UNL d   1     -41.168-122.911 -54.506  0.00  0.00     0.099 A 
ATOM     18  N   UNL d   1     -41.140-123.467 -55.115  0.00  0.00    -0.242 NA
ATOM     19  C   UNL d   1     -41.840-123.817 -55.393  0.00  0.00     0.099 A 
ATOM     20  C   UNL d   1     -42.569-123.607 -55.055  0.00  0.00     0.021 A 
ATOM     21  C   UNL d   1     -42.593-123.051 -54.446  0.00  0.00     0.003 A 
ENDBRANCH   6  16
BRANCH   3  22
ATOM     22  C   UNL d   1     -42.290-121.139 -54.502  0.00  0.00     0.302 C 
ATOM     23  O   UNL d   1     -43.077-121.109 -54.747  0.00  0.00    -0.259 OA
BRANCH  22  24
ATOM     24  O   UNL d   1     -41.687-120.939 -55.025  0.00  0.00    -0.271 OA
BRANCH  24  25
ATOM     25  C   UNL d   1     -41.863-120.524 -55.714  0.00  0.00     0.126 C 
ATOM     26  C   UNL d   1     -41.385-120.612 -56.379  0.00  0.00     0.029 C 
ENDBRANCH  24  25
ENDBRANCH  22  24
ENDBRANCH   3  22
TORSDOF 4
ENDMDL
MODEL 2
REMARK VINA RESULT:      11.3      1.451      4.189
REMARK  4 active torsions:
REMARK  status: ('A' for Active; 'I' for Inactive)
REMARK    1  A    between atoms: C_10  and  C_3 
REMARK    2  A    between atoms: C_12  and  C_6 
REMARK    3  A    between atoms: O_15  and  C_10 
REMARK    4  A    between atoms: C_22  and  O_15 
ROOT
ATOM      1  C   UNL d   1     -41.535-122.231 -52.675  0.00  0.00     0.057 A 
ATOM      2  C   UNL d   1     -41.690-123.021 -52.856  0.00  0.00     0.085 A 
ATOM      3  C   UNL d   1     -41.798-122.495 -51.300  0.00  0.00     0.081 A 
ATOM      4  N   UNL d   1     -41.897-123.551 -52.268  0.00  0.00    -0.245 NA
ATOM      5  C   UNL d   1     -41.343-121.839 -53.374  0.00  0.00     0.197 A 
ATOM      6  C   UNL d   1     -41.590-121.972 -51.897  0.00  0.00     0.013 A 
ATOM      7  C   UNL d   1     -41.953-123.289 -51.481  0.00  0.00     0.086 A 
ATOM      8  C   UNL d   1     -41.592-123.118 -53.672  0.00  0.00     0.021 A 
ATOM      9  C   UNL d   1     -41.378-122.391 -53.993  0.00  0.00     0.041 A 
ATOM     10  O   UNL d   1     -41.148-121.038 -53.448  0.00  0.00    -0.286 OA
ATOM     11  C   UNL d   1     -42.161-123.816 -50.884  0.00  0.00     0.021 C 
ATOM     12  C   UNL d   1     -41.671-123.781 -54.172  0.00  0.00     0.002 A 
ATOM     13  C   UNL d   1     -41.241-122.314 -54.806  0.00  0.00     0.003 A 
ATOM     14  C   UNL d   1     -41.321-122.978 -55.298  0.00  0.00     0.000 A 
ATOM     15  C   UNL d   1     -41.534-123.702 -54.977  0.00  0.00     0.000 A 
ENDROOT
BRANCH   6  16
ATOM     16  C   UNL d   1     -41.436-121.182 -51.717  0.00  0.00     0.020 A 
ATOM     17  C   UNL d   1     -41.438-120.623 -52.314  0.00  0.00     0.099 A 
ATOM     18  N   UNL d   1     -41.284-119.832 -52.137  0.00  0.00    -0.242 NA
ATOM     19  C   UNL d   1     -41.127-119.602 -51.355  0.00  0.00     0.099 A 
ATOM     20  C   UNL d   1     -41.124-120.172 -50.750  0.00  0.00     0.021 A 
ATOM     21  C   UNL d   1     -41.279-120.962 -50.931  0.00  0.00     0.003 A 
ENDBRANCH   6  16
BRANCH   3  22
ATOM     22  C   UNL d   1     -41.853-122.237 -50.518  0.00  0.00     0.302 C 
ATOM     23  O   UNL d   1     -42.443-121.700 -50.307  0.00  0.00    -0.259 OA
BRANCH  22  24
ATOM     24  O   UNL d   1     -41.324-122.513 -49.952  0.00  0.00    -0.271 OA
BRANCH  24  25
ATOM     25  C   UNL d   1     -41.575-122.620 -49.174  0.00  0.00     0.126 C 
ATOM     26  C   UNL d   1     -41.230-123.205 -48.709  0.00  0.00     0.029 C 
ENDBRANCH  24  25
ENDBRANCH  22  24
ENDBRANCH   3  22
TORSDOF 4
ENDMDL
MODEL 3
REMARK VINA RESULT:      12.5      1.081      1.441
REMARK  4 active torsions:
REMARK  status: ('A' for Active; 'I' for Inactive)
REMARK    1  A    between atoms: C_10  and  C_3 
REMARK    2  A    between atoms: C_12  and  C_6 
REMARK    3  A    between atoms: O_15  and  C_10 
REMARK    4  A    between atoms: C_22  and  O_15 
ROOT
ATOM      1  C   UNL d   1     -41.638-122.385 -51.696  0.00  0.00     0.057 A 
ATOM      2  C   UNL d   1     -41.473-121.860 -51.081  0.00  0.00     0.085 A 
ATOM      3  C   UNL d   1     -41.472-121.331 -52.640  0.00  0.00     0.081 A 
ATOM      4  N   UNL d   1     -41.307-121.074 -51.237  0.00  0.00    -0.245 NA
ATOM      5  C   UNL d   1     -41.781-123.128 -51.369  0.00  0.00     0.197 A 
ATOM      6  C   UNL d   1     -41.637-122.117 -52.472  0.00  0.00     0.013 A 
ATOM      7  C   UNL d   1     -41.306-120.804 -52.022  0.00  0.00     0.086 A 
ATOM      8  C   UNL d   1     -41.514-122.282 -50.369  0.00  0.00     0.021 A 
ATOM      9  C   UNL d   1     -41.704-123.063 -50.546  0.00  0.00     0.041 A 
ATOM     10  O   UNL d   1     -41.969-123.817 -51.787  0.00  0.00    -0.286 OA
ATOM     11  C   UNL d   1     -41.140-120.014 -52.187  0.00  0.00     0.021 C 
ATOM     12  C   UNL d   1     -41.402-122.054 -49.575  0.00  0.00     0.002 A 
ATOM     13  C   UNL d   1     -41.785-123.623 -49.940  0.00  0.00     0.003 A 
ATOM     14  C   UNL d   1     -41.672-123.390 -49.152  0.00  0.00     0.000 A 
ATOM     15  C   UNL d   1     -41.483-122.611 -48.978  0.00  0.00     0.000 A 
ENDROOT
BRANCH   6  16
ATOM     16  C   UNL d   1     -41.802-122.642 -53.087  0.00  0.00     0.020 A 
ATOM     17  C   UNL d   1     -42.563-122.686 -53.387  0.00  0.00     0.099 A 
ATOM     18  N   UNL d   1     -42.732-123.209 -54.002  0.00  0.00    -0.242 NA
ATOM     19  C   UNL d   1     -42.133-123.691 -54.317  0.00  0.00     0.099 A 
ATOM     20  C   UNL d   1     -41.362-123.644 -54.011  0.00  0.00     0.021 A 
ATOM     21  C   UNL d   1     -41.197-123.120 -53.396  0.00  0.00     0.003 A 
ENDBRANCH   6  16
BRANCH   3  22
ATOM     22  C   UNL d   1     -41.470-121.060 -53.419  0.00  0.00     0.302 C 
ATOM     23  O   UNL d   1     -41.129-121.522 -54.011  0.00  0.00    -0.259 OA
BRANCH  22  24
ATOM     24  O   UNL d   1     -41.806-120.332 -53.606  0.00  0.00    -0.271 OA
BRANCH  24  25
ATOM     25  C   UNL d   1     -41.812-120.072 -54.388  0.00  0.00     0.126 C 
ATOM     26  C   UNL d   1     -42.245-119.403 -54.593  0.00  0.00     0.029 C 
ENDBRANCH  24  25
ENDBRANCH  22  24
ENDBRANCH   3  22
TORSDOF 4
ENDMDL
