MODEL 1
REMARK VINA RESULT:      -5.5      0.000      0.000
REMARK  5 active torsions:
REMARK  status: ('A' for Active; 'I' for Inactive)
REMARK       I    between atoms: C_3  and  N_1 
REMARK    1  A    between atoms: C_5  and  N_1 
REMARK    2  A    between atoms: C_2  and  C_3 
REMARK    3  A    between atoms: N_10  and  C_5 
REMARK    4  A    between atoms: C_13  and  N_10 
REMARK    5  A    between atoms: C_14  and  C_13 
ROOT
ATOM      1  C   UNL d   1      57.907  -0.099  30.468  0.00  0.00     0.224 C 
ATOM      2  S   UNL d   1      58.082   0.682  30.258  0.00  0.00    -0.037 SA
ENDROOT
BRANCH   1   3
ATOM      3  N   UNL d   1      58.387  -0.711  30.201  0.00  0.00    -0.177 NA
ATOM      4  C   UNL d   1      58.474  -0.840  29.387  0.00  0.00     0.304 C 
ATOM      5  O   UNL d   1      58.087  -0.362  28.852  0.00  0.00    -0.263 OA
BRANCH   4   6
ATOM      6  C   UNL d   1      58.954  -1.452  29.120  0.00  0.00     0.158 A 
ATOM      7  O   UNL d   1      58.763  -2.253  29.113  0.00  0.00    -0.296 OA
ATOM      8  C   UNL d   1      59.390  -2.669  28.807  0.00  0.00     0.134 A 
ATOM      9 BR   UNL d   1      59.432  -3.479  28.701  0.00  0.00    -0.022 Br
ATOM     10  C   UNL d   1      59.980  -2.129  28.619  0.00  0.00     0.034 A 
ATOM     11  C   UNL d   1      59.709  -1.369  28.815  0.00  0.00     0.032 A 
ENDBRANCH   4   6
ENDBRANCH   1   3
BRANCH   1  12
ATOM     12  N   UNL d   1      57.255  -0.254  30.941  0.00  0.00    -0.216 NA
BRANCH  12  13
ATOM     13  C   UNL d   1      57.240   0.019  31.708  0.00  0.00     0.101 C 
BRANCH  13  14
ATOM     14  C   UNL d   1      56.636  -0.217  32.210  0.00  0.00     0.019 A 
ATOM     15  C   UNL d   1      56.495  -1.018  32.347  0.00  0.00     0.002 A 
ATOM     16  C   UNL d   1      55.886  -1.249  32.853  0.00  0.00     0.000 A 
ATOM     17  C   UNL d   1      55.417  -0.677  33.224  0.00  0.00     0.000 A 
ATOM     18  C   UNL d   1      55.557   0.124  33.087  0.00  0.00     0.000 A 
ATOM     19  C   UNL d   1      56.166   0.354  32.581  0.00  0.00     0.002 A 
ENDBRANCH  13  14
ENDBRANCH  12  13
ENDBRANCH   1  12
TORSDOF 5
ENDMDL
MODEL 2
REMARK VINA RESULT:      -5.0      2.123      4.638
REMARK  5 active torsions:
REMARK  status: ('A' for Active; 'I' for Inactive)
REMARK       I    between atoms: C_3  and  N_1 
REMARK    1  A    between atoms: C_5  and  N_1 
REMARK    2  A    between atoms: C_2  and  C_3 
REMARK    3  A    between atoms: N_10  and  C_5 
REMARK    4  A    between atoms: C_13  and  N_10 
REMARK    5  A    between atoms: C_14  and  C_13 
ROOT
ATOM      1  C   UNL d   1      57.894  -0.089  30.388  0.00  0.00     0.224 C 
ATOM      2  S   UNL d   1      57.961   0.682  30.097  0.00  0.00    -0.037 SA
ENDROOT
BRANCH   1   3
ATOM      3  N   UNL d   1      57.278  -0.281  30.899  0.00  0.00    -0.177 NA
ATOM      4  C   UNL d   1      57.307  -0.033  31.689  0.00  0.00     0.304 C 
ATOM      5  O   UNL d   1      57.942   0.399  31.960  0.00  0.00    -0.263 OA
BRANCH   4   6
ATOM      6  C   UNL d   1      56.691  -0.225  32.200  0.00  0.00     0.158 A 
ATOM      7  O   UNL d   1      56.223   0.306  32.619  0.00  0.00    -0.296 OA
ATOM      8  C   UNL d   1      55.681  -0.112  33.056  0.00  0.00     0.134 A 
ATOM      9 BR   UNL d   1      55.109   0.200  33.552  0.00  0.00    -0.022 Br
ATOM     10  C   UNL d   1      55.806  -0.911  32.913  0.00  0.00     0.034 A 
ATOM     11  C   UNL d   1      56.437  -0.983  32.378  0.00  0.00     0.032 A 
ENDBRANCH   4   6
ENDBRANCH   1   3
BRANCH   1  12
ATOM     12  N   UNL d   1      58.444  -0.656  30.165  0.00  0.00    -0.216 NA
BRANCH  12  13
ATOM     13  C   UNL d   1      58.550  -0.823  29.375  0.00  0.00     0.101 C 
BRANCH  13  14
ATOM     14  C   UNL d   1      59.024  -1.457  29.156  0.00  0.00     0.019 A 
ATOM     15  C   UNL d   1      58.735  -2.228  29.197  0.00  0.00     0.002 A 
ATOM     16  C   UNL d   1      59.217  -2.860  28.975  0.00  0.00     0.000 A 
ATOM     17  C   UNL d   1      59.988  -2.720  28.711  0.00  0.00     0.000 A 
ATOM     18  C   UNL d   1      60.277  -1.949  28.670  0.00  0.00     0.000 A 
ATOM     19  C   UNL d   1      59.795  -1.317  28.892  0.00  0.00     0.002 A 
ENDBRANCH  13  14
ENDBRANCH  12  13
ENDBRANCH   1  12
TORSDOF 5
ENDMDL
MODEL 3
REMARK VINA RESULT:      -2.7      1.778      2.222
REMARK  5 active torsions:
REMARK  status: ('A' for Active; 'I' for Inactive)
REMARK       I    between atoms: C_3  and  N_1 
REMARK    1  A    between atoms: C_5  and  N_1 
REMARK    2  A    between atoms: C_2  and  C_3 
REMARK    3  A    between atoms: N_10  and  C_5 
REMARK    4  A    between atoms: C_13  and  N_10 
REMARK    5  A    between atoms: C_14  and  C_13 
ROOT
ATOM      1  C   UNL d   1      56.942  -0.544  31.601  0.00  0.00     0.224 C 
ATOM      2  S   UNL d   1      56.930  -1.371  31.577  0.00  0.00    -0.037 SA
ENDROOT
BRANCH   1   3
ATOM      3  N   UNL d   1      57.409  -0.126  31.069  0.00  0.00    -0.177 NA
ATOM      4  C   UNL d   1      57.852  -0.536  30.501  0.00  0.00     0.304 C 
ATOM      5  O   UNL d   1      57.825  -1.350  30.469  0.00  0.00    -0.263 OA
BRANCH   4   6
ATOM      6  C   UNL d   1      58.320  -0.117  29.969  0.00  0.00     0.158 A 
ATOM      7  O   UNL d   1      59.142  -0.076  29.972  0.00  0.00    -0.296 OA
ATOM      8  C   UNL d   1      59.381   0.394  29.354  0.00  0.00     0.134 A 
ATOM      9 BR   UNL d   1      60.153   0.582  29.155  0.00  0.00    -0.022 Br
ATOM     10  C   UNL d   1      58.709   0.651  28.959  0.00  0.00     0.034 A 
ATOM     11  C   UNL d   1      58.045   0.332  29.343  0.00  0.00     0.032 A 
ENDBRANCH   4   6
ENDBRANCH   1   3
BRANCH   1  12
ATOM     12  N   UNL d   1      56.485  -0.149  32.158  0.00  0.00    -0.216 NA
BRANCH  12  13
ATOM     13  C   UNL d   1      56.190  -0.557  32.797  0.00  0.00     0.101 C 
BRANCH  13  14
ATOM     14  C   UNL d   1      55.834  -0.144  33.411  0.00  0.00     0.019 A 
ATOM     15  C   UNL d   1      56.294   0.240  33.978  0.00  0.00     0.002 A 
ATOM     16  C   UNL d   1      55.930   0.653  34.592  0.00  0.00     0.000 A 
ATOM     17  C   UNL d   1      55.105   0.682  34.640  0.00  0.00     0.000 A 
ATOM     18  C   UNL d   1      54.645   0.297  34.074  0.00  0.00     0.000 A 
ATOM     19  C   UNL d   1      55.009  -0.115  33.459  0.00  0.00     0.002 A 
ENDBRANCH  13  14
ENDBRANCH  12  13
ENDBRANCH   1  12
TORSDOF 5
ENDMDL
