MODEL 1
REMARK VINA RESULT:      -4.8      0.000      0.000
REMARK  4 active torsions:
REMARK  status: ('A' for Active; 'I' for Inactive)
REMARK    1  A    between atoms: C_8  and  C_2 
REMARK    2  A    between atoms: O_6  and  C_8 
REMARK    3  A    between atoms: C_7  and  O_6 
REMARK    4  A    between atoms: O_10  and  C_9 
ROOT
ATOM      1  C   UNL d   1     -41.547-123.062 -51.411  0.00  0.00     0.161 C 
ENDROOT
BRANCH   1   2
ATOM      2  O   UNL d   1     -41.975-123.475 -50.934  0.00  0.00    -0.300 OA
BRANCH   2   3
ATOM      3  C   UNL d   1     -41.938-123.345 -50.095  0.00  0.00     0.122 A 
ATOM      4  C   UNL d   1     -42.600-123.410 -49.651  0.00  0.00     0.117 A 
ATOM      5  C   UNL d   1     -42.552-123.281 -48.833  0.00  0.00     0.026 A 
ATOM      6  C   UNL d   1     -41.827-123.089 -48.489  0.00  0.00     0.002 A 
ATOM      7  C   UNL d   1     -41.124-123.019 -48.952  0.00  0.00     0.002 A 
ATOM      8  C   UNL d   1     -41.200-123.154 -49.777  0.00  0.00     0.027 A 
BRANCH   4   9
ATOM      9  O   UNL d   1     -43.321-123.601 -49.993  0.00  0.00    -0.326 OA
ATOM     10  C   UNL d   1     -43.948-123.815 -49.538  0.00  0.00     0.181 C 
ENDBRANCH   4   9
ENDBRANCH   2   3
ENDBRANCH   1   2
BRANCH   1  11
ATOM     11  C   UNL d   1     -41.485-123.295 -52.178  0.00  0.00     0.188 A 
ATOM     12  N   UNL d   1     -41.376-123.811 -52.810  0.00  0.00    -0.224 NA
ATOM     13  C   UNL d   1     -41.433-123.397 -53.501  0.00  0.00     0.101 A 
ATOM     14  C   UNL d   1     -41.581-122.608 -53.309  0.00  0.00     0.101 A 
ATOM     15  C   UNL d   1     -41.377-123.595 -54.283  0.00  0.00     0.021 A 
ATOM     16  C   UNL d   1     -41.667-122.047 -53.908  0.00  0.00     0.021 A 
ATOM     17  N   UNL d   1     -41.612-122.550 -52.504  0.00  0.00    -0.224 NA
ATOM     18  C   UNL d   1     -41.606-122.275 -54.699  0.00  0.00     0.002 A 
ATOM     19  C   UNL d   1     -41.458-123.064 -54.890  0.00  0.00     0.002 A 
ENDBRANCH   1  11
TORSDOF 4
ENDMDL
MODEL 2
REMARK VINA RESULT:      -4.7      1.223      4.436
REMARK  4 active torsions:
REMARK  status: ('A' for Active; 'I' for Inactive)
REMARK    1  A    between atoms: C_8  and  C_2 
REMARK    2  A    between atoms: O_6  and  C_8 
REMARK    3  A    between atoms: C_7  and  O_6 
REMARK    4  A    between atoms: O_10  and  C_9 
ROOT
ATOM      1  C   UNL d   1     -41.553-122.788 -51.991  0.00  0.00     0.161 C 
ENDROOT
BRANCH   1   2
ATOM      2  O   UNL d   1     -41.911-122.505 -52.602  0.00  0.00    -0.300 OA
BRANCH   2   3
ATOM      3  C   UNL d   1     -41.727-122.788 -53.383  0.00  0.00     0.122 A 
ATOM      4  C   UNL d   1     -41.945-122.363 -54.024  0.00  0.00     0.117 A 
ATOM      5  C   UNL d   1     -41.760-122.648 -54.780  0.00  0.00     0.026 A 
ATOM      6  C   UNL d   1     -41.356-123.363 -54.862  0.00  0.00     0.002 A 
ATOM      7  C   UNL d   1     -41.123-123.817 -54.189  0.00  0.00     0.002 A 
ATOM      8  C   UNL d   1     -41.322-123.506 -53.435  0.00  0.00     0.027 A 
BRANCH   4   9
ATOM      9  O   UNL d   1     -42.347-121.652 -53.943  0.00  0.00    -0.326 OA
ATOM     10  C   UNL d   1     -42.503-121.192 -54.583  0.00  0.00     0.181 C 
ENDBRANCH   4   9
ENDBRANCH   2   3
ENDBRANCH   1   2
BRANCH   1  11
ATOM     11  C   UNL d   1     -41.892-122.699 -51.268  0.00  0.00     0.188 A 
ATOM     12  N   UNL d   1     -42.421-122.416 -50.705  0.00  0.00    -0.224 NA
ATOM     13  C   UNL d   1     -42.243-122.742 -49.988  0.00  0.00     0.101 A 
ATOM     14  C   UNL d   1     -41.594-123.239 -50.093  0.00  0.00     0.101 A 
ATOM     15  C   UNL d   1     -42.558-122.677 -49.246  0.00  0.00     0.021 A 
ATOM     16  C   UNL d   1     -41.283-123.654 -49.450  0.00  0.00     0.021 A 
ATOM     17  N   UNL d   1     -41.383-123.211 -50.872  0.00  0.00    -0.224 NA
ATOM     18  C   UNL d   1     -41.623-123.570 -48.703  0.00  0.00     0.002 A 
ATOM     19  C   UNL d   1     -42.273-123.072 -48.598  0.00  0.00     0.002 A 
ENDBRANCH   1  11
TORSDOF 4
ENDMDL
MODEL 3
REMARK VINA RESULT:      -3.2      1.430      4.551
REMARK  4 active torsions:
REMARK  status: ('A' for Active; 'I' for Inactive)
REMARK    1  A    between atoms: C_8  and  C_2 
REMARK    2  A    between atoms: O_6  and  C_8 
REMARK    3  A    between atoms: C_7  and  O_6 
REMARK    4  A    between atoms: O_10  and  C_9 
ROOT
ATOM      1  C   UNL d   1     -42.141-122.192 -52.657  0.00  0.00     0.161 C 
ENDROOT
BRANCH   1   2
ATOM      2  O   UNL d   1     -41.697-122.247 -53.275  0.00  0.00    -0.300 OA
BRANCH   2   3
ATOM      3  C   UNL d   1     -42.012-122.098 -54.051  0.00  0.00     0.122 A 
ATOM      4  C   UNL d   1     -41.725-122.496 -54.682  0.00  0.00     0.117 A 
ATOM      5  C   UNL d   1     -42.039-122.343 -55.434  0.00  0.00     0.026 A 
ATOM      6  C   UNL d   1     -42.642-121.786 -55.521  0.00  0.00     0.002 A 
ATOM      7  C   UNL d   1     -42.950-121.362 -54.858  0.00  0.00     0.002 A 
ATOM      8  C   UNL d   1     -42.614-121.536 -54.109  0.00  0.00     0.027 A 
BRANCH   4   9
ATOM      9  O   UNL d   1     -41.126-123.051 -54.595  0.00  0.00    -0.326 OA
ATOM     10  C   UNL d   1     -41.183-123.776 -54.937  0.00  0.00     0.181 C 
ENDBRANCH   4   9
ENDBRANCH   2   3
ENDBRANCH   1   2
BRANCH   1  11
ATOM     11  C   UNL d   1     -41.902-122.545 -51.976  0.00  0.00     0.188 A 
ATOM     12  N   UNL d   1     -41.469-123.050 -51.491  0.00  0.00    -0.224 NA
ATOM     13  C   UNL d   1     -41.710-122.953 -50.727  0.00  0.00     0.101 A 
ATOM     14  C   UNL d   1     -42.305-122.381 -50.722  0.00  0.00     0.101 A 
ATOM     15  C   UNL d   1     -41.496-123.287 -50.022  0.00  0.00     0.021 A 
ATOM     16  C   UNL d   1     -42.662-122.164 -50.011  0.00  0.00     0.021 A 
ATOM     17  N   UNL d   1     -42.419-122.135 -51.483  0.00  0.00    -0.224 NA
ATOM     18  C   UNL d   1     -42.425-122.520 -49.304  0.00  0.00     0.002 A 
ATOM     19  C   UNL d   1     -41.830-123.092 -49.310  0.00  0.00     0.002 A 
ENDBRANCH   1  11
TORSDOF 4
ENDMDL
MODEL 4
REMARK VINA RESULT:      -3.0      1.445      4.567
REMARK  4 active torsions:
REMARK  status: ('A' for Active; 'I' for Inactive)
REMARK    1  A    between atoms: C_8  and  C_2 
REMARK    2  A    between atoms: O_6  and  C_8 
REMARK    3  A    between atoms: C_7  and  O_6 
REMARK    4  A    between atoms: O_10  and  C_9 
ROOT
ATOM      1  C   UNL d   1     -41.614-123.196 -50.597  0.00  0.00     0.161 C 
ENDROOT
BRANCH   1   2
ATOM      2  O   UNL d   1     -41.130-122.841 -51.068  0.00  0.00    -0.300 OA
BRANCH   2   3
ATOM      3  C   UNL d   1     -41.204-122.926 -51.911  0.00  0.00     0.122 A 
ATOM      4  C   UNL d   1     -41.309-122.280 -52.370  0.00  0.00     0.117 A 
ATOM      5  C   UNL d   1     -41.379-122.374 -53.191  0.00  0.00     0.026 A 
ATOM      6  C   UNL d   1     -41.341-123.129 -53.522  0.00  0.00     0.002 A 
ATOM      7  C   UNL d   1     -41.231-123.816 -53.043  0.00  0.00     0.002 A 
ATOM      8  C   UNL d   1     -41.162-123.692 -52.215  0.00  0.00     0.027 A 
BRANCH   4   9
ATOM      9  O   UNL d   1     -41.347-121.529 -52.041  0.00  0.00    -0.326 OA
ATOM     10  C   UNL d   1     -41.362-120.875 -52.508  0.00  0.00     0.181 C 
ENDBRANCH   4   9
ENDBRANCH   2   3
ENDBRANCH   1   2
BRANCH   1  11
ATOM     11  C   UNL d   1     -41.571-123.042 -49.810  0.00  0.00     0.188 A 
ATOM     12  N   UNL d   1     -41.284-122.711 -49.113  0.00  0.00    -0.224 NA
ATOM     13  C   UNL d   1     -41.734-122.968 -48.494  0.00  0.00     0.101 A 
ATOM     14  C   UNL d   1     -42.316-123.468 -48.796  0.00  0.00     0.101 A 
ATOM     15  C   UNL d   1     -41.722-122.836 -47.696  0.00  0.00     0.021 A 
ATOM     16  C   UNL d   1     -42.864-123.817 -48.289  0.00  0.00     0.021 A 
ATOM     17  N   UNL d   1     -42.215-123.511 -49.597  0.00  0.00    -0.224 NA
ATOM     18  C   UNL d   1     -42.830-123.667 -47.478  0.00  0.00     0.002 A 
ATOM     19  C   UNL d   1     -42.248-123.167 -47.176  0.00  0.00     0.002 A 
ENDBRANCH   1  11
TORSDOF 4
ENDMDL
MODEL 5
REMARK VINA RESULT:      -2.5      1.378      2.094
REMARK  4 active torsions:
REMARK  status: ('A' for Active; 'I' for Inactive)
REMARK    1  A    between atoms: C_8  and  C_2 
REMARK    2  A    between atoms: O_6  and  C_8 
REMARK    3  A    between atoms: C_7  and  O_6 
REMARK    4  A    between atoms: O_10  and  C_9 
ROOT
ATOM      1  C   UNL d   1     -41.772-122.715 -52.780  0.00  0.00     0.161 C 
ENDROOT
BRANCH   1   2
ATOM      2  O   UNL d   1     -41.227-122.654 -52.251  0.00  0.00    -0.300 OA
BRANCH   2   3
ATOM      3  C   UNL d   1     -41.421-122.670 -51.423  0.00  0.00     0.122 A 
ATOM      4  C   UNL d   1     -41.400-121.996 -50.994  0.00  0.00     0.117 A 
ATOM      5  C   UNL d   1     -41.591-122.023 -50.188  0.00  0.00     0.026 A 
ATOM      6  C   UNL d   1     -41.800-122.741 -49.840  0.00  0.00     0.002 A 
ATOM      7  C   UNL d   1     -41.825-123.458 -50.287  0.00  0.00     0.002 A 
ATOM      8  C   UNL d   1     -41.627-123.402 -51.101  0.00  0.00     0.027 A 
BRANCH   4   9
ATOM      9  O   UNL d   1     -41.192-121.281 -51.340  0.00  0.00    -0.326 OA
ATOM     10  C   UNL d   1     -41.123-120.613 -50.897  0.00  0.00     0.181 C 
ENDBRANCH   4   9
ENDBRANCH   2   3
ENDBRANCH   1   2
BRANCH   1  11
ATOM     11  C   UNL d   1     -41.593-122.538 -53.543  0.00  0.00     0.188 A 
ATOM     12  N   UNL d   1     -41.123-122.437 -54.211  0.00  0.00    -0.224 NA
ATOM     13  C   UNL d   1     -41.586-122.191 -54.825  0.00  0.00     0.101 A 
ATOM     14  C   UNL d   1     -42.361-122.135 -54.548  0.00  0.00     0.101 A 
ATOM     15  C   UNL d   1     -41.443-122.005 -55.600  0.00  0.00     0.021 A 
ATOM     16  C   UNL d   1     -42.964-121.894 -55.056  0.00  0.00     0.021 A 
ATOM     17  N   UNL d   1     -42.362-122.346 -53.769  0.00  0.00    -0.224 NA
ATOM     18  C   UNL d   1     -42.792-121.709 -55.843  0.00  0.00     0.002 A 
ATOM     19  C   UNL d   1     -42.017-121.766 -56.120  0.00  0.00     0.002 A 
ENDBRANCH   1  11
TORSDOF 4
ENDMDL
