MODEL 1
REMARK VINA RESULT:      -4.1      0.000      0.000
REMARK  7 active torsions:
REMARK  status: ('A' for Active; 'I' for Inactive)
REMARK       I    between atoms: N_3  and  C_1 
REMARK    1  A    between atoms: C_10  and  C_1 
REMARK    2  A    between atoms: C_2  and  C_5 
REMARK    3  A    between atoms: O_15  and  C_2 
REMARK    4  A    between atoms: C_11  and  N_3 
REMARK    5  A    between atoms: C_4  and  C_11 
REMARK       I    between atoms: N_6  and  C_4 
REMARK    6  A    between atoms: C_14  and  N_6 
REMARK    7  A    between atoms: C_20  and  O_15 
ROOT
ATOM      1  C   UNL d   1      57.615  -0.285  30.978  0.00  0.00     0.299 C 
ATOM      2  N   UNL d   1      57.551   0.381  31.457  0.00  0.00    -0.207 NA
ATOM      3  O   UNL d   1      57.170  -0.956  31.154  0.00  0.00    -0.263 OA
ENDROOT
BRANCH   1   4
ATOM      4  C   UNL d   1      58.115  -0.286  30.331  0.00  0.00     0.165 C 
BRANCH   4   5
ATOM      5  N   UNL d   1      58.438  -0.990  30.053  0.00  0.00    -0.201 NA
ATOM      6  C   UNL d   1      58.898  -0.987  29.369  0.00  0.00     0.279 C 
ATOM      7  O   UNL d   1      59.015  -0.223  28.975  0.00  0.00    -0.265 OA
BRANCH   6   8
ATOM      8  C   UNL d   1      59.224  -1.694  29.087  0.00  0.00     0.058 A 
ATOM      9  C   UNL d   1      58.738  -2.259  28.734  0.00  0.00     0.005 A 
ATOM     10  C   UNL d   1      59.063  -2.959  28.455  0.00  0.00     0.000 A 
ATOM     11  C   UNL d   1      59.866  -3.098  28.527  0.00  0.00     0.000 A 
ATOM     12  C   UNL d   1      60.351  -2.532  28.880  0.00  0.00     0.000 A 
ATOM     13  C   UNL d   1      60.034  -1.828  29.162  0.00  0.00     0.005 A 
ENDBRANCH   6   8
ENDBRANCH   4   5
ENDBRANCH   1   4
BRANCH   2  14
ATOM     14  C   UNL d   1      57.043   0.380  32.112  0.00  0.00     0.085 A 
ATOM     15  C   UNL d   1      57.346   0.526  32.860  0.00  0.00     0.019 A 
ATOM     16  C   UNL d   1      56.848   0.525  33.508  0.00  0.00     0.007 A 
ATOM     17  C   UNL d   1      56.033   0.376  33.409  0.00  0.00     0.064 A 
ATOM     18  C   UNL d   1      55.736   0.230  32.654  0.00  0.00     0.007 A 
ATOM     19  C   UNL d   1      56.239   0.231  32.002  0.00  0.00     0.019 A 
BRANCH  17  20
ATOM     20  C   UNL d   1      55.530   0.375  34.065  0.00  0.00     0.300 C 
ATOM     21  O   UNL d   1      54.759   0.088  33.998  0.00  0.00    -0.259 OA
BRANCH  20  22
ATOM     22  O   UNL d   1      55.803   0.663  34.788  0.00  0.00    -0.271 OA
BRANCH  22  23
ATOM     23  C   UNL d   1      55.306   0.670  35.448  0.00  0.00     0.126 C 
ATOM     24  C   UNL d   1      55.630   0.622  36.205  0.00  0.00     0.029 C 
ENDBRANCH  22  23
ENDBRANCH  20  22
ENDBRANCH  17  20
ENDBRANCH   2  14
TORSDOF 7
ENDMDL
MODEL 2
REMARK VINA RESULT:      -2.4      1.298      6.021
REMARK  7 active torsions:
REMARK  status: ('A' for Active; 'I' for Inactive)
REMARK       I    between atoms: N_3  and  C_1 
REMARK    1  A    between atoms: C_10  and  C_1 
REMARK    2  A    between atoms: C_2  and  C_5 
REMARK    3  A    between atoms: O_15  and  C_2 
REMARK    4  A    between atoms: C_11  and  N_3 
REMARK    5  A    between atoms: C_4  and  C_11 
REMARK       I    between atoms: N_6  and  C_4 
REMARK    6  A    between atoms: C_14  and  N_6 
REMARK    7  A    between atoms: C_20  and  O_15 
ROOT
ATOM      1  C   UNL d   1      58.099  -0.161  30.771  0.00  0.00     0.299 C 
ATOM      2  N   UNL d   1      58.036  -0.491  30.020  0.00  0.00    -0.207 NA
ATOM      3  O   UNL d   1      58.757  -0.334  31.237  0.00  0.00    -0.263 OA
ENDROOT
BRANCH   1   4
ATOM      4  C   UNL d   1      57.516   0.336  31.058  0.00  0.00     0.165 C 
BRANCH   4   5
ATOM      5  N   UNL d   1      57.248   0.263  31.833  0.00  0.00    -0.201 NA
ATOM      6  C   UNL d   1      56.462   0.432  32.012  0.00  0.00     0.279 C 
ATOM      7  O   UNL d   1      55.953   0.682  31.355  0.00  0.00    -0.265 OA
BRANCH   6   8
ATOM      8  C   UNL d   1      56.190   0.359  32.790  0.00  0.00     0.058 A 
ATOM      9  C   UNL d   1      56.674   0.585  33.418  0.00  0.00     0.005 A 
ATOM     10  C   UNL d   1      56.403   0.512  34.189  0.00  0.00     0.000 A 
ATOM     11  C   UNL d   1      55.655   0.217  34.336  0.00  0.00     0.000 A 
ATOM     12  C   UNL d   1      55.171  -0.009  33.708  0.00  0.00     0.000 A 
ATOM     13  C   UNL d   1      55.434   0.060  32.933  0.00  0.00     0.005 A 
ENDBRANCH   6   8
ENDBRANCH   4   5
ENDBRANCH   1   4
BRANCH   2  14
ATOM     14  C   UNL d   1      58.627  -0.994  29.732  0.00  0.00     0.085 A 
ATOM     15  C   UNL d   1      58.490  -1.802  29.695  0.00  0.00     0.019 A 
ATOM     16  C   UNL d   1      59.072  -2.301  29.411  0.00  0.00     0.007 A 
ATOM     17  C   UNL d   1      59.804  -1.989  29.159  0.00  0.00     0.064 A 
ATOM     18  C   UNL d   1      59.934  -1.176  29.199  0.00  0.00     0.007 A 
ATOM     19  C   UNL d   1      59.347  -0.675  29.485  0.00  0.00     0.019 A 
BRANCH  17  20
ATOM     20  C   UNL d   1      60.392  -2.494  28.872  0.00  0.00     0.300 C 
ATOM     21  O   UNL d   1      61.036  -2.189  28.455  0.00  0.00    -0.259 OA
BRANCH  20  22
ATOM     22  O   UNL d   1      60.332  -3.306  29.004  0.00  0.00    -0.271 OA
BRANCH  22  23
ATOM     23  C   UNL d   1      60.761  -3.837  28.538  0.00  0.00     0.126 C 
ATOM     24  C   UNL d   1      60.937  -4.588  28.831  0.00  0.00     0.029 C 
ENDBRANCH  22  23
ENDBRANCH  20  22
ENDBRANCH  17  20
ENDBRANCH   2  14
TORSDOF 7
ENDMDL
MODEL 3
REMARK VINA RESULT:      -1.3      1.246      5.975
REMARK  7 active torsions:
REMARK  status: ('A' for Active; 'I' for Inactive)
REMARK       I    between atoms: N_3  and  C_1 
REMARK    1  A    between atoms: C_10  and  C_1 
REMARK    2  A    between atoms: C_2  and  C_5 
REMARK    3  A    between atoms: O_15  and  C_2 
REMARK    4  A    between atoms: C_11  and  N_3 
REMARK    5  A    between atoms: C_4  and  C_11 
REMARK       I    between atoms: N_6  and  C_4 
REMARK    6  A    between atoms: C_14  and  N_6 
REMARK    7  A    between atoms: C_20  and  O_15 
ROOT
ATOM      1  C   UNL d   1      56.596  -0.245  32.009  0.00  0.00     0.299 C 
ATOM      2  N   UNL d   1      56.902   0.354  31.536  0.00  0.00    -0.207 NA
ATOM      3  O   UNL d   1      56.960  -0.986  32.012  0.00  0.00    -0.263 OA
ENDROOT
BRANCH   1   4
ATOM      4  C   UNL d   1      55.937  -0.114  32.474  0.00  0.00     0.165 C 
BRANCH   4   5
ATOM      5  N   UNL d   1      56.018   0.115  33.260  0.00  0.00    -0.201 NA
ATOM      6  C   UNL d   1      55.397  -0.007  33.788  0.00  0.00     0.279 C 
ATOM      7  O   UNL d   1      54.679  -0.378  33.474  0.00  0.00    -0.265 OA
BRANCH   6   8
ATOM      8  C   UNL d   1      55.476   0.223  34.579  0.00  0.00     0.058 A 
ATOM      9  C   UNL d   1      56.220   0.218  34.937  0.00  0.00     0.005 A 
ATOM     10  C   UNL d   1      56.296   0.445  35.722  0.00  0.00     0.000 A 
ATOM     11  C   UNL d   1      55.639   0.676  36.149  0.00  0.00     0.000 A 
ATOM     12  C   UNL d   1      54.896   0.681  35.791  0.00  0.00     0.000 A 
ATOM     13  C   UNL d   1      54.809   0.455  35.006  0.00  0.00     0.005 A 
ENDBRANCH   6   8
ENDBRANCH   4   5
ENDBRANCH   1   4
BRANCH   2  14
ATOM     14  C   UNL d   1      57.571   0.218  31.066  0.00  0.00     0.085 A 
ATOM     15  C   UNL d   1      58.289   0.554  31.275  0.00  0.00     0.019 A 
ATOM     16  C   UNL d   1      58.950   0.422  30.812  0.00  0.00     0.007 A 
ATOM     17  C   UNL d   1      58.895  -0.055  30.130  0.00  0.00     0.064 A 
ATOM     18  C   UNL d   1      58.169  -0.390  29.927  0.00  0.00     0.007 A 
ATOM     19  C   UNL d   1      57.505  -0.255  30.393  0.00  0.00     0.019 A 
BRANCH  17  20
ATOM     20  C   UNL d   1      59.563  -0.189  29.663  0.00  0.00     0.300 C 
ATOM     21  O   UNL d   1      60.091   0.426  29.503  0.00  0.00    -0.259 OA
BRANCH  20  22
ATOM     22  O   UNL d   1      59.701  -0.942  29.357  0.00  0.00    -0.271 OA
BRANCH  22  23
ATOM     23  C   UNL d   1      60.408  -1.108  28.960  0.00  0.00     0.126 C 
ATOM     24  C   UNL d   1      60.852  -1.768  29.176  0.00  0.00     0.029 C 
ENDBRANCH  22  23
ENDBRANCH  20  22
ENDBRANCH  17  20
ENDBRANCH   2  14
TORSDOF 7
ENDMDL
