MODEL 1
REMARK VINA RESULT:      55.5      0.000      0.000
REMARK  6 active torsions:
REMARK  status: ('A' for Active; 'I' for Inactive)
REMARK    1  A    between atoms: N_2  and  S_1 
REMARK    2  A    between atoms: C_5  and  S_1 
REMARK    3  A    between atoms: S_8  and  C_3 
REMARK    4  A    between atoms: C_13  and  S_8 
REMARK    5  A    between atoms: C_17  and  C_13 
REMARK    6  A    between atoms: O_21  and  C_15 
ROOT
ATOM      1  N   UNL d   1      60.577  49.228  50.942  0.00  0.00    -0.208 N 
ATOM      2  C   UNL d   1      59.839  49.467  51.241  0.00  0.00     0.189 A 
ATOM      3  N   UNL d   1      59.945  49.708  52.026  0.00  0.00    -0.219 NA
ATOM      4  C   UNL d   1      61.140  49.323  51.547  0.00  0.00     0.114 A 
ATOM      5  C   UNL d   1      60.748  49.617  52.209  0.00  0.00     0.121 A 
ENDROOT
BRANCH   1   6
ATOM      6  S   UNL d   1      60.720  48.947  50.177  0.00  0.00     0.273 S 
ATOM      7  O   UNL d   1      60.816  48.908  49.355  0.00  0.00    -0.200 OA
ATOM      8  O   UNL d   1      60.582  49.707  49.908  0.00  0.00    -0.200 OA
BRANCH   6   9
ATOM      9  C   UNL d   1      60.864  48.173  50.428  0.00  0.00     0.104 A 
ATOM     10  C   UNL d   1      61.379  47.699  49.995  0.00  0.00     0.015 A 
ATOM     11  C   UNL d   1      61.517  46.925  50.254  0.00  0.00     0.025 A 
ATOM     12  C   UNL d   1      61.141  46.641  50.936  0.00  0.00     0.094 A 
ATOM     13  C   UNL d   1      60.630  47.119  51.361  0.00  0.00     0.025 A 
ATOM     14  C   UNL d   1      60.491  47.893  51.103  0.00  0.00     0.015 A 
BRANCH  12  15
ATOM     15  O   UNL d   1      61.286  45.868  51.184  0.00  0.00    -0.328 OA
ATOM     16  C   UNL d   1      60.891  45.575  51.851  0.00  0.00     0.181 C 
ENDBRANCH  12  15
ENDBRANCH   6   9
ENDBRANCH   1   6
BRANCH   2  17
ATOM     17  S   UNL d   1      59.120  49.464  50.823  0.00  0.00    -0.049 SA
BRANCH  17  18
ATOM     18  C   UNL d   1      58.407  49.411  51.235  0.00  0.00     0.038 C 
BRANCH  18  19
ATOM     19  C   UNL d   1      57.696  49.403  50.822  0.00  0.00     0.009 A 
ATOM     20  C   UNL d   1      57.665  49.083  50.046  0.00  0.00     0.030 A 
ATOM     21  C   UNL d   1      56.959  49.073  49.631  0.00  0.00     0.140 A 
ATOM     22  F   UNL d   1      56.933  48.756  48.866  0.00  0.00    -0.204 F 
ATOM     23  C   UNL d   1      56.268  49.381  49.976  0.00  0.00     0.030 A 
ATOM     24  C   UNL d   1      56.296  49.696  50.738  0.00  0.00     0.002 A 
ATOM     25  C   UNL d   1      57.011  49.707  51.161  0.00  0.00     0.001 A 
ENDBRANCH  18  19
ENDBRANCH  17  18
ENDBRANCH   2  17
TORSDOF 6
ENDMDL
MODEL 2
REMARK VINA RESULT:      55.6      1.561      4.036
REMARK  6 active torsions:
REMARK  status: ('A' for Active; 'I' for Inactive)
REMARK    1  A    between atoms: N_2  and  S_1 
REMARK    2  A    between atoms: C_5  and  S_1 
REMARK    3  A    between atoms: S_8  and  C_3 
REMARK    4  A    between atoms: C_13  and  S_8 
REMARK    5  A    between atoms: C_17  and  C_13 
REMARK    6  A    between atoms: O_21  and  C_15 
ROOT
ATOM      1  N   UNL d   1      60.254  49.352  50.933  0.00  0.00    -0.208 N 
ATOM      2  C   UNL d   1      60.809  48.773  51.152  0.00  0.00     0.189 A 
ATOM      3  N   UNL d   1      60.868  48.770  51.978  0.00  0.00    -0.219 NA
ATOM      4  C   UNL d   1      59.969  49.707  51.629  0.00  0.00     0.114 A 
ATOM      5  C   UNL d   1      60.348  49.347  52.267  0.00  0.00     0.121 A 
ENDROOT
BRANCH   1   6
ATOM      6  S   UNL d   1      60.029  49.537  50.159  0.00  0.00     0.273 S 
ATOM      7  O   UNL d   1      60.053  49.704  49.348  0.00  0.00    -0.200 OA
ATOM      8  O   UNL d   1      60.820  49.499  49.956  0.00  0.00    -0.200 OA
BRANCH   6   9
ATOM      9  C   UNL d   1      59.224  49.580  50.343  0.00  0.00     0.104 A 
ATOM     10  C   UNL d   1      58.997  49.654  51.130  0.00  0.00     0.015 A 
ATOM     11  C   UNL d   1      58.189  49.696  51.306  0.00  0.00     0.025 A 
ATOM     12  C   UNL d   1      57.627  49.663  50.697  0.00  0.00     0.094 A 
ATOM     13  C   UNL d   1      57.864  49.590  49.916  0.00  0.00     0.025 A 
ATOM     14  C   UNL d   1      58.671  49.547  49.739  0.00  0.00     0.015 A 
BRANCH  12  15
ATOM     15  O   UNL d   1      56.826  49.706  50.885  0.00  0.00    -0.328 OA
ATOM     16  C   UNL d   1      56.287  49.223  50.479  0.00  0.00     0.181 C 
ENDBRANCH  12  15
ENDBRANCH   6   9
ENDBRANCH   1   6
BRANCH   2  17
ATOM     17  S   UNL d   1      61.232  48.282  50.630  0.00  0.00    -0.049 SA
BRANCH  17  18
ATOM     18  C   UNL d   1      61.387  47.499  50.840  0.00  0.00     0.038 C 
BRANCH  18  19
ATOM     19  C   UNL d   1      61.562  46.946  50.256  0.00  0.00     0.009 A 
ATOM     20  C   UNL d   1      61.057  46.285  50.142  0.00  0.00     0.030 A 
ATOM     21  C   UNL d   1      61.226  45.731  49.562  0.00  0.00     0.140 A 
ATOM     22  F   UNL d   1      60.725  45.081  49.452  0.00  0.00    -0.204 F 
ATOM     23  C   UNL d   1      61.899  45.823  49.083  0.00  0.00     0.030 A 
ATOM     24  C   UNL d   1      62.396  46.471  49.193  0.00  0.00     0.002 A 
ATOM     25  C   UNL d   1      62.227  47.034  49.781  0.00  0.00     0.001 A 
ENDBRANCH  18  19
ENDBRANCH  17  18
ENDBRANCH   2  17
TORSDOF 6
ENDMDL
MODEL 3
REMARK VINA RESULT:      57.0      1.215      1.542
REMARK  6 active torsions:
REMARK  status: ('A' for Active; 'I' for Inactive)
REMARK    1  A    between atoms: N_2  and  S_1 
REMARK    2  A    between atoms: C_5  and  S_1 
REMARK    3  A    between atoms: S_8  and  C_3 
REMARK    4  A    between atoms: C_13  and  S_8 
REMARK    5  A    between atoms: C_17  and  C_13 
REMARK    6  A    between atoms: O_21  and  C_15 
ROOT
ATOM      1  N   UNL d   1      60.736  49.020  50.791  0.00  0.00    -0.208 N 
ATOM      2  C   UNL d   1      60.009  49.308  50.510  0.00  0.00     0.189 A 
ATOM      3  N   UNL d   1      60.148  49.708  49.798  0.00  0.00    -0.219 NA
ATOM      4  C   UNL d   1      61.326  49.244  50.249  0.00  0.00     0.114 A 
ATOM      5  C   UNL d   1      60.960  49.665  49.642  0.00  0.00     0.121 A 
ENDROOT
BRANCH   1   6
ATOM      6  S   UNL d   1      60.848  48.588  51.488  0.00  0.00     0.273 S 
ATOM      7  O   UNL d   1      60.910  48.382  52.288  0.00  0.00    -0.200 OA
ATOM      8  O   UNL d   1      60.699  49.279  51.900  0.00  0.00    -0.200 OA
BRANCH   6   9
ATOM      9  C   UNL d   1      61.001  47.880  51.091  0.00  0.00     0.104 A 
ATOM     10  C   UNL d   1      61.523  47.881  50.456  0.00  0.00     0.015 A 
ATOM     11  C   UNL d   1      61.671  47.168  50.063  0.00  0.00     0.025 A 
ATOM     12  C   UNL d   1      61.296  46.470  50.311  0.00  0.00     0.094 A 
ATOM     13  C   UNL d   1      60.778  46.479  50.945  0.00  0.00     0.025 A 
ATOM     14  C   UNL d   1      60.629  47.192  51.338  0.00  0.00     0.015 A 
BRANCH  12  15
ATOM     15  O   UNL d   1      61.452  45.765  49.912  0.00  0.00    -0.328 OA
ATOM     16  C   UNL d   1      62.099  45.726  49.396  0.00  0.00     0.181 C 
ENDBRANCH  12  15
ENDBRANCH   6   9
ENDBRANCH   1   6
BRANCH   2  17
ATOM     17  S   UNL d   1      59.270  49.211  50.880  0.00  0.00    -0.049 SA
BRANCH  17  18
ATOM     18  C   UNL d   1      58.643  49.707  50.678  0.00  0.00     0.038 C 
BRANCH  18  19
ATOM     19  C   UNL d   1      57.893  49.391  50.561  0.00  0.00     0.009 A 
ATOM     20  C   UNL d   1      57.335  49.392  51.189  0.00  0.00     0.030 A 
ATOM     21  C   UNL d   1      56.586  49.078  51.077  0.00  0.00     0.140 A 
ATOM     22  F   UNL d   1      56.039  49.082  51.699  0.00  0.00    -0.204 F 
ATOM     23  C   UNL d   1      56.375  48.756  50.340  0.00  0.00     0.030 A 
ATOM     24  C   UNL d   1      56.921  48.753  49.722  0.00  0.00     0.002 A 
ATOM     25  C   UNL d   1      57.682  49.071  49.833  0.00  0.00     0.001 A 
ENDBRANCH  18  19
ENDBRANCH  17  18
ENDBRANCH   2  17
TORSDOF 6
ENDMDL
