MODEL 1
REMARK VINA RESULT:      -1.8      0.000      0.000
REMARK  3 active torsions:
REMARK  status: ('A' for Active; 'I' for Inactive)
REMARK    1  A    between atoms: C_4  and  C_1 
REMARK       I    between atoms: N_7  and  C_4 
REMARK    2  A    between atoms: C_9  and  N_7 
REMARK    3  A    between atoms: N_8  and  C_11 
ROOT
ATOM      1  C   UNL d   1      30.317  16.370 -24.683  0.00  0.00     0.263 C 
ATOM      2  N   UNL d   1      30.978  16.787 -24.427  0.00  0.00    -0.210 NA
ATOM      3  O   UNL d   1      30.403  15.648 -25.076  0.00  0.00    -0.270 OA
ENDROOT
BRANCH   1   4
ATOM      4  C   UNL d   1      29.674  16.841 -24.453  0.00  0.00     0.113 A 
ATOM      5  C   UNL d   1      28.661  17.812 -24.317  0.00  0.00     0.025 A 
ATOM      6  C   UNL d   1      29.135  17.216 -24.240  0.00  0.00     0.074 A 
ATOM      7  C   UNL d   1      28.457  18.485 -24.760  0.00  0.00     0.002 C 
ATOM      8  C   UNL d   1      28.034  17.974 -23.799  0.00  0.00     0.002 C 
ATOM      9  C   UNL d   1      28.551  17.263 -23.656  0.00  0.00     0.012 C 
ATOM     10  C   UNL d   1      29.644  17.176 -24.751  0.00  0.00    -0.023 A 
ATOM     11  C   UNL d   1      29.171  16.593 -23.665  0.00  0.00     0.172 A 
ATOM     12  C   UNL d   1      30.192  16.894 -25.064  0.00  0.00    -0.018 A 
ATOM     13  C   UNL d   1      29.672  16.307 -23.925  0.00  0.00     0.024 A 
ATOM     14  O   UNL d   1      28.710  16.422 -22.998  0.00  0.00    -0.291 OA
ENDBRANCH   1   4
BRANCH   2  15
ATOM     15  C   UNL d   1      31.737  16.475 -24.565  0.00  0.00     0.100 A 
ATOM     16  C   UNL d   1      32.397  16.892 -24.300  0.00  0.00     0.082 A 
ATOM     17  C   UNL d   1      33.147  16.583 -24.437  0.00  0.00     0.019 A 
ATOM     18  C   UNL d   1      33.241  15.860 -24.837  0.00  0.00     0.002 A 
ATOM     19  C   UNL d   1      32.571  15.453 -25.097  0.00  0.00     0.002 A 
ATOM     20  C   UNL d   1      31.822  15.759 -24.962  0.00  0.00     0.021 A 
BRANCH  16  21
ATOM     21  N   UNL d   1      32.302  17.610 -23.903  0.00  0.00    -0.302 N 
ATOM     22  C   UNL d   1      32.275  17.704 -23.084  0.00  0.00     0.080 A 
ATOM     23  C   UNL d   1      32.174  18.513 -22.922  0.00  0.00     0.021 A 
ATOM     24  C   UNL d   1      32.141  18.911 -23.647  0.00  0.00     0.021 A 
ATOM     25  C   UNL d   1      32.220  18.354 -24.255  0.00  0.00     0.080 A 
ENDBRANCH  16  21
ENDBRANCH   2  15
TORSDOF 3
ENDMDL
MODEL 2
REMARK VINA RESULT:      -1.5      1.107      1.940
REMARK  3 active torsions:
REMARK  status: ('A' for Active; 'I' for Inactive)
REMARK    1  A    between atoms: C_4  and  C_1 
REMARK       I    between atoms: N_7  and  C_4 
REMARK    2  A    between atoms: C_9  and  N_7 
REMARK    3  A    between atoms: N_8  and  C_11 
ROOT
ATOM      1  C   UNL d   1      30.066  17.819 -24.675  0.00  0.00     0.263 C 
ATOM      2  N   UNL d   1      30.783  17.450 -24.517  0.00  0.00    -0.210 NA
ATOM      3  O   UNL d   1      30.045  18.606 -24.930  0.00  0.00    -0.270 OA
ENDROOT
BRANCH   1   4
ATOM      4  C   UNL d   1      29.495  17.238 -24.518  0.00  0.00     0.113 A 
ATOM      5  C   UNL d   1      28.645  16.113 -24.513  0.00  0.00     0.025 A 
ATOM      6  C   UNL d   1      29.012  16.768 -24.366  0.00  0.00     0.074 A 
ATOM      7  C   UNL d   1      28.575  15.453 -25.012  0.00  0.00     0.002 C 
ATOM      8  C   UNL d   1      28.026  15.817 -24.048  0.00  0.00     0.002 C 
ATOM      9  C   UNL d   1      28.413  16.587 -23.825  0.00  0.00     0.012 C 
ATOM     10  C   UNL d   1      29.535  16.926 -24.839  0.00  0.00    -0.023 A 
ATOM     11  C   UNL d   1      28.917  17.344 -23.749  0.00  0.00     0.172 A 
ATOM     12  C   UNL d   1      30.046  17.313 -25.097  0.00  0.00    -0.018 A 
ATOM     13  C   UNL d   1      29.380  17.723 -23.957  0.00  0.00     0.024 A 
ATOM     14  O   UNL d   1      28.400  17.390 -23.103  0.00  0.00    -0.291 OA
ENDBRANCH   1   4
BRANCH   2  15
ATOM     15  C   UNL d   1      31.492  17.875 -24.615  0.00  0.00     0.100 A 
ATOM     16  C   UNL d   1      32.201  17.535 -24.368  0.00  0.00     0.082 A 
ATOM     17  C   UNL d   1      32.901  17.955 -24.465  0.00  0.00     0.019 A 
ATOM     18  C   UNL d   1      32.897  18.712 -24.809  0.00  0.00     0.002 A 
ATOM     19  C   UNL d   1      32.180  19.040 -25.053  0.00  0.00     0.002 A 
ATOM     20  C   UNL d   1      31.479  18.624 -24.956  0.00  0.00     0.021 A 
BRANCH  16  21
ATOM     21  N   UNL d   1      32.204  16.783 -24.026  0.00  0.00    -0.302 N 
ATOM     22  C   UNL d   1      32.173  16.624 -23.218  0.00  0.00     0.080 A 
ATOM     23  C   UNL d   1      32.189  15.798 -23.118  0.00  0.00     0.021 A 
ATOM     24  C   UNL d   1      32.230  15.456 -23.870  0.00  0.00     0.021 A 
ATOM     25  C   UNL d   1      32.240  16.064 -24.433  0.00  0.00     0.080 A 
ENDBRANCH  16  21
ENDBRANCH   2  15
TORSDOF 3
ENDMDL
MODEL 3
REMARK VINA RESULT:       0.4      1.307      3.733
REMARK  3 active torsions:
REMARK  status: ('A' for Active; 'I' for Inactive)
REMARK    1  A    between atoms: C_4  and  C_1 
REMARK       I    between atoms: N_7  and  C_4 
REMARK    2  A    between atoms: C_9  and  N_7 
REMARK    3  A    between atoms: N_8  and  C_11 
ROOT
ATOM      1  C   UNL d   1      31.218  17.881 -24.411  0.00  0.00     0.263 C 
ATOM      2  N   UNL d   1      30.503  17.482 -24.336  0.00  0.00    -0.210 NA
ATOM      3  O   UNL d   1      31.235  18.669 -24.660  0.00  0.00    -0.270 OA
ENDROOT
BRANCH   1   4
ATOM      4  C   UNL d   1      31.790  17.322 -24.191  0.00  0.00     0.113 A 
ATOM      5  C   UNL d   1      32.729  16.273 -24.117  0.00  0.00     0.025 A 
ATOM      6  C   UNL d   1      32.267  16.868 -23.983  0.00  0.00     0.074 A 
ATOM      7  C   UNL d   1      32.995  15.711 -24.668  0.00  0.00     0.002 C 
ATOM      8  C   UNL d   1      33.239  15.947 -23.551  0.00  0.00     0.002 C 
ATOM      9  C   UNL d   1      32.726  16.641 -23.333  0.00  0.00     0.012 C 
ATOM     10  C   UNL d   1      31.868  17.065 -24.551  0.00  0.00    -0.023 A 
ATOM     11  C   UNL d   1      32.139  17.339 -23.289  0.00  0.00     0.172 A 
ATOM     12  C   UNL d   1      31.399  17.454 -24.879  0.00  0.00    -0.018 A 
ATOM     13  C   UNL d   1      31.706  17.715 -23.556  0.00  0.00     0.024 A 
ATOM     14  O   UNL d   1      32.468  17.313 -22.528  0.00  0.00    -0.291 OA
ENDBRANCH   1   4
BRANCH   2  15
ATOM     15  C   UNL d   1      29.794  17.878 -24.514  0.00  0.00     0.100 A 
ATOM     16  C   UNL d   1      29.076  17.532 -24.300  0.00  0.00     0.082 A 
ATOM     17  C   UNL d   1      28.375  17.924 -24.476  0.00  0.00     0.019 A 
ATOM     18  C   UNL d   1      28.386  18.659 -24.864  0.00  0.00     0.002 A 
ATOM     19  C   UNL d   1      29.111  18.994 -25.072  0.00  0.00     0.002 A 
ATOM     20  C   UNL d   1      29.813  18.606 -24.898  0.00  0.00     0.021 A 
BRANCH  16  21
ATOM     21  N   UNL d   1      29.066  16.801 -23.915  0.00  0.00    -0.302 N 
ATOM     22  C   UNL d   1      29.071  16.691 -23.098  0.00  0.00     0.080 A 
ATOM     23  C   UNL d   1      29.057  15.873 -22.949  0.00  0.00     0.021 A 
ATOM     24  C   UNL d   1      29.043  15.486 -23.680  0.00  0.00     0.021 A 
ATOM     25  C   UNL d   1      29.048  16.059 -24.279  0.00  0.00     0.080 A 
ENDBRANCH  16  21
ENDBRANCH   2  15
TORSDOF 3
ENDMDL
MODEL 4
REMARK VINA RESULT:       0.9      1.224      3.554
REMARK  3 active torsions:
REMARK  status: ('A' for Active; 'I' for Inactive)
REMARK    1  A    between atoms: C_4  and  C_1 
REMARK       I    between atoms: N_7  and  C_4 
REMARK    2  A    between atoms: C_9  and  N_7 
REMARK    3  A    between atoms: N_8  and  C_11 
ROOT
ATOM      1  C   UNL d   1      31.106  16.371 -23.160  0.00  0.00     0.263 C 
ATOM      2  N   UNL d   1      30.380  16.558 -23.498  0.00  0.00    -0.210 NA
ATOM      3  O   UNL d   1      31.142  15.931 -22.461  0.00  0.00    -0.270 OA
ENDROOT
BRANCH   1   4
ATOM      4  C   UNL d   1      31.665  16.711 -23.670  0.00  0.00     0.113 A 
ATOM      5  C   UNL d   1      32.566  17.548 -24.359  0.00  0.00     0.025 A 
ATOM      6  C   UNL d   1      32.133  16.970 -24.107  0.00  0.00     0.074 A 
ATOM      7  C   UNL d   1      32.788  18.343 -24.263  0.00  0.00     0.002 C 
ATOM      8  C   UNL d   1      33.086  17.490 -25.002  0.00  0.00     0.002 C 
ATOM      9  C   UNL d   1      32.608  16.780 -24.757  0.00  0.00     0.012 C 
ATOM     10  C   UNL d   1      31.718  17.138 -23.540  0.00  0.00    -0.023 A 
ATOM     11  C   UNL d   1      32.050  16.168 -24.372  0.00  0.00     0.172 A 
ATOM     12  C   UNL d   1      31.252  17.003 -23.047  0.00  0.00    -0.018 A 
ATOM     13  C   UNL d   1      31.621  16.010 -23.935  0.00  0.00     0.024 A 
ATOM     14  O   UNL d   1      32.408  15.744 -24.988  0.00  0.00    -0.291 OA
ENDBRANCH   1   4
BRANCH   2  15
ATOM     15  C   UNL d   1      29.680  16.302 -23.130  0.00  0.00     0.100 A 
ATOM     16  C   UNL d   1      28.964  16.651 -23.344  0.00  0.00     0.082 A 
ATOM     17  C   UNL d   1      28.271  16.397 -22.979  0.00  0.00     0.019 A 
ATOM     18  C   UNL d   1      28.290  15.798 -22.403  0.00  0.00     0.002 A 
ATOM     19  C   UNL d   1      29.014  15.458 -22.198  0.00  0.00     0.002 A 
ATOM     20  C   UNL d   1      29.707  15.709 -22.560  0.00  0.00     0.021 A 
BRANCH  16  21
ATOM     21  N   UNL d   1      28.945  17.246 -23.916  0.00  0.00    -0.302 N 
ATOM     22  C   UNL d   1      28.840  18.050 -23.767  0.00  0.00     0.080 A 
ATOM     23  C   UNL d   1      28.858  18.450 -24.497  0.00  0.00     0.021 A 
ATOM     24  C   UNL d   1      28.975  17.885 -25.089  0.00  0.00     0.021 A 
ATOM     25  C   UNL d   1      29.029  17.139 -24.732  0.00  0.00     0.080 A 
ENDBRANCH  16  21
ENDBRANCH   2  15
TORSDOF 3
ENDMDL
