MODEL 1
REMARK VINA RESULT:      -7.7      0.000      0.000
REMARK  4 active torsions:
REMARK  status: ('A' for Active; 'I' for Inactive)
REMARK    1  A    between atoms: C_6  and  N_1 
REMARK    2  A    between atoms: C_9  and  C_2 
REMARK    3  A    between atoms: O_14  and  C_10 
REMARK    4  A    between atoms: C_15  and  O_14 
ROOT
ATOM      1  C   UNL d   1      53.510  33.552  54.099  0.00  0.00     0.086 A 
ATOM      2  C   UNL d   1      53.782  33.289  53.368  0.00  0.00     0.021 A 
ATOM      3  C   UNL d   1      53.401  33.018  54.714  0.00  0.00     0.021 A 
ATOM      4  C   UNL d   1      53.838  31.952  53.865  0.00  0.00     0.100 A 
ATOM      5  C   UNL d   1      53.565  32.217  54.597  0.00  0.00     0.026 A 
ATOM      6  C   UNL d   1      53.946  32.489  53.251  0.00  0.00     0.026 A 
ENDROOT
BRANCH   1   7
ATOM      7  N   UNL d   1      53.347  34.352  54.217  0.00  0.00    -0.191 N 
ATOM      8  C   UNL d   1      52.705  34.767  53.913  0.00  0.00     0.200 A 
ATOM      9  N   UNL d   1      52.758  35.553  54.168  0.00  0.00    -0.107 NA
ATOM     10  N   UNL d   1      53.426  35.623  54.626  0.00  0.00    -0.022 NA
ATOM     11  N   UNL d   1      53.794  34.881  54.659  0.00  0.00    -0.039 NA
BRANCH   8  12
ATOM     12  C   UNL d   1      52.102  34.457  53.429  0.00  0.00     0.109 C 
ATOM     13 CL   UNL d   1      51.395  34.788  53.147  0.00  0.00    -0.078 Cl
ENDBRANCH   8  12
ENDBRANCH   1   7
BRANCH   4  14
ATOM     14  O   UNL d   1      54.000  31.156  53.748  0.00  0.00    -0.305 OA
BRANCH  14  15
ATOM     15  C   UNL d   1      53.392  30.633  53.559  0.00  0.00     0.123 C 
ATOM     16  C   UNL d   1      53.540  29.817  53.524  0.00  0.00     0.029 C 
ENDBRANCH  14  15
ENDBRANCH   4  14
TORSDOF 4
ENDMDL
MODEL 2
REMARK VINA RESULT:      -7.4      2.036      3.215
REMARK  4 active torsions:
REMARK  status: ('A' for Active; 'I' for Inactive)
REMARK    1  A    between atoms: C_6  and  N_1 
REMARK    2  A    between atoms: C_9  and  C_2 
REMARK    3  A    between atoms: O_14  and  C_10 
REMARK    4  A    between atoms: C_15  and  O_14 
ROOT
ATOM      1  C   UNL d   1      52.817  34.039  53.877  0.00  0.00     0.086 A 
ATOM      2  C   UNL d   1      52.223  33.472  53.922  0.00  0.00     0.021 A 
ATOM      3  C   UNL d   1      52.763  34.651  53.332  0.00  0.00     0.021 A 
ATOM      4  C   UNL d   1      51.511  34.128  52.873  0.00  0.00     0.100 A 
ATOM      5  C   UNL d   1      52.109  34.696  52.830  0.00  0.00     0.026 A 
ATOM      6  C   UNL d   1      51.570  33.516  53.420  0.00  0.00     0.026 A 
ENDROOT
BRANCH   1   7
ATOM      7  N   UNL d   1      53.471  33.995  54.379  0.00  0.00    -0.191 N 
ATOM      8  C   UNL d   1      54.126  33.508  54.283  0.00  0.00     0.200 A 
ATOM      9  N   UNL d   1      54.646  33.643  54.914  0.00  0.00    -0.107 NA
ATOM     10  N   UNL d   1      54.315  34.207  55.394  0.00  0.00    -0.022 NA
ATOM     11  N   UNL d   1      53.586  34.429  55.068  0.00  0.00    -0.039 NA
BRANCH   8  12
ATOM     12  C   UNL d   1      54.253  32.968  53.661  0.00  0.00     0.109 C 
ATOM     13 CL   UNL d   1      54.922  32.533  53.434  0.00  0.00    -0.078 Cl
ENDBRANCH   8  12
ENDBRANCH   1   7
BRANCH   4  14
ATOM     14  O   UNL d   1      50.861  34.172  52.373  0.00  0.00    -0.305 OA
BRANCH  14  15
ATOM     15  C   UNL d   1      50.144  34.466  52.653  0.00  0.00     0.123 C 
ATOM     16  C   UNL d   1      49.503  34.561  52.135  0.00  0.00     0.029 C 
ENDBRANCH  14  15
ENDBRANCH   4  14
TORSDOF 4
ENDMDL
