MODEL 1
REMARK VINA RESULT:     -10.0      0.000      0.000
REMARK  5 active torsions:
REMARK  status: ('A' for Active; 'I' for Inactive)
REMARK    1  A    between atoms: N_3  and  S_1 
REMARK    2  A    between atoms: C_11  and  S_1 
REMARK    3  A    between atoms: C_9  and  C_2 
REMARK    4  A    between atoms: C_4  and  N_7 
REMARK       I    between atoms: N_7  and  C_10 
REMARK    5  A    between atoms: C_10  and  C_14 
ROOT
ATOM      1  C   UNL d   1      52.085  34.267  53.607  0.00  0.00     0.104 A 
ATOM      2  C   UNL d   1      53.530  33.979  54.367  0.00  0.00     0.058 A 
ATOM      3  C   UNL d   1      52.104  33.886  54.325  0.00  0.00     0.013 A 
ATOM      4  C   UNL d   1      52.804  34.507  53.267  0.00  0.00     0.013 A 
ATOM      5  C   UNL d   1      52.819  33.739  54.709  0.00  0.00     0.005 A 
ATOM      6  C   UNL d   1      53.519  34.360  53.650  0.00  0.00     0.005 A 
ENDROOT
BRANCH   2   7
ATOM      7  C   UNL d   1      54.266  33.832  54.754  0.00  0.00     0.282 C 
ATOM      8  N   UNL d   1      54.698  33.147  54.584  0.00  0.00    -0.165 NA
ATOM      9  O   UNL d   1      54.541  34.369  55.292  0.00  0.00    -0.265 OA
BRANCH   8  10
ATOM     10  C   UNL d   1      54.417  32.613  54.044  0.00  0.00     0.297 A 
ATOM     11  O   UNL d   1      54.101  31.887  54.304  0.00  0.00    -0.253 OA
ATOM     12  C   UNL d   1      53.867  31.476  53.634  0.00  0.00     0.207 A 
ATOM     13  N   UNL d   1      54.032  31.934  52.982  0.00  0.00    -0.119 NA
ATOM     14  N   UNL d   1      54.373  32.640  53.230  0.00  0.00    -0.101 NA
BRANCH  12  15
ATOM     15  C   UNL d   1      53.525  30.722  53.694  0.00  0.00     0.054 A 
ATOM     16  C   UNL d   1      52.993  30.479  53.117  0.00  0.00     0.061 A 
ATOM     17 CL   UNL d   1      52.803  30.981  52.489  0.00  0.00    -0.082 Cl
ATOM     18  C   UNL d   1      52.651  29.729  53.174  0.00  0.00     0.011 A 
ATOM     19  C   UNL d   1      52.836  29.221  53.800  0.00  0.00     0.001 A 
ATOM     20  C   UNL d   1      53.363  29.461  54.372  0.00  0.00     0.000 A 
ATOM     21  C   UNL d   1      53.709  30.210  54.322  0.00  0.00     0.004 A 
ENDBRANCH  12  15
ENDBRANCH   8  10
ENDBRANCH   2   7
BRANCH   1  22
ATOM     22  S   UNL d   1      51.355  34.410  53.229  0.00  0.00     0.271 S 
ATOM     23  O   UNL d   1      51.609  35.164  52.999  0.00  0.00    -0.200 OA
ATOM     24  O   UNL d   1      51.103  33.658  53.459  0.00  0.00    -0.200 OA
BRANCH  22  25
ATOM     25  N   UNL d   1      50.631  34.528  52.864  0.00  0.00    -0.231 N 
ATOM     26  C   UNL d   1      50.539  34.300  52.071  0.00  0.00     0.075 A 
ATOM     27  C   UNL d   1      51.166  33.961  51.661  0.00  0.00     0.020 C 
ATOM     28  C   UNL d   1      49.814  34.415  51.694  0.00  0.00     0.018 A 
ATOM     29  C   UNL d   1      49.187  34.754  52.104  0.00  0.00     0.003 A 
ATOM     30  C   UNL d   1      49.284  34.979  52.891  0.00  0.00     0.020 A 
ATOM     31  C   UNL d   1      50.010  34.864  53.268  0.00  0.00     0.092 A 
ENDBRANCH  22  25
ENDBRANCH   1  22
TORSDOF 5
ENDMDL
MODEL 2
REMARK VINA RESULT:      -8.7      1.574      4.255
REMARK  5 active torsions:
REMARK  status: ('A' for Active; 'I' for Inactive)
REMARK    1  A    between atoms: N_3  and  S_1 
REMARK    2  A    between atoms: C_11  and  S_1 
REMARK    3  A    between atoms: C_9  and  C_2 
REMARK    4  A    between atoms: C_4  and  N_7 
REMARK       I    between atoms: N_7  and  C_10 
REMARK    5  A    between atoms: C_10  and  C_14 
ROOT
ATOM      1  C   UNL d   1      53.942  31.726  54.250  0.00  0.00     0.104 A 
ATOM      2  C   UNL d   1      54.453  33.280  54.516  0.00  0.00     0.058 A 
ATOM      3  C   UNL d   1      53.832  32.077  54.975  0.00  0.00     0.013 A 
ATOM      4  C   UNL d   1      54.314  32.164  53.650  0.00  0.00     0.013 A 
ATOM      5  C   UNL d   1      54.084  32.850  55.115  0.00  0.00     0.005 A 
ATOM      6  C   UNL d   1      54.565  32.936  53.790  0.00  0.00     0.005 A 
ENDROOT
BRANCH   2   7
ATOM      7  C   UNL d   1      54.713  34.072  54.652  0.00  0.00     0.282 C 
ATOM      8  N   UNL d   1      54.175  34.700  54.623  0.00  0.00    -0.165 NA
ATOM      9  O   UNL d   1      55.494  34.207  54.811  0.00  0.00    -0.265 OA
BRANCH   8  10
ATOM     10  C   UNL d   1      53.394  34.557  54.464  0.00  0.00     0.297 A 
ATOM     11  O   UNL d   1      53.124  34.557  53.676  0.00  0.00    -0.253 OA
ATOM     12  C   UNL d   1      52.320  34.397  53.698  0.00  0.00     0.207 A 
ATOM     13  N   UNL d   1      52.100  34.301  54.476  0.00  0.00    -0.119 NA
ATOM     14  N   UNL d   1      52.762  34.399  54.956  0.00  0.00    -0.101 NA
BRANCH  12  15
ATOM     15  C   UNL d   1      51.873  34.357  53.001  0.00  0.00     0.054 A 
ATOM     16  C   UNL d   1      51.125  34.017  53.027  0.00  0.00     0.061 A 
ATOM     17 CL   UNL d   1      50.826  33.723  53.738  0.00  0.00    -0.082 Cl
ATOM     18  C   UNL d   1      50.678  33.976  52.333  0.00  0.00     0.011 A 
ATOM     19  C   UNL d   1      50.969  34.268  51.617  0.00  0.00     0.001 A 
ATOM     20  C   UNL d   1      51.710  34.604  51.591  0.00  0.00     0.000 A 
ATOM     21  C   UNL d   1      52.164  34.650  52.281  0.00  0.00     0.004 A 
ENDBRANCH  12  15
ENDBRANCH   8  10
ENDBRANCH   2   7
BRANCH   1  22
ATOM     22  S   UNL d   1      53.683  30.944  54.121  0.00  0.00     0.271 S 
ATOM     23  O   UNL d   1      54.135  30.896  53.429  0.00  0.00    -0.200 OA
ATOM     24  O   UNL d   1      53.233  30.992  54.812  0.00  0.00    -0.200 OA
BRANCH  22  25
ATOM     25  N   UNL d   1      53.415  30.176  54.014  0.00  0.00    -0.231 N 
ATOM     26  C   UNL d   1      52.870  30.022  53.408  0.00  0.00     0.075 A 
ATOM     27  C   UNL d   1      52.604  30.631  52.924  0.00  0.00     0.020 C 
ATOM     28  C   UNL d   1      52.594  29.253  53.292  0.00  0.00     0.018 A 
ATOM     29  C   UNL d   1      52.861  28.643  53.776  0.00  0.00     0.003 A 
ATOM     30  C   UNL d   1      53.402  28.803  54.376  0.00  0.00     0.020 A 
ATOM     31  C   UNL d   1      53.678  29.572  54.492  0.00  0.00     0.092 A 
ENDBRANCH  22  25
ENDBRANCH   1  22
TORSDOF 5
ENDMDL
MODEL 3
REMARK VINA RESULT:      -7.3      1.577      4.597
REMARK  5 active torsions:
REMARK  status: ('A' for Active; 'I' for Inactive)
REMARK    1  A    between atoms: N_3  and  S_1 
REMARK    2  A    between atoms: C_11  and  S_1 
REMARK    3  A    between atoms: C_9  and  C_2 
REMARK    4  A    between atoms: C_4  and  N_7 
REMARK       I    between atoms: N_7  and  C_10 
REMARK    5  A    between atoms: C_10  and  C_14 
ROOT
ATOM      1  C   UNL d   1      53.233  32.510  53.630  0.00  0.00     0.104 A 
ATOM      2  C   UNL d   1      53.094  34.157  53.770  0.00  0.00     0.058 A 
ATOM      3  C   UNL d   1      53.081  32.851  54.353  0.00  0.00     0.013 A 
ATOM      4  C   UNL d   1      53.316  33.006  52.968  0.00  0.00     0.013 A 
ATOM      5  C   UNL d   1      53.011  33.669  54.430  0.00  0.00     0.005 A 
ATOM      6  C   UNL d   1      53.245  33.824  53.046  0.00  0.00     0.005 A 
ENDROOT
BRANCH   2   7
ATOM      7  C   UNL d   1      53.023  34.995  53.843  0.00  0.00     0.282 C 
ATOM      8  N   UNL d   1      52.287  35.362  53.749  0.00  0.00    -0.165 NA
ATOM      9  O   UNL d   1      53.683  35.432  54.004  0.00  0.00    -0.265 OA
BRANCH   8  10
ATOM     10  C   UNL d   1      51.630  34.917  53.588  0.00  0.00     0.297 A 
ATOM     11  O   UNL d   1      51.178  35.076  52.907  0.00  0.00    -0.253 OA
ATOM     12  C   UNL d   1      50.559  34.539  52.900  0.00  0.00     0.207 A 
ATOM     13  N   UNL d   1      50.626  34.062  53.557  0.00  0.00    -0.119 NA
ATOM     14  N   UNL d   1      51.289  34.292  53.987  0.00  0.00    -0.101 NA
BRANCH  12  15
ATOM     15  C   UNL d   1      49.996  34.543  52.291  0.00  0.00     0.054 A 
ATOM     16  C   UNL d   1      49.261  34.885  52.429  0.00  0.00     0.061 A 
ATOM     17 CL   UNL d   1      49.090  35.217  53.165  0.00  0.00    -0.082 Cl
ATOM     18  C   UNL d   1      48.700  34.890  51.823  0.00  0.00     0.011 A 
ATOM     19  C   UNL d   1      48.863  34.559  51.084  0.00  0.00     0.001 A 
ATOM     20  C   UNL d   1      49.591  34.221  50.946  0.00  0.00     0.000 A 
ATOM     21  C   UNL d   1      50.159  34.211  51.547  0.00  0.00     0.004 A 
ENDBRANCH  12  15
ENDBRANCH   8  10
ENDBRANCH   2   7
BRANCH   1  22
ATOM     22  S   UNL d   1      53.302  31.682  53.565  0.00  0.00     0.271 S 
ATOM     23  O   UNL d   1      53.115  31.719  52.759  0.00  0.00    -0.200 OA
ATOM     24  O   UNL d   1      53.488  31.646  54.368  0.00  0.00    -0.200 OA
BRANCH  22  25
ATOM     25  N   UNL d   1      53.375  30.866  53.524  0.00  0.00    -0.231 N 
ATOM     26  C   UNL d   1      52.697  30.409  53.385  0.00  0.00     0.075 A 
ATOM     27  C   UNL d   1      51.964  30.771  53.290  0.00  0.00     0.020 C 
ATOM     28  C   UNL d   1      52.759  29.587  53.341  0.00  0.00     0.018 A 
ATOM     29  C   UNL d   1      53.492  29.226  53.436  0.00  0.00     0.003 A 
ATOM     30  C   UNL d   1      54.162  29.685  53.573  0.00  0.00     0.020 A 
ATOM     31  C   UNL d   1      54.100  30.507  53.617  0.00  0.00     0.092 A 
ENDBRANCH  22  25
ENDBRANCH   1  22
TORSDOF 5
ENDMDL
