MODEL 1
REMARK VINA RESULT:      17.2      0.000      0.000
REMARK  0 active torsions:
REMARK  status: ('A' for Active; 'I' for Inactive)
ROOT
ATOM      1  C   UNL d   1      59.856  49.706  51.589  0.00  0.00     0.063 A 
ATOM      2  N   UNL d   1      61.168  49.707  51.361  0.00  0.00    -0.204 NA
ATOM      3  C   UNL d   1      60.424  49.706  51.000  0.00  0.00     0.099 A 
ATOM      4  C   UNL d   1      61.051  49.707  52.148  0.00  0.00     0.318 A 
ATOM      5  C   UNL d   1      60.244  49.706  52.319  0.00  0.00     0.254 A 
ATOM      6  C   UNL d   1      60.207  49.706  50.220  0.00  0.00     0.076 A 
ATOM      7  C   UNL d   1      59.403  49.705  50.014  0.00  0.00     0.024 A 
ATOM      8  C   UNL d   1      59.070  49.705  51.398  0.00  0.00     0.016 A 
ATOM      9  O   UNL d   1      61.672  49.708  52.704  0.00  0.00    -0.262 OA
ATOM     10  C   UNL d   1      58.835  49.705  50.602  0.00  0.00     0.059 A 
ATOM     11  O   UNL d   1      59.884  49.706  53.060  0.00  0.00    -0.281 OA
ATOM     12 CL   UNL d   1      60.783  49.706  49.624  0.00  0.00    -0.081 Cl
ATOM     13 CL   UNL d   1      58.008  49.704  50.398  0.00  0.00    -0.082 Cl
ENDROOT
TORSDOF 0
ENDMDL
MODEL 2
REMARK VINA RESULT:      17.8      1.726      2.429
REMARK  0 active torsions:
REMARK  status: ('A' for Active; 'I' for Inactive)
ROOT
ATOM      1  C   UNL d   1      59.288  49.692  51.156  0.00  0.00     0.063 A 
ATOM      2  N   UNL d   1      59.073  49.675  49.842  0.00  0.00    -0.204 NA
ATOM      3  C   UNL d   1      59.658  49.680  50.426  0.00  0.00     0.099 A 
ATOM      4  C   UNL d   1      58.368  49.684  50.211  0.00  0.00     0.318 A 
ATOM      5  C   UNL d   1      58.471  49.695  51.029  0.00  0.00     0.254 A 
ATOM      6  C   UNL d   1      60.466  49.675  50.376  0.00  0.00     0.076 A 
ATOM      7  C   UNL d   1      60.925  49.682  51.068  0.00  0.00     0.024 A 
ATOM      8  C   UNL d   1      59.726  49.699  51.836  0.00  0.00     0.016 A 
ATOM      9  O   UNL d   1      57.639  49.683  49.806  0.00  0.00    -0.262 OA
ATOM     10  C   UNL d   1      60.555  49.694  51.798  0.00  0.00     0.059 A 
ATOM     11  O   UNL d   1      57.889  49.706  51.612  0.00  0.00    -0.281 OA
ATOM     12 CL   UNL d   1      60.841  49.663  49.637  0.00  0.00    -0.081 Cl
ATOM     13 CL   UNL d   1      61.019  49.701  52.512  0.00  0.00    -0.082 Cl
ENDROOT
TORSDOF 0
ENDMDL
