MODEL 1
REMARK VINA RESULT:      34.1      0.000      0.000
REMARK  7 active torsions:
REMARK  status: ('A' for Active; 'I' for Inactive)
REMARK    1  A    between atoms: C_2  and  S_1 
REMARK    2  A    between atoms: N_3  and  S_1 
REMARK    3  A    between atoms: C_18  and  N_3 
REMARK    4  A    between atoms: C_6  and  C_21 
REMARK       I    between atoms: N_7  and  C_6 
REMARK    5  A    between atoms: C_12  and  N_7 
REMARK    6  A    between atoms: C_22  and  C_18 
REMARK    7  A    between atoms: C_21  and  C_22 
ROOT
ATOM      1  N   UNL d   1      13.269  12.399  -3.819  0.00  0.00    -0.228 N 
ATOM      2  C   UNL d   1      13.300  11.805  -4.374  0.00  0.00     0.111 C 
ENDROOT
BRANCH   1   3
ATOM      3  S   UNL d   1      13.551  12.271  -3.056  0.00  0.00     0.271 S 
ATOM      4  O   UNL d   1      14.178  12.747  -3.226  0.00  0.00    -0.200 OA
ATOM      5  O   UNL d   1      12.904  11.779  -2.879  0.00  0.00    -0.200 OA
BRANCH   3   6
ATOM      6  C   UNL d   1      13.837  12.149  -2.303  0.00  0.00     0.104 A 
ATOM      7  C   UNL d   1      13.319  12.031  -1.679  0.00  0.00     0.013 A 
ATOM      8  C   UNL d   1      13.602  11.906  -0.907  0.00  0.00     0.001 A 
ATOM      9  C   UNL d   1      14.413  11.901  -0.770  0.00  0.00     0.000 A 
ATOM     10  C   UNL d   1      14.941  12.019  -1.388  0.00  0.00     0.001 A 
ATOM     11  C   UNL d   1      14.697  11.779  -0.014  0.00  0.00     0.000 C 
ATOM     12  C   UNL d   1      14.658  12.143  -2.157  0.00  0.00     0.013 A 
ENDBRANCH   3   6
ENDBRANCH   1   3
BRANCH   1  13
ATOM     13  C   UNL d   1      12.952  13.137  -4.016  0.00  0.00     0.092 C 
BRANCH  13  14
ATOM     14  C   UNL d   1      13.208  13.520  -4.702  0.00  0.00     0.025 C 
BRANCH  14  15
ATOM     15  C   UNL d   1      13.056  14.324  -4.803  0.00  0.00     0.064 C 
BRANCH  15  16
ATOM     16  C   UNL d   1      13.662  14.875  -4.701  0.00  0.00     0.279 C 
ATOM     17  N   UNL d   1      13.683  15.349  -4.023  0.00  0.00    -0.208 NA
ATOM     18  O   UNL d   1      14.248  14.955  -5.277  0.00  0.00    -0.265 OA
BRANCH  17  19
ATOM     19  C   UNL d   1      14.289  15.899  -3.921  0.00  0.00     0.088 A 
ATOM     20  C   UNL d   1      14.698  16.185  -4.574  0.00  0.00     0.040 A 
ATOM     21  C   UNL d   1      15.304  16.736  -4.478  0.00  0.00     0.101 A 
ATOM     22  N   UNL d   1      15.501  17.001  -3.719  0.00  0.00    -0.242 NA
ATOM     23  C   UNL d   1      15.090  16.714  -3.062  0.00  0.00     0.101 A 
ATOM     24  C   UNL d   1      14.484  16.164  -3.164  0.00  0.00     0.040 A 
ENDBRANCH  17  19
ENDBRANCH  15  16
ENDBRANCH  14  15
ENDBRANCH  13  14
ENDBRANCH   1  13
TORSDOF 7
ENDMDL
