MODEL 1
REMARK VINA RESULT:      63.7      0.000      0.000
REMARK  4 active torsions:
REMARK  status: ('A' for Active; 'I' for Inactive)
REMARK    1  A    between atoms: N_5  and  C_1 
REMARK    2  A    between atoms: N_8  and  C_3 
REMARK    3  A    between atoms: C_19  and  N_8 
REMARK    4  A    between atoms: C_21  and  C_19 
ROOT
ATOM      1  C   UNL d   1     -51.166  24.815  33.403  0.00  0.00     0.200 A 
ATOM      2  C   UNL d   1     -51.721  24.206  33.376  0.00  0.00     0.288 A 
ATOM      3  C   UNL d   1     -51.409  25.611  33.402  0.00  0.00     0.109 A 
ATOM      4  N   UNL d   1     -52.530  24.392  33.348  0.00  0.00    -0.270 N 
ATOM      5  C   UNL d   1     -52.221  25.788  33.374  0.00  0.00     0.036 A 
ATOM      6  C   UNL d   1     -52.779  25.178  33.347  0.00  0.00     0.069 A 
ATOM      7  O   UNL d   1     -51.473  23.420  33.377  0.00  0.00    -0.265 OA
ATOM      8  C   UNL d   1     -53.085  23.784  33.321  0.00  0.00     0.102 C 
ATOM      9  C   UNL d   1     -52.469  26.575  33.373  0.00  0.00     0.003 A 
ATOM     10  C   UNL d   1     -53.582  25.358  33.319  0.00  0.00     0.018 A 
ATOM     11  C   UNL d   1     -53.276  26.752  33.345  0.00  0.00     0.000 A 
ATOM     12  C   UNL d   1     -53.831  26.144  33.318  0.00  0.00     0.002 A 
ENDROOT
BRANCH   3  13
ATOM     13  N   UNL d   1     -50.855  26.219  33.429  0.00  0.00    -0.242 NA
BRANCH  13  14
ATOM     14  C   UNL d   1     -50.820  26.718  34.086  0.00  0.00     0.099 C 
BRANCH  14  15
ATOM     15  C   UNL d   1     -50.286  27.345  34.098  0.00  0.00     0.021 A 
ATOM     16  C   UNL d   1     -49.587  27.281  34.527  0.00  0.00     0.028 A 
ATOM     17  C   UNL d   1     -49.054  27.908  34.539  0.00  0.00     0.119 A 
ATOM     18  O   UNL d   1     -48.330  28.006  34.907  0.00  0.00    -0.300 OA
ATOM     19  C   UNL d   1     -49.221  28.600  34.122  0.00  0.00     0.119 A 
ATOM     20  C   UNL d   1     -48.042  28.755  34.723  0.00  0.00     0.304 A 
ATOM     21  O   UNL d   1     -48.598  29.121  34.235  0.00  0.00    -0.300 OA
ATOM     22  C   UNL d   1     -49.928  28.662  33.690  0.00  0.00     0.026 A 
ATOM     23  C   UNL d   1     -50.460  28.034  33.679  0.00  0.00     0.004 A 
ENDBRANCH  14  15
ENDBRANCH  13  14
ENDBRANCH   3  13
BRANCH   1  24
ATOM     24  N   UNL d   1     -50.356  24.638  33.431  0.00  0.00    -0.107 N 
ATOM     25  O   UNL d   1     -49.804  25.248  33.486  0.00  0.00    -0.531 OA
ATOM     26  O   UNL d   1     -50.100  23.851  33.405  0.00  0.00    -0.531 OA
ENDBRANCH   1  24
TORSDOF 4
ENDMDL
MODEL 2
REMARK VINA RESULT:      64.1      0.884      1.208
REMARK  4 active torsions:
REMARK  status: ('A' for Active; 'I' for Inactive)
REMARK    1  A    between atoms: N_5  and  C_1 
REMARK    2  A    between atoms: N_8  and  C_3 
REMARK    3  A    between atoms: C_19  and  N_8 
REMARK    4  A    between atoms: C_21  and  C_19 
ROOT
ATOM      1  C   UNL d   1     -49.966  25.215  33.518  0.00  0.00     0.200 A 
ATOM      2  C   UNL d   1     -50.470  24.567  33.448  0.00  0.00     0.288 A 
ATOM      3  C   UNL d   1     -50.270  25.991  33.519  0.00  0.00     0.109 A 
ATOM      4  N   UNL d   1     -51.288  24.691  33.378  0.00  0.00    -0.270 N 
ATOM      5  C   UNL d   1     -51.090  26.106  33.448  0.00  0.00     0.036 A 
ATOM      6  C   UNL d   1     -51.597  25.456  33.378  0.00  0.00     0.069 A 
ATOM      7  O   UNL d   1     -50.162  23.803  33.448  0.00  0.00    -0.265 OA
ATOM      8  C   UNL d   1     -51.792  24.044  33.308  0.00  0.00     0.102 C 
ATOM      9  C   UNL d   1     -51.398  26.871  33.448  0.00  0.00     0.003 A 
ATOM     10  C   UNL d   1     -52.409  25.574  33.308  0.00  0.00     0.018 A 
ATOM     11  C   UNL d   1     -52.213  26.987  33.378  0.00  0.00     0.000 A 
ATOM     12  C   UNL d   1     -52.717  26.339  33.308  0.00  0.00     0.002 A 
ENDROOT
BRANCH   3  13
ATOM     13  N   UNL d   1     -49.767  26.639  33.589  0.00  0.00    -0.242 NA
BRANCH  13  14
ATOM     14  C   UNL d   1     -49.486  26.866  34.330  0.00  0.00     0.099 C 
BRANCH  14  15
ATOM     15  C   UNL d   1     -49.169  27.619  34.438  0.00  0.00     0.021 A 
ATOM     16  C   UNL d   1     -48.615  27.749  35.031  0.00  0.00     0.028 A 
ATOM     17  C   UNL d   1     -48.297  28.502  35.138  0.00  0.00     0.119 A 
ATOM     18  O   UNL d   1     -47.749  28.796  35.669  0.00  0.00    -0.300 OA
ATOM     19  C   UNL d   1     -48.535  29.123  34.651  0.00  0.00     0.119 A 
ATOM     20  C   UNL d   1     -47.642  29.598  35.518  0.00  0.00     0.304 A 
ATOM     21  O   UNL d   1     -48.132  29.798  34.884  0.00  0.00    -0.300 OA
ATOM     22  C   UNL d   1     -49.095  28.988  34.052  0.00  0.00     0.026 A 
ATOM     23  C   UNL d   1     -49.411  28.235  33.946  0.00  0.00     0.004 A 
ENDBRANCH  14  15
ENDBRANCH  13  14
ENDBRANCH   3  13
BRANCH   1  24
ATOM     24  N   UNL d   1     -49.147  25.100  33.589  0.00  0.00    -0.107 N 
ATOM     25  O   UNL d   1     -48.658  25.738  33.769  0.00  0.00    -0.531 OA
ATOM     26  O   UNL d   1     -48.822  24.347  33.480  0.00  0.00    -0.531 OA
ENDBRANCH   1  24
TORSDOF 4
ENDMDL
MODEL 3
REMARK VINA RESULT:      66.3      1.758      4.817
REMARK  4 active torsions:
REMARK  status: ('A' for Active; 'I' for Inactive)
REMARK    1  A    between atoms: N_5  and  C_1 
REMARK    2  A    between atoms: N_8  and  C_3 
REMARK    3  A    between atoms: C_19  and  N_8 
REMARK    4  A    between atoms: C_21  and  C_19 
ROOT
ATOM      1  C   UNL d   1     -50.682  26.552  33.899  0.00  0.00     0.200 A 
ATOM      2  C   UNL d   1     -50.049  27.075  33.826  0.00  0.00     0.288 A 
ATOM      3  C   UNL d   1     -50.566  25.732  33.808  0.00  0.00     0.109 A 
ATOM      4  N   UNL d   1     -49.291  26.779  33.659  0.00  0.00    -0.270 N 
ATOM      5  C   UNL d   1     -49.805  25.445  33.642  0.00  0.00     0.036 A 
ATOM      6  C   UNL d   1     -49.170  25.969  33.568  0.00  0.00     0.069 A 
ATOM      7  O   UNL d   1     -50.171  27.885  33.917  0.00  0.00    -0.265 OA
ATOM      8  C   UNL d   1     -48.659  27.302  33.586  0.00  0.00     0.102 C 
ATOM      9  C   UNL d   1     -49.683  24.634  33.550  0.00  0.00     0.003 A 
ATOM     10  C   UNL d   1     -48.416  25.680  33.402  0.00  0.00     0.018 A 
ATOM     11  C   UNL d   1     -48.926  24.347  33.384  0.00  0.00     0.000 A 
ATOM     12  C   UNL d   1     -48.294  24.869  33.311  0.00  0.00     0.002 A 
ENDROOT
BRANCH   3  13
ATOM     13  N   UNL d   1     -51.198  25.208  33.882  0.00  0.00    -0.242 NA
BRANCH  13  14
ATOM     14  C   UNL d   1     -51.901  25.349  33.474  0.00  0.00     0.099 C 
BRANCH  14  15
ATOM     15  C   UNL d   1     -52.491  24.775  33.461  0.00  0.00     0.021 A 
ATOM     16  C   UNL d   1     -53.282  24.998  33.501  0.00  0.00     0.028 A 
ATOM     17  C   UNL d   1     -53.872  24.424  33.488  0.00  0.00     0.119 A 
ATOM     18  O   UNL d   1     -54.688  24.474  33.518  0.00  0.00    -0.300 OA
ATOM     19  C   UNL d   1     -53.671  23.626  33.436  0.00  0.00     0.119 A 
ATOM     20  C   UNL d   1     -54.999  23.713  33.486  0.00  0.00     0.304 A 
ATOM     21  O   UNL d   1     -54.364  23.188  33.434  0.00  0.00    -0.300 OA
ATOM     22  C   UNL d   1     -52.871  23.404  33.396  0.00  0.00     0.026 A 
ATOM     23  C   UNL d   1     -52.282  23.978  33.409  0.00  0.00     0.004 A 
ENDBRANCH  14  15
ENDBRANCH  13  14
ENDBRANCH   3  13
BRANCH   1  24
ATOM     24  N   UNL d   1     -51.442  26.839  34.066  0.00  0.00    -0.107 N 
ATOM     25  O   UNL d   1     -51.751  26.766  34.826  0.00  0.00    -0.531 OA
ATOM     26  O   UNL d   1     -51.891  27.198  33.471  0.00  0.00    -0.531 OA
ENDBRANCH   1  24
TORSDOF 4
ENDMDL
