MODEL 1
REMARK VINA RESULT:      36.0      0.000      0.000
REMARK  5 active torsions:
REMARK  status: ('A' for Active; 'I' for Inactive)
REMARK    1  A    between atoms: C_11  and  C_1 
REMARK    2  A    between atoms: C_2  and  N_5 
REMARK    3  A    between atoms: N_3  and  C_7 
REMARK       I    between atoms: N_5  and  C_6 
REMARK    4  A    between atoms: C_6  and  C_9 
REMARK    5  A    between atoms: C_16  and  C_8 
ROOT
ATOM      1  N   UNL d   1      46.242 -15.669  44.461  0.00  0.00    -0.183 NA
ATOM      2  C   UNL d   1      45.592 -15.081  44.538  0.00  0.00     0.281 C 
ATOM      3  O   UNL d   1      44.802 -15.349  44.605  0.00  0.00    -0.265 OA
ENDROOT
BRANCH   2   4
ATOM      4  C   UNL d   1      45.801 -14.230  44.541  0.00  0.00     0.065 A 
ATOM      5  C   UNL d   1      45.307 -13.733  44.104  0.00  0.00     0.091 A 
ATOM      6  C   UNL d   1      45.491 -12.918  44.095  0.00  0.00     0.133 A 
ATOM      7  C   UNL d   1      46.141 -12.624  44.509  0.00  0.00     0.024 A 
ATOM      8  C   UNL d   1      46.638 -13.132  44.949  0.00  0.00     0.002 A 
ATOM      9  C   UNL d   1      46.451 -13.936  44.954  0.00  0.00     0.005 A 
BRANCH   5  10
ATOM     10  C   UNL d   1      44.667 -14.022  43.697  0.00  0.00     0.213 C 
ATOM     11  O   UNL d   1      43.952 -14.206  44.091  0.00  0.00    -0.644 OA
ATOM     12  O   UNL d   1      44.791 -14.106  42.924  0.00  0.00    -0.644 OA
ENDBRANCH   5  10
BRANCH   6  13
ATOM     13  N   UNL d   1      45.028 -12.394  43.676  0.00  0.00    -0.114 N 
ATOM     14  O   UNL d   1      45.226 -12.081  42.939  0.00  0.00    -0.532 OA
ATOM     15  O   UNL d   1      44.308 -12.113  43.931  0.00  0.00    -0.532 OA
ENDBRANCH   6  13
ENDBRANCH   2   4
BRANCH   1  16
ATOM     16  C   UNL d   1      46.058 -16.473  44.458  0.00  0.00     0.197 A 
ATOM     17  N   UNL d   1      46.388 -16.942  43.910  0.00  0.00    -0.221 NA
ATOM     18  C   UNL d   1      46.113 -17.691  44.034  0.00  0.00     0.090 A 
ATOM     19  C   UNL d   1      45.651 -17.678  44.614  0.00  0.00     0.058 A 
ATOM     20  S   UNL d   1      45.550 -16.940  44.955  0.00  0.00    -0.046 SA
BRANCH  18  21
ATOM     21  C   UNL d   1      46.277 -18.387  43.627  0.00  0.00     0.018 A 
ATOM     22  C   UNL d   1      46.425 -19.080  44.055  0.00  0.00     0.002 A 
ATOM     23  C   UNL d   1      46.593 -19.794  43.651  0.00  0.00     0.000 A 
ATOM     24  C   UNL d   1      46.609 -19.797  42.818  0.00  0.00     0.000 A 
ATOM     25  C   UNL d   1      46.462 -19.111  42.400  0.00  0.00     0.000 A 
ATOM     26  C   UNL d   1      46.295 -18.398  42.803  0.00  0.00     0.002 A 
ENDBRANCH  18  21
ENDBRANCH   1  16
TORSDOF 5
ENDMDL
