MODEL 1
REMARK VINA RESULT:      -8.5      0.000      0.000
REMARK  5 active torsions:
REMARK  status: ('A' for Active; 'I' for Inactive)
REMARK    1  A    between atoms: C_12  and  N_3 
REMARK    2  A    between atoms: C_11  and  C_5 
REMARK    3  A    between atoms: C_10  and  C_8 
REMARK    4  A    between atoms: O_27  and  C_14 
REMARK    5  A    between atoms: O_28  and  C_21 
ROOT
ATOM      1  C   UNL d   1      53.643  33.634  54.394  0.00  0.00     0.143 A 
ATOM      2  C   UNL d   1      52.974  33.383  53.977  0.00  0.00     0.172 A 
ATOM      3  N   UNL d   1      52.528  34.050  53.765  0.00  0.00    -0.242 N 
ATOM      4  C   UNL d   1      52.927  34.716  54.055  0.00  0.00     0.355 A 
ATOM      5  C   UNL d   1      54.182  33.091  54.672  0.00  0.00     0.163 A 
ATOM      6  N   UNL d   1      52.850  32.575  53.840  0.00  0.00    -0.207 NA
ATOM      7  N   UNL d   1      53.610  34.456  54.440  0.00  0.00    -0.187 NA
ATOM      8  C   UNL d   1      53.405  32.030  54.126  0.00  0.00     0.166 A 
ATOM      9  N   UNL d   1      54.072  32.288  54.542  0.00  0.00    -0.220 NA
ATOM     10  O   UNL d   1      52.678  35.499  53.968  0.00  0.00    -0.244 OA
ENDROOT
BRANCH   8  11
ATOM     11  C   UNL d   1      53.291  31.226  53.995  0.00  0.00     0.060 A 
ATOM     12  C   UNL d   1      53.259  30.937  53.227  0.00  0.00     0.097 A 
ATOM     13  C   UNL d   1      53.143  30.127  53.096  0.00  0.00     0.026 A 
ATOM     14  C   UNL d   1      53.063  29.618  53.731  0.00  0.00     0.026 A 
ATOM     15  C   UNL d   1      53.096  29.916  54.495  0.00  0.00     0.094 A 
ATOM     16  C   UNL d   1      53.209  30.713  54.637  0.00  0.00     0.029 A 
BRANCH  12  17
ATOM     17  O   UNL d   1      53.341  31.457  52.590  0.00  0.00    -0.328 OA
ATOM     18  C   UNL d   1      53.257  31.156  51.822  0.00  0.00     0.181 C 
ENDBRANCH  12  17
BRANCH  15  19
ATOM     19  O   UNL d   1      53.015  29.402  55.137  0.00  0.00    -0.328 OA
ATOM     20  C   UNL d   1      53.384  28.664  55.126  0.00  0.00     0.181 C 
ENDBRANCH  15  19
ENDBRANCH   8  11
BRANCH   5  21
ATOM     21  C   UNL d   1      54.850  33.342  55.088  0.00  0.00     0.316 C 
ATOM     22  O   UNL d   1      54.840  33.384  55.912  0.00  0.00    -0.262 OA
ATOM     23  N   UNL d   1      55.536  33.552  54.667  0.00  0.00    -0.101 N 
ENDBRANCH   5  21
BRANCH   3  24
ATOM     24  C   UNL d   1      51.825  34.049  53.347  0.00  0.00     0.070 A 
ATOM     25  C   UNL d   1      51.136  33.858  53.733  0.00  0.00     0.020 A 
ATOM     26  C   UNL d   1      50.422  33.857  53.310  0.00  0.00     0.031 A 
ATOM     27  C   UNL d   1      50.426  34.050  52.502  0.00  0.00     0.140 A 
ATOM     28  C   UNL d   1      51.123  34.241  52.118  0.00  0.00     0.031 A 
ATOM     29  F   UNL d   1      49.710  34.047  52.086  0.00  0.00    -0.204 F 
ATOM     30  C   UNL d   1      51.828  34.240  52.544  0.00  0.00     0.020 A 
ENDBRANCH   3  24
TORSDOF 5
ENDMDL
MODEL 2
REMARK VINA RESULT:      -7.0      1.689      3.979
REMARK  5 active torsions:
REMARK  status: ('A' for Active; 'I' for Inactive)
REMARK    1  A    between atoms: C_12  and  N_3 
REMARK    2  A    between atoms: C_11  and  C_5 
REMARK    3  A    between atoms: C_10  and  C_8 
REMARK    4  A    between atoms: O_27  and  C_14 
REMARK    5  A    between atoms: O_28  and  C_21 
ROOT
ATOM      1  C   UNL d   1      53.351  34.422  54.514  0.00  0.00     0.143 A 
ATOM      2  C   UNL d   1      53.130  33.723  54.131  0.00  0.00     0.172 A 
ATOM      3  N   UNL d   1      53.666  33.125  54.342  0.00  0.00    -0.242 N 
ATOM      4  C   UNL d   1      54.219  33.461  54.859  0.00  0.00     0.355 A 
ATOM      5  C   UNL d   1      52.919  35.104  54.406  0.00  0.00     0.163 A 
ATOM      6  N   UNL d   1      52.467  33.714  53.634  0.00  0.00    -0.207 NA
ATOM      7  N   UNL d   1      54.022  34.257  54.962  0.00  0.00    -0.187 NA
ATOM      8  C   UNL d   1      52.034  34.413  53.530  0.00  0.00     0.166 A 
ATOM      9  N   UNL d   1      52.260  35.109  53.917  0.00  0.00    -0.220 NA
ATOM     10  O   UNL d   1      54.854  33.061  55.207  0.00  0.00    -0.244 OA
ENDROOT
BRANCH   8  11
ATOM     11  C   UNL d   1      51.375  34.414  53.040  0.00  0.00     0.060 A 
ATOM     12  C   UNL d   1      51.469  34.357  52.226  0.00  0.00     0.097 A 
ATOM     13  C   UNL d   1      50.804  34.357  51.732  0.00  0.00     0.026 A 
ATOM     14  C   UNL d   1      50.055  34.416  52.056  0.00  0.00     0.026 A 
ATOM     15  C   UNL d   1      49.970  34.473  52.871  0.00  0.00     0.094 A 
ATOM     16  C   UNL d   1      50.619  34.473  53.367  0.00  0.00     0.029 A 
BRANCH  12  17
ATOM     17  O   UNL d   1      52.229  34.298  51.905  0.00  0.00    -0.328 OA
ATOM     18  C   UNL d   1      52.327  34.443  51.094  0.00  0.00     0.181 C 
ENDBRANCH  12  17
BRANCH  15  19
ATOM     19  O   UNL d   1      49.214  34.532  53.198  0.00  0.00    -0.328 OA
ATOM     20  C   UNL d   1      48.749  35.198  53.050  0.00  0.00     0.181 C 
ENDBRANCH  15  19
ENDBRANCH   8  11
BRANCH   5  21
ATOM     21  C   UNL d   1      53.139  35.802  54.789  0.00  0.00     0.316 C 
ATOM     22  O   UNL d   1      52.893  35.953  55.562  0.00  0.00    -0.262 OA
ATOM     23  N   UNL d   1      53.613  36.354  54.385  0.00  0.00    -0.101 N 
ENDBRANCH   5  21
BRANCH   3  24
ATOM     24  C   UNL d   1      53.649  32.348  54.086  0.00  0.00     0.070 A 
ATOM     25  C   UNL d   1      53.232  31.799  54.516  0.00  0.00     0.020 A 
ATOM     26  C   UNL d   1      53.214  31.011  54.257  0.00  0.00     0.031 A 
ATOM     27  C   UNL d   1      53.622  30.799  53.565  0.00  0.00     0.140 A 
ATOM     28  C   UNL d   1      54.041  31.357  53.136  0.00  0.00     0.031 A 
ATOM     29  F   UNL d   1      53.601  30.011  53.312  0.00  0.00    -0.204 F 
ATOM     30  C   UNL d   1      54.054  32.137  53.399  0.00  0.00     0.020 A 
ENDBRANCH   3  24
TORSDOF 5
ENDMDL
MODEL 3
REMARK VINA RESULT:      -5.7      1.858      3.136
REMARK  5 active torsions:
REMARK  status: ('A' for Active; 'I' for Inactive)
REMARK    1  A    between atoms: C_12  and  N_3 
REMARK    2  A    between atoms: C_11  and  C_5 
REMARK    3  A    between atoms: C_10  and  C_8 
REMARK    4  A    between atoms: O_27  and  C_14 
REMARK    5  A    between atoms: O_28  and  C_21 
ROOT
ATOM      1  C   UNL d   1      52.290  34.064  53.245  0.00  0.00     0.143 A 
ATOM      2  C   UNL d   1      52.857  33.680  53.708  0.00  0.00     0.172 A 
ATOM      3  N   UNL d   1      53.285  34.251  54.131  0.00  0.00    -0.242 N 
ATOM      4  C   UNL d   1      52.977  34.993  53.925  0.00  0.00     0.355 A 
ATOM      5  C   UNL d   1      51.788  33.635  52.769  0.00  0.00     0.163 A 
ATOM      6  N   UNL d   1      52.917  32.853  53.689  0.00  0.00    -0.207 NA
ATOM      7  N   UNL d   1      52.366  34.873  53.382  0.00  0.00    -0.187 NA
ATOM      8  C   UNL d   1      52.402  32.425  53.201  0.00  0.00     0.166 A 
ATOM      9  N   UNL d   1      51.837  32.816  52.741  0.00  0.00    -0.220 NA
ATOM     10  O   UNL d   1      53.240  35.719  54.219  0.00  0.00    -0.244 OA
ENDROOT
BRANCH   8  11
ATOM     11  C   UNL d   1      52.454  31.605  53.176  0.00  0.00     0.060 A 
ATOM     12  C   UNL d   1      53.146  31.245  52.918  0.00  0.00     0.097 A 
ATOM     13  C   UNL d   1      53.198  30.419  52.893  0.00  0.00     0.026 A 
ATOM     14  C   UNL d   1      52.559  29.963  53.125  0.00  0.00     0.026 A 
ATOM     15  C   UNL d   1      51.871  30.331  53.381  0.00  0.00     0.094 A 
ATOM     16  C   UNL d   1      51.809  31.145  53.410  0.00  0.00     0.029 A 
BRANCH  12  17
ATOM     17  O   UNL d   1      53.788  31.713  52.686  0.00  0.00    -0.328 OA
ATOM     18  C   UNL d   1      54.531  31.352  52.610  0.00  0.00     0.181 C 
ENDBRANCH  12  17
BRANCH  15  19
ATOM     19  O   UNL d   1      51.226  29.870  53.614  0.00  0.00    -0.328 OA
ATOM     20  C   UNL d   1      51.314  29.306  54.211  0.00  0.00     0.181 C 
ENDBRANCH  15  19
ENDBRANCH   8  11
BRANCH   5  21
ATOM     21  C   UNL d   1      51.221  34.018  52.306  0.00  0.00     0.316 C 
ATOM     22  O   UNL d   1      51.389  34.230  51.527  0.00  0.00    -0.262 OA
ATOM     23  N   UNL d   1      50.477  34.189  52.635  0.00  0.00    -0.101 N 
ENDBRANCH   5  21
BRANCH   3  24
ATOM     24  C   UNL d   1      53.898  34.108  54.654  0.00  0.00     0.070 A 
ATOM     25  C   UNL d   1      53.723  33.888  55.417  0.00  0.00     0.020 A 
ATOM     26  C   UNL d   1      54.344  33.742  55.948  0.00  0.00     0.031 A 
ATOM     27  C   UNL d   1      55.129  33.824  55.691  0.00  0.00     0.140 A 
ATOM     28  C   UNL d   1      55.299  34.047  54.921  0.00  0.00     0.031 A 
ATOM     29  F   UNL d   1      55.744  33.678  56.226  0.00  0.00    -0.204 F 
ATOM     30  C   UNL d   1      54.678  34.189  54.400  0.00  0.00     0.020 A 
ENDBRANCH   3  24
TORSDOF 5
ENDMDL
