MODEL 1
REMARK VINA RESULT:      24.9      0.000      0.000
REMARK  2 active torsions:
REMARK  status: ('A' for Active; 'I' for Inactive)
REMARK    1  A    between atoms: N_2  and  S_1 
REMARK    2  A    between atoms: C_4  and  S_1 
ROOT
ATOM      1  N   UNL d   1      57.693  49.657  51.023  0.00  0.00    -0.231 N 
ATOM      2  C   UNL d   1      57.275  49.656  50.305  0.00  0.00     0.075 A 
ATOM      3  C   UNL d   1      56.457  49.649  50.306  0.00  0.00     0.017 A 
ATOM      4  C   UNL d   1      57.276  49.650  51.741  0.00  0.00     0.092 A 
ATOM      5  C   UNL d   1      57.692  49.663  49.587  0.00  0.00     0.018 A 
ATOM      6  C   UNL d   1      56.458  49.643  51.742  0.00  0.00     0.020 A 
ATOM      7  C   UNL d   1      56.040  49.643  51.024  0.00  0.00     0.003 A 
ATOM      8  C   UNL d   1      56.039  49.649  49.588  0.00  0.00     0.002 A 
ATOM      9  C   UNL d   1      57.274  49.662  48.881  0.00  0.00     0.002 A 
ATOM     10  C   UNL d   1      56.456  49.656  48.882  0.00  0.00     0.000 A 
ENDROOT
BRANCH   1  11
ATOM     11  S   UNL d   1      58.512  49.663  51.022  0.00  0.00     0.271 S 
ATOM     12  O   UNL d   1      58.512  49.684  52.079  0.00  0.00    -0.200 OA
ATOM     13  O   UNL d   1      58.511  49.645  50.120  0.00  0.00    -0.200 OA
BRANCH  11  14
ATOM     14  C   UNL d   1      59.341  49.670  51.021  0.00  0.00     0.104 A 
ATOM     15  C   UNL d   1      59.746  49.696  50.303  0.00  0.00     0.014 A 
ATOM     16  C   UNL d   1      60.564  49.703  50.298  0.00  0.00     0.012 A 
ATOM     17  C   UNL d   1      60.983  49.684  51.004  0.00  0.00     0.058 A 
ATOM     18  C   UNL d   1      60.576  49.659  51.722  0.00  0.00     0.012 A 
ATOM     19 CL   UNL d   1      61.812  49.691  51.003  0.00  0.00    -0.082 Cl
ATOM     20  C   UNL d   1      59.747  49.652  51.723  0.00  0.00     0.014 A 
ENDBRANCH  11  14
ENDBRANCH   1  11
TORSDOF 2
ENDMDL
