MODEL 1
REMARK VINA RESULT:      20.8      0.000      0.000
REMARK  3 active torsions:
REMARK  status: ('A' for Active; 'I' for Inactive)
REMARK    1  A    between atoms: C_2  and  S_1 
REMARK    2  A    between atoms: N_3  and  S_1 
REMARK    3  A    between atoms: C_8  and  N_3 
ROOT
ATOM      1  S   UNL d   1      46.084 -16.007  44.149  0.00  0.00     0.327 S 
ATOM      2  O   UNL d   1      46.101 -16.201  44.955  0.00  0.00    -0.186 OA
ATOM      3  O   UNL d   1      46.066 -15.815  43.347  0.00  0.00    -0.186 OA
ENDROOT
BRANCH   1   4
ATOM      4  C   UNL d   1      45.991 -15.212  44.342  0.00  0.00     0.116 A 
ATOM      5  C   UNL d   1      45.249 -14.920  44.546  0.00  0.00     0.013 A 
ATOM      6  C   UNL d   1      45.155 -14.115  44.741  0.00  0.00     0.001 A 
ATOM      7  C   UNL d   1      44.590 -15.418  44.559  0.00  0.00     0.001 A 
ATOM      8  C   UNL d   1      44.412 -13.823  44.944  0.00  0.00     0.000 A 
ATOM      9  C   UNL d   1      45.805 -13.610  44.730  0.00  0.00     0.000 A 
ATOM     10  C   UNL d   1      43.763 -14.329  44.955  0.00  0.00     0.000 A 
ATOM     11  C   UNL d   1      43.847 -15.127  44.763  0.00  0.00     0.000 A 
ATOM     12  C   UNL d   1      46.552 -13.901  44.526  0.00  0.00     0.001 A 
ATOM     13  C   UNL d   1      46.645 -14.705  44.331  0.00  0.00     0.014 A 
ENDBRANCH   1   4
BRANCH   1  14
ATOM     14  N   UNL d   1      46.176 -16.804  43.956  0.00  0.00    -0.318 NA
BRANCH  14  15
ATOM     15  C   UNL d   1      46.269 -17.601  43.763  0.00  0.00     0.141 A 
ATOM     16  C   UNL d   1      46.264 -18.171  44.347  0.00  0.00     0.028 A 
ATOM     17  C   UNL d   1      46.356 -18.960  44.155  0.00  0.00     0.101 A 
ATOM     18  C   UNL d   1      46.295 -19.155  44.955  0.00  0.00     0.029 C 
ATOM     19  C   UNL d   1      46.378 -19.666  44.588  0.00  0.00     0.029 C 
ATOM     20  N   UNL d   1      46.454 -19.184  43.370  0.00  0.00    -0.295 NA
ATOM     21  C   UNL d   1      46.460 -18.613  42.777  0.00  0.00     0.101 A 
ATOM     22  C   UNL d   1      46.367 -17.817  42.970  0.00  0.00     0.028 A 
ATOM     23  C   UNL d   1      46.520 -18.408  41.980  0.00  0.00     0.029 C 
ATOM     24  C   UNL d   1      46.569 -19.033  42.073  0.00  0.00     0.029 C 
ENDBRANCH  14  15
ENDBRANCH   1  14
TORSDOF 3
ENDMDL
