MODEL 1
REMARK VINA RESULT:      33.4      0.000      0.000
REMARK  2 active torsions:
REMARK  status: ('A' for Active; 'I' for Inactive)
REMARK    1  A    between atoms: C_7  and  C_1 
REMARK    2  A    between atoms: O_19  and  C_15 
ROOT
ATOM      1  C   UNL d   1      14.010  12.689  -2.740  0.00  0.00     0.064 A 
ATOM      2  C   UNL d   1      14.208  13.005  -3.486  0.00  0.00     0.199 A 
ATOM      3  C   UNL d   1      13.849  12.715  -4.173  0.00  0.00     0.062 A 
ATOM      4  C   UNL d   1      13.445  12.073  -2.688  0.00  0.00     0.126 A 
ATOM      5  C   UNL d   1      13.285  12.099  -4.117  0.00  0.00     0.106 A 
ATOM      6  O   UNL d   1      13.083  11.780  -3.382  0.00  0.00    -0.305 OA
ATOM      7  C   UNL d   1      14.045  13.027  -4.906  0.00  0.00     0.009 A 
ATOM      8  C   UNL d   1      12.927  11.809  -4.803  0.00  0.00     0.067 A 
ATOM      9  O   UNL d   1      14.765  13.612  -3.538  0.00  0.00    -0.286 OA
ATOM     10  C   UNL d   1      13.131  12.131  -5.536  0.00  0.00     0.198 A 
ATOM     11  C   UNL d   1      13.688  12.737  -5.588  0.00  0.00     0.042 A 
ATOM     12  O   UNL d   1      12.774  11.840  -6.219  0.00  0.00    -0.286 OA
ENDROOT
BRANCH   1  13
ATOM     13  C   UNL d   1      14.367  12.980  -2.062  0.00  0.00     0.005 A 
ATOM     14  C   UNL d   1      14.356  13.791  -1.911  0.00  0.00     0.002 A 
ATOM     15  C   UNL d   1      14.716  14.080  -1.230  0.00  0.00     0.024 A 
ATOM     16  C   UNL d   1      15.086  13.567  -0.699  0.00  0.00     0.094 A 
ATOM     17  C   UNL d   1      15.093  12.750  -0.859  0.00  0.00     0.024 A 
ATOM     18  C   UNL d   1      14.733  12.459  -1.540  0.00  0.00     0.002 A 
BRANCH  16  19
ATOM     19  O   UNL d   1      15.446  13.856  -0.018  0.00  0.00    -0.328 OA
ATOM     20  C   UNL d   1      15.777  14.614  -0.014  0.00  0.00     0.181 C 
ENDBRANCH  16  19
ENDBRANCH   1  13
TORSDOF 2
ENDMDL
