MODEL 1
REMARK VINA RESULT:      -9.0      0.000      0.000
REMARK  2 active torsions:
REMARK  status: ('A' for Active; 'I' for Inactive)
REMARK    1  A    between atoms: N_10  and  C_5 
REMARK    2  A    between atoms: C_22  and  N_12 
ROOT
ATOM      1  N   UNL d   1      52.153  32.352  53.134  0.00  0.00    -0.175 N 
ATOM      2  C   UNL d   1      52.817  32.750  53.434  0.00  0.00     0.167 A 
ATOM      3  N   UNL d   1      51.469  32.773  52.904  0.00  0.00    -0.143 NA
ATOM      4  C   UNL d   1      52.151  31.524  53.054  0.00  0.00     0.283 A 
ATOM      5  C   UNL d   1      51.471  33.600  52.984  0.00  0.00     0.168 A 
ATOM      6  N   UNL d   1      53.475  32.319  53.652  0.00  0.00    -0.227 NA
ATOM      7  C   UNL d   1      52.832  31.108  53.282  0.00  0.00     0.076 A 
ATOM      8  C   UNL d   1      52.793  33.568  53.503  0.00  0.00     0.039 A 
ATOM      9  C   UNL d   1      52.135  33.998  53.285  0.00  0.00     0.039 A 
ATOM     10  C   UNL d   1      53.496  31.507  53.583  0.00  0.00     0.088 A 
ATOM     11  O   UNL d   1      51.506  31.137  52.762  0.00  0.00    -0.265 OA
ATOM     12  C   UNL d   1      52.830  30.281  53.202  0.00  0.00     0.006 A 
ATOM     13  C   UNL d   1      53.457  33.967  53.803  0.00  0.00     0.003 A 
ATOM     14  C   UNL d   1      52.114  34.811  53.354  0.00  0.00     0.003 A 
ATOM     15  C   UNL d   1      54.154  31.076  53.801  0.00  0.00     0.019 A 
ATOM     16  C   UNL d   1      53.511  29.865  53.431  0.00  0.00     0.000 A 
ATOM     17  C   UNL d   1      53.430  34.776  53.870  0.00  0.00     0.000 A 
ATOM     18  C   UNL d   1      52.778  35.210  53.655  0.00  0.00     0.000 A 
ATOM     19  C   UNL d   1      54.175  30.264  53.731  0.00  0.00     0.002 A 
ENDROOT
BRANCH   5  20
ATOM     20  N   UNL d   1      50.790  34.016  52.756  0.00  0.00    -0.285 N 
ATOM     21  C   UNL d   1      50.270  34.295  53.306  0.00  0.00     0.101 A 
ATOM     22  C   UNL d   1      49.604  34.704  53.062  0.00  0.00     0.100 A 
ATOM     23  N   UNL d   1      49.459  34.833  52.266  0.00  0.00    -0.300 N 
ATOM     24  C   UNL d   1      49.979  34.554  51.716  0.00  0.00     0.100 A 
ATOM     25  C   UNL d   1      50.660  34.138  51.945  0.00  0.00     0.101 A 
BRANCH  23  26
ATOM     26  C   UNL d   1      48.792  35.242  52.021  0.00  0.00     0.080 C 
ATOM     27  C   UNL d   1      48.371  34.977  51.363  0.00  0.00     0.021 C 
ENDBRANCH  23  26
ENDBRANCH   5  20
TORSDOF 2
ENDMDL
MODEL 2
REMARK VINA RESULT:      -8.0      1.488      2.694
REMARK  2 active torsions:
REMARK  status: ('A' for Active; 'I' for Inactive)
REMARK    1  A    between atoms: N_10  and  C_5 
REMARK    2  A    between atoms: C_22  and  N_12 
ROOT
ATOM      1  N   UNL d   1      52.964  33.959  53.930  0.00  0.00    -0.175 N 
ATOM      2  C   UNL d   1      53.190  33.160  53.891  0.00  0.00     0.167 A 
ATOM      3  N   UNL d   1      52.275  34.228  53.541  0.00  0.00    -0.143 NA
ATOM      4  C   UNL d   1      53.416  34.510  54.357  0.00  0.00     0.283 A 
ATOM      5  C   UNL d   1      51.823  33.676  53.115  0.00  0.00     0.168 A 
ATOM      6  N   UNL d   1      53.867  32.919  54.278  0.00  0.00    -0.227 NA
ATOM      7  C   UNL d   1      54.100  34.241  54.742  0.00  0.00     0.076 A 
ATOM      8  C   UNL d   1      52.725  32.636  53.462  0.00  0.00     0.039 A 
ATOM      9  C   UNL d   1      52.049  32.878  53.075  0.00  0.00     0.039 A 
ATOM     10  C   UNL d   1      54.326  33.442  54.703  0.00  0.00     0.088 A 
ATOM     11  O   UNL d   1      53.197  35.286  54.395  0.00  0.00    -0.265 OA
ATOM     12  C   UNL d   1      54.552  34.792  55.168  0.00  0.00     0.006 A 
ATOM     13  C   UNL d   1      52.951  31.837  53.423  0.00  0.00     0.003 A 
ATOM     14  C   UNL d   1      51.590  32.355  52.651  0.00  0.00     0.003 A 
ATOM     15  C   UNL d   1      55.002  33.200  55.090  0.00  0.00     0.019 A 
ATOM     16  C   UNL d   1      55.236  34.522  55.554  0.00  0.00     0.000 A 
ATOM     17  C   UNL d   1      52.490  31.321  52.999  0.00  0.00     0.000 A 
ATOM     18  C   UNL d   1      51.816  31.556  52.611  0.00  0.00     0.000 A 
ATOM     19  C   UNL d   1      55.462  33.723  55.514  0.00  0.00     0.002 A 
ENDROOT
BRANCH   5  20
ATOM     20  N   UNL d   1      51.139  33.946  52.729  0.00  0.00    -0.285 N 
ATOM     21  C   UNL d   1      51.148  34.118  51.941  0.00  0.00     0.101 A 
ATOM     22  C   UNL d   1      50.463  34.383  51.578  0.00  0.00     0.100 A 
ATOM     23  N   UNL d   1      49.771  34.475  52.004  0.00  0.00    -0.300 N 
ATOM     24  C   UNL d   1      49.762  34.304  52.792  0.00  0.00     0.100 A 
ATOM     25  C   UNL d   1      50.446  34.034  53.178  0.00  0.00     0.101 A 
BRANCH  23  26
ATOM     26  C   UNL d   1      49.085  34.740  51.641  0.00  0.00     0.080 C 
ATOM     27  C   UNL d   1      48.904  34.484  50.878  0.00  0.00     0.021 C 
ENDBRANCH  23  26
ENDBRANCH   5  20
TORSDOF 2
ENDMDL
MODEL 3
REMARK VINA RESULT:      -7.1      1.224      4.520
REMARK  2 active torsions:
REMARK  status: ('A' for Active; 'I' for Inactive)
REMARK    1  A    between atoms: N_10  and  C_5 
REMARK    2  A    between atoms: C_22  and  N_12 
ROOT
ATOM      1  N   UNL d   1      51.907  32.626  53.318  0.00  0.00    -0.175 N 
ATOM      2  C   UNL d   1      52.494  33.215  53.322  0.00  0.00     0.167 A 
ATOM      3  N   UNL d   1      52.101  31.829  53.475  0.00  0.00    -0.143 NA
ATOM      4  C   UNL d   1      51.114  32.815  53.159  0.00  0.00     0.283 A 
ATOM      5  C   UNL d   1      52.894  31.641  53.634  0.00  0.00     0.168 A 
ATOM      6  N   UNL d   1      52.282  33.988  53.166  0.00  0.00    -0.227 NA
ATOM      7  C   UNL d   1      50.923  33.608  53.003  0.00  0.00     0.076 A 
ATOM      8  C   UNL d   1      53.270  33.002  53.482  0.00  0.00     0.039 A 
ATOM      9  C   UNL d   1      53.481  32.230  53.638  0.00  0.00     0.039 A 
ATOM     10  C   UNL d   1      51.510  34.197  53.007  0.00  0.00     0.088 A 
ATOM     11  O   UNL d   1      50.544  32.243  53.155  0.00  0.00    -0.265 OA
ATOM     12  C   UNL d   1      50.131  33.796  52.844  0.00  0.00     0.006 A 
ATOM     13  C   UNL d   1      53.857  33.591  53.486  0.00  0.00     0.003 A 
ATOM     14  C   UNL d   1      54.253  32.021  53.797  0.00  0.00     0.003 A 
ATOM     15  C   UNL d   1      51.299  34.969  52.852  0.00  0.00     0.019 A 
ATOM     16  C   UNL d   1      49.940  34.589  52.689  0.00  0.00     0.000 A 
ATOM     17  C   UNL d   1      54.624  33.378  53.645  0.00  0.00     0.000 A 
ATOM     18  C   UNL d   1      54.840  32.610  53.800  0.00  0.00     0.000 A 
ATOM     19  C   UNL d   1      50.527  35.178  52.693  0.00  0.00     0.002 A 
ENDROOT
BRANCH   5  20
ATOM     20  N   UNL d   1      53.085  30.848  53.789  0.00  0.00    -0.285 N 
ATOM     21  C   UNL d   1      53.274  30.342  53.190  0.00  0.00     0.101 A 
ATOM     22  C   UNL d   1      53.459  29.563  53.362  0.00  0.00     0.100 A 
ATOM     23  N   UNL d   1      53.454  29.291  54.135  0.00  0.00    -0.300 N 
ATOM     24  C   UNL d   1      53.264  29.798  54.734  0.00  0.00     0.100 A 
ATOM     25  C   UNL d   1      53.074  30.591  54.578  0.00  0.00     0.101 A 
BRANCH  23  26
ATOM     26  C   UNL d   1      53.639  28.512  54.308  0.00  0.00     0.080 C 
ATOM     27  C   UNL d   1      53.615  28.253  55.090  0.00  0.00     0.021 C 
ENDBRANCH  23  26
ENDBRANCH   5  20
TORSDOF 2
ENDMDL
