MODEL 1
REMARK VINA RESULT:      43.2      0.000      0.000
REMARK  3 active torsions:
REMARK  status: ('A' for Active; 'I' for Inactive)
REMARK    1  A    between atoms: C_8  and  C_2 
REMARK    2  A    between atoms: C_9  and  C_3 
REMARK    3  A    between atoms: N_6  and  C_8 
ROOT
ATOM      1  N   UNL d   1     -57.895 -98.808 -44.011  0.00  0.00    -0.121 NA
ATOM      2  C   UNL d   1     -56.621 -98.910 -44.393  0.00  0.00     0.222 A 
ATOM      3  C   UNL d   1     -57.884 -98.839 -44.833  0.00  0.00     0.204 A 
ATOM      4  O   UNL d   1     -57.090 -98.902 -45.068  0.00  0.00    -0.267 OA
ATOM      5  N   UNL d   1     -57.118 -98.852 -43.734  0.00  0.00    -0.119 NA
ENDROOT
BRANCH   2   6
ATOM      6  C   UNL d   1     -55.795 -98.966 -44.368  0.00  0.00     0.127 C 
BRANCH   6   7
ATOM      7  N   UNL d   1     -55.433 -99.573 -43.944  0.00  0.00    -0.301 N 
ATOM      8  C   UNL d   1     -55.283-100.288 -44.316  0.00  0.00     0.064 A 
ATOM      9  C   UNL d   1     -54.922-100.903 -43.901  0.00  0.00     0.016 A 
ATOM     10  C   UNL d   1     -55.489-100.404 -45.100  0.00  0.00     0.018 A 
ATOM     11  C   UNL d   1     -54.769-101.619 -44.264  0.00  0.00     0.001 A 
ATOM     12  C   UNL d   1     -54.713-100.788 -43.109  0.00  0.00     0.003 A 
ATOM     13  C   UNL d   1     -54.976-101.731 -45.048  0.00  0.00     0.000 A 
ATOM     14  C   UNL d   1     -55.339-101.119 -45.471  0.00  0.00     0.002 A 
ATOM     15  C   UNL d   1     -54.864-100.069 -42.738  0.00  0.00     0.019 A 
ATOM     16  C   UNL d   1     -55.229 -99.454 -43.159  0.00  0.00     0.080 A 
ENDBRANCH   6   7
ENDBRANCH   2   6
BRANCH   3  17
ATOM     17  C   UNL d   1     -58.542 -98.812 -45.333  0.00  0.00     0.043 A 
ATOM     18  C   UNL d   1     -59.299 -98.783 -45.004  0.00  0.00     0.004 A 
ATOM     19  C   UNL d   1     -59.959 -98.756 -45.500  0.00  0.00     0.000 A 
ATOM     20  C   UNL d   1     -59.857 -98.757 -46.321  0.00  0.00     0.000 A 
ATOM     21  C   UNL d   1     -59.095 -98.785 -46.643  0.00  0.00     0.000 A 
ATOM     22  C   UNL d   1     -58.439 -98.813 -46.145  0.00  0.00     0.004 A 
ENDBRANCH   3  17
TORSDOF 3
ENDMDL
