MODEL 1
REMARK VINA RESULT:      -3.2      0.000      0.000
REMARK  4 active torsions:
REMARK  status: ('A' for Active; 'I' for Inactive)
REMARK       I    between atoms: C_2  and  N_1 
REMARK    1  A    between atoms: C_3  and  N_1 
REMARK    2  A    between atoms: C_5  and  C_2 
REMARK    3  A    between atoms: C_4  and  C_3 
REMARK    4  A    between atoms: N_6  and  C_3 
ROOT
ATOM      1  C   UNL d   1      32.182  16.784 -23.855  0.00  0.00     0.170 C 
ENDROOT
BRANCH   1   2
ATOM      2  N   UNL d   1      31.426  16.591 -23.562  0.00  0.00    -0.191 NA
ATOM      3  C   UNL d   1      30.767  16.527 -24.119  0.00  0.00     0.281 C 
ATOM      4  O   UNL d   1      30.872  16.652 -24.926  0.00  0.00    -0.265 OA
BRANCH   3   5
ATOM      5  C   UNL d   1      30.007  16.336 -23.847  0.00  0.00     0.069 A 
ATOM      6  C   UNL d   1      29.368  16.743 -24.160  0.00  0.00     0.062 A 
ATOM      7 CL   UNL d   1      29.355  17.285 -24.675  0.00  0.00    -0.082 Cl
ATOM      8  C   UNL d   1      28.571  16.566 -23.898  0.00  0.00     0.012 A 
ATOM      9  C   UNL d   1      28.452  15.987 -23.332  0.00  0.00     0.001 A 
ATOM     10  C   UNL d   1      29.110  15.572 -23.014  0.00  0.00     0.000 A 
ATOM     11  C   UNL d   1      29.889  15.751 -23.277  0.00  0.00     0.006 A 
ENDBRANCH   3   5
ENDBRANCH   1   2
BRANCH   1  12
ATOM     12  C   UNL d   1      32.664  16.172 -24.155  0.00  0.00     0.249 C 
ATOM     13 CL   UNL d   1      33.131  15.575 -24.411  0.00  0.00    -0.075 Cl
ATOM     14 CL   UNL d   1      32.778  16.077 -25.039  0.00  0.00    -0.075 Cl
ATOM     15 CL   UNL d   1      32.984  15.718 -23.619  0.00  0.00    -0.075 Cl
ENDBRANCH   1  12
BRANCH   1  16
ATOM     16  N   UNL d   1      32.451  17.556 -23.850  0.00  0.00    -0.286 N 
ATOM     17  C   UNL d   1      32.579  17.932 -23.154  0.00  0.00     0.108 A 
ATOM     18  C   UNL d   1      32.850  18.710 -23.149  0.00  0.00     0.142 A 
ATOM     19  O   UNL d   1      32.996  19.117 -23.820  0.00  0.00    -0.300 OA
ATOM     20  C   UNL d   1      32.864  18.729 -24.550  0.00  0.00     0.142 A 
ATOM     21  C   UNL d   1      32.593  17.951 -24.556  0.00  0.00     0.108 A 
ENDBRANCH   1  16
TORSDOF 4
ENDMDL
MODEL 2
REMARK VINA RESULT:      -0.6      1.670      4.075
REMARK  4 active torsions:
REMARK  status: ('A' for Active; 'I' for Inactive)
REMARK       I    between atoms: C_2  and  N_1 
REMARK    1  A    between atoms: C_3  and  N_1 
REMARK    2  A    between atoms: C_5  and  C_2 
REMARK    3  A    between atoms: C_4  and  C_3 
REMARK    4  A    between atoms: N_6  and  C_3 
ROOT
ATOM      1  C   UNL d   1      29.255  17.085 -24.393  0.00  0.00     0.170 C 
ENDROOT
BRANCH   1   2
ATOM      2  N   UNL d   1      30.007  16.838 -24.654  0.00  0.00    -0.191 NA
ATOM      3  C   UNL d   1      30.632  16.715 -24.070  0.00  0.00     0.281 C 
ATOM      4  O   UNL d   1      30.500  16.837 -23.267  0.00  0.00    -0.265 OA
BRANCH   3   5
ATOM      5  C   UNL d   1      31.387  16.469 -24.310  0.00  0.00     0.069 A 
ATOM      6  C   UNL d   1      32.040  16.849 -23.991  0.00  0.00     0.062 A 
ATOM      7 CL   UNL d   1      32.070  17.407 -23.496  0.00  0.00    -0.082 Cl
ATOM      8  C   UNL d   1      32.833  16.615 -24.222  0.00  0.00     0.012 A 
ATOM      9  C   UNL d   1      32.933  16.010 -24.764  0.00  0.00     0.001 A 
ATOM     10  C   UNL d   1      32.260  15.624 -25.088  0.00  0.00     0.000 A 
ATOM     11  C   UNL d   1      31.486  15.859 -24.857  0.00  0.00     0.006 A 
ENDBRANCH   3   5
ENDBRANCH   1   2
BRANCH   1  12
ATOM     12  C   UNL d   1      29.078  17.901 -24.397  0.00  0.00     0.249 C 
ATOM     13 CL   UNL d   1      28.911  18.683 -24.435  0.00  0.00    -0.075 Cl
ATOM     14 CL   UNL d   1      28.912  18.334 -23.630  0.00  0.00    -0.075 Cl
ATOM     15 CL   UNL d   1      29.072  18.228 -25.097  0.00  0.00    -0.075 Cl
ENDBRANCH   1  12
BRANCH   1  16
ATOM     16  N   UNL d   1      28.699  16.543 -24.136  0.00  0.00    -0.286 N 
ATOM     17  C   UNL d   1      28.465  16.542 -23.370  0.00  0.00     0.108 A 
ATOM     18  C   UNL d   1      27.904  15.996 -23.111  0.00  0.00     0.142 A 
ATOM     19  O   UNL d   1      27.575  15.456 -23.598  0.00  0.00    -0.300 OA
ATOM     20  C   UNL d   1      27.817  15.453 -24.400  0.00  0.00     0.142 A 
ATOM     21  C   UNL d   1      28.378  15.998 -24.659  0.00  0.00     0.108 A 
ENDBRANCH   1  16
TORSDOF 4
ENDMDL
