MODEL 1
REMARK VINA RESULT:      41.2      0.000      0.000
REMARK  4 active torsions:
REMARK  status: ('A' for Active; 'I' for Inactive)
REMARK    1  A    between atoms: C_10  and  N_2 
REMARK    2  A    between atoms: N_6  and  C_3 
REMARK    3  A    between atoms: N_7  and  N_6 
REMARK    4  A    between atoms: C_11  and  N_7 
ROOT
ATOM      1  C   UNL d   1      45.879 -15.063  44.326  0.00  0.00     0.206 A 
ATOM      2  N   UNL d   1      45.235 -14.552  44.442  0.00  0.00    -0.209 N 
ATOM      3  C   UNL d   1      45.595 -15.827  44.510  0.00  0.00     0.160 A 
ATOM      4  N   UNL d   1      44.601 -14.972  44.681  0.00  0.00    -0.162 NA
ATOM      5  C   UNL d   1      44.806 -15.760  44.728  0.00  0.00     0.124 A 
ATOM      6  N   UNL d   1      46.647 -14.866  44.079  0.00  0.00    -0.125 N 
ATOM      7  C   UNL d   1      44.311 -16.393  44.955  0.00  0.00     0.024 C 
ENDROOT
BRANCH   3   8
ATOM      8  N   UNL d   1      45.966 -16.543  44.500  0.00  0.00    -0.143 NA
BRANCH   8   9
ATOM      9  N   UNL d   1      45.978 -16.992  43.793  0.00  0.00    -0.148 NA
BRANCH   9  10
ATOM     10  C   UNL d   1      46.204 -17.794  43.823  0.00  0.00     0.103 A 
ATOM     11  C   UNL d   1      46.223 -18.254  43.132  0.00  0.00     0.019 A 
ATOM     12  C   UNL d   1      46.443 -19.036  43.152  0.00  0.00     0.002 A 
ATOM     13  C   UNL d   1      46.011 -17.902  42.398  0.00  0.00     0.002 C 
ATOM     14  C   UNL d   1      46.461 -19.492  42.463  0.00  0.00     0.000 C 
ATOM     15  C   UNL d   1      46.646 -19.357  43.885  0.00  0.00     0.000 A 
ATOM     16  C   UNL d   1      46.630 -18.917  44.561  0.00  0.00     0.002 A 
ATOM     17  C   UNL d   1      46.406 -18.126  44.527  0.00  0.00     0.021 A 
ENDBRANCH   9  10
ENDBRANCH   8   9
ENDBRANCH   3   8
BRANCH   2  18
ATOM     18  C   UNL d   1      45.385 -13.759  44.292  0.00  0.00     0.085 A 
ATOM     19  C   UNL d   1      45.072 -13.410  43.629  0.00  0.00     0.019 A 
ATOM     20  C   UNL d   1      45.227 -12.605  43.481  0.00  0.00     0.002 A 
ATOM     21  C   UNL d   1      45.677 -12.166  43.979  0.00  0.00     0.000 A 
ATOM     22  C   UNL d   1      46.000 -12.514  44.656  0.00  0.00     0.002 A 
ATOM     23  C   UNL d   1      45.862 -13.298  44.821  0.00  0.00     0.019 A 
ENDBRANCH   2  18
TORSDOF 4
ENDMDL
