MODEL 1
REMARK VINA RESULT:      13.6      0.000      0.000
REMARK  3 active torsions:
REMARK  status: ('A' for Active; 'I' for Inactive)
REMARK    1  A    between atoms: N_4  and  C_1 
REMARK    2  A    between atoms: C_3  and  N_4 
REMARK    3  A    between atoms: C_8  and  C_5 
ROOT
ATOM      1  C   UNL d   1      46.153 -17.278  43.779  0.00  0.00     0.750 A 
ATOM      2  N   UNL d   1      46.108 -16.454  43.771  0.00  0.00    -0.059 NA
ATOM      3  C   UNL d   1      45.685 -16.060  44.356  0.00  0.00     0.103 A 
ATOM      4  N   UNL d   1      45.783 -17.707  44.362  0.00  0.00    -0.058 NA
ATOM      5  C   UNL d   1      45.308 -16.491  44.950  0.00  0.00     0.041 A 
ATOM      6  C   UNL d   1      45.357 -17.324  44.955  0.00  0.00     0.120 A 
ENDROOT
BRANCH   1   7
ATOM      7  N   UNL d   1      46.578 -17.666  43.190  0.00  0.00    -0.059 NA
BRANCH   7   8
ATOM      8  C   UNL d   1      46.561 -18.490  43.138  0.00  0.00     0.101 A 
ATOM      9  C   UNL d   1      46.609 -18.951  43.821  0.00  0.00     0.041 A 
ATOM     10  C   UNL d   1      46.591 -19.779  43.762  0.00  0.00     0.104 A 
ATOM     11  N   UNL d   1      46.640 -20.239  44.445  0.00  0.00    -0.148 N 
ATOM     12  C   UNL d   1      46.525 -20.139  43.025  0.00  0.00     0.021 A 
ATOM     13  C   UNL d   1      46.477 -19.678  42.342  0.00  0.00     0.003 A 
ATOM     14  C   UNL d   1      46.494 -18.857  42.397  0.00  0.00     0.018 A 
ATOM     15  C   UNL d   1      46.446 -18.396  41.715  0.00  0.00     0.002 C 
ENDBRANCH   7   8
ENDBRANCH   1   7
BRANCH   3  16
ATOM     16  C   UNL d   1      45.639 -15.240  44.348  0.00  0.00     0.037 A 
ATOM     17  C   UNL d   1      46.286 -14.802  44.100  0.00  0.00     0.100 A 
ATOM     18  N   UNL d   1      46.251 -13.977  44.088  0.00  0.00    -0.242 NA
ATOM     19  C   UNL d   1      45.556 -13.592  44.329  0.00  0.00     0.099 A 
ATOM     20  C   UNL d   1      44.902 -14.039  44.580  0.00  0.00     0.021 A 
ATOM     21  C   UNL d   1      44.948 -14.858  44.588  0.00  0.00     0.005 A 
ENDBRANCH   3  16
TORSDOF 3
ENDMDL
