MODEL 1
REMARK VINA RESULT:      -2.3      0.000      0.000
REMARK  6 active torsions:
REMARK  status: ('A' for Active; 'I' for Inactive)
REMARK    1  A    between atoms: N_2  and  C_1 
REMARK    2  A    between atoms: N_3  and  C_1 
REMARK    3  A    between atoms: C_8  and  N_3 
REMARK    4  A    between atoms: C_5  and  O_7 
REMARK    5  A    between atoms: C_17  and  C_6 
REMARK    6  A    between atoms: O_7  and  C_9 
ROOT
ATOM      1  N   UNL d   1      33.241  21.170 -21.502  0.00  0.00    -0.219 NA
ENDROOT
BRANCH   1   2
ATOM      2  C   UNL d   1      32.548  21.507 -21.194  0.00  0.00     0.206 C 
ATOM      3  S   UNL d   1      31.817  21.176 -21.385  0.00  0.00    -0.038 SA
BRANCH   2   4
ATOM      4  N   UNL d   1      32.595  22.172 -20.697  0.00  0.00    -0.282 N 
ATOM      5  C   UNL d   1      32.387  22.911 -20.983  0.00  0.00     0.066 A 
ATOM      6  C   UNL d   1      32.428  23.582 -20.506  0.00  0.00     0.018 A 
ATOM      7  C   UNL d   1      32.687  23.505 -19.715  0.00  0.00     0.003 A 
ATOM      8  C   UNL d   1      32.890  22.762 -19.443  0.00  0.00     0.019 A 
ATOM      9  C   UNL d   1      32.846  22.097 -19.928  0.00  0.00     0.082 A 
BRANCH   5  10
ATOM     10  C   UNL d   1      32.126  22.989 -21.783  0.00  0.00     0.018 C 
ATOM     11  C   UNL d   1      31.849  23.701 -22.045  0.00  0.00     0.002 C 
ENDBRANCH   5  10
ENDBRANCH   2   4
ENDBRANCH   1   2
BRANCH   1  12
ATOM     12  C   UNL d   1      33.217  20.459 -21.916  0.00  0.00     0.084 A 
ATOM     13  C   UNL d   1      33.176  20.467 -22.751  0.00  0.00     0.021 A 
ATOM     14  C   UNL d   1      33.152  19.777 -23.169  0.00  0.00     0.026 A 
ATOM     15  C   UNL d   1      33.168  19.033 -22.764  0.00  0.00     0.105 A 
ATOM     16  C   UNL d   1      33.209  19.025 -21.929  0.00  0.00     0.026 A 
ATOM     17  C   UNL d   1      33.233  19.736 -21.515  0.00  0.00     0.021 A 
BRANCH  15  18
ATOM     18  O   UNL d   1      33.144  18.323 -23.182  0.00  0.00    -0.260 OA
BRANCH  18  19
ATOM     19  C   UNL d   1      32.418  17.938 -23.315  0.00  0.00     0.391 C 
ATOM     20  F   UNL d   1      31.763  18.363 -23.583  0.00  0.00    -0.145 F 
ATOM     21  F   UNL d   1      32.354  17.116 -23.176  0.00  0.00    -0.145 F 
ENDBRANCH  18  19
ENDBRANCH  15  18
ENDBRANCH   1  12
TORSDOF 6
ENDMDL
MODEL 2
REMARK VINA RESULT:      -2.1      2.498      5.169
REMARK  6 active torsions:
REMARK  status: ('A' for Active; 'I' for Inactive)
REMARK    1  A    between atoms: N_2  and  C_1 
REMARK    2  A    between atoms: N_3  and  C_1 
REMARK    3  A    between atoms: C_8  and  N_3 
REMARK    4  A    between atoms: C_5  and  O_7 
REMARK    5  A    between atoms: C_17  and  C_6 
REMARK    6  A    between atoms: O_7  and  C_9 
ROOT
ATOM      1  N   UNL d   1      32.847  18.310 -22.868  0.00  0.00    -0.219 NA
ENDROOT
BRANCH   1   2
ATOM      2  C   UNL d   1      32.669  18.155 -23.663  0.00  0.00     0.206 C 
ATOM      3  S   UNL d   1      33.095  18.537 -24.256  0.00  0.00    -0.038 SA
BRANCH   2   4
ATOM      4  N   UNL d   1      32.064  17.618 -23.855  0.00  0.00    -0.282 N 
ATOM      5  C   UNL d   1      32.243  16.827 -23.978  0.00  0.00     0.066 A 
ATOM      6  C   UNL d   1      31.657  16.280 -24.169  0.00  0.00     0.018 A 
ATOM      7  C   UNL d   1      30.865  16.537 -24.238  0.00  0.00     0.003 A 
ATOM      8  C   UNL d   1      30.701  17.327 -24.113  0.00  0.00     0.019 A 
ATOM      9  C   UNL d   1      31.294  17.867 -23.922  0.00  0.00     0.082 A 
BRANCH   5  10
ATOM     10  C   UNL d   1      33.044  16.567 -23.908  0.00  0.00     0.018 C 
ATOM     11  C   UNL d   1      33.213  15.778 -23.955  0.00  0.00     0.002 C 
ENDBRANCH   5  10
ENDBRANCH   2   4
ENDBRANCH   1   2
BRANCH   1  12
ATOM     12  C   UNL d   1      32.946  19.082 -22.600  0.00  0.00     0.084 A 
ATOM     13  C   UNL d   1      32.862  19.253 -21.786  0.00  0.00     0.021 A 
ATOM     14  C   UNL d   1      32.956  20.005 -21.511  0.00  0.00     0.026 A 
ATOM     15  C   UNL d   1      33.143  20.634 -22.046  0.00  0.00     0.105 A 
ATOM     16  C   UNL d   1      33.227  20.464 -22.860  0.00  0.00     0.026 A 
ATOM     17  C   UNL d   1      33.128  19.692 -23.128  0.00  0.00     0.021 A 
BRANCH  15  18
ATOM     18  O   UNL d   1      33.241  21.407 -21.774  0.00  0.00    -0.260 OA
BRANCH  18  19
ATOM     19  C   UNL d   1      32.579  21.865 -21.564  0.00  0.00     0.391 C 
ATOM     20  F   UNL d   1      32.199  22.332 -22.128  0.00  0.00    -0.145 F 
ATOM     21  F   UNL d   1      32.300  21.852 -20.776  0.00  0.00    -0.145 F 
ENDBRANCH  18  19
ENDBRANCH  15  18
ENDBRANCH   1  12
TORSDOF 6
ENDMDL
MODEL 3
REMARK VINA RESULT:      -1.3      3.069      4.809
REMARK  6 active torsions:
REMARK  status: ('A' for Active; 'I' for Inactive)
REMARK    1  A    between atoms: N_2  and  C_1 
REMARK    2  A    between atoms: N_3  and  C_1 
REMARK    3  A    between atoms: C_8  and  N_3 
REMARK    4  A    between atoms: C_5  and  O_7 
REMARK    5  A    between atoms: C_17  and  C_6 
REMARK    6  A    between atoms: O_7  and  C_9 
ROOT
ATOM      1  N   UNL d   1      33.230  21.832 -20.885  0.00  0.00    -0.219 NA
ENDROOT
BRANCH   1   2
ATOM      2  C   UNL d   1      32.678  21.341 -21.265  0.00  0.00     0.206 C 
ATOM      3  S   UNL d   1      31.954  21.191 -20.903  0.00  0.00    -0.038 SA
BRANCH   2   4
ATOM      4  N   UNL d   1      32.861  21.007 -22.004  0.00  0.00    -0.282 N 
ATOM      5  C   UNL d   1      33.046  20.210 -22.057  0.00  0.00     0.066 A 
ATOM      6  C   UNL d   1      33.229  19.861 -22.780  0.00  0.00     0.018 A 
ATOM      7  C   UNL d   1      33.226  20.329 -23.473  0.00  0.00     0.003 A 
ATOM      8  C   UNL d   1      33.039  21.121 -23.405  0.00  0.00     0.019 A 
ATOM      9  C   UNL d   1      32.857  21.462 -22.676  0.00  0.00     0.082 A 
BRANCH   5  10
ATOM     10  C   UNL d   1      33.050  19.737 -21.357  0.00  0.00     0.018 C 
ATOM     11  C   UNL d   1      33.231  18.951 -21.407  0.00  0.00     0.002 C 
ENDBRANCH   5  10
ENDBRANCH   2   4
ENDBRANCH   1   2
BRANCH   1  12
ATOM     12  C   UNL d   1      33.011  22.295 -20.241  0.00  0.00     0.084 A 
ATOM     13  C   UNL d   1      32.575  22.997 -20.364  0.00  0.00     0.021 A 
ATOM     14  C   UNL d   1      32.353  23.459 -19.740  0.00  0.00     0.026 A 
ATOM     15  C   UNL d   1      32.562  23.237 -18.950  0.00  0.00     0.105 A 
ATOM     16  C   UNL d   1      32.998  22.534 -18.827  0.00  0.00     0.026 A 
ATOM     17  C   UNL d   1      33.217  22.072 -19.472  0.00  0.00     0.021 A 
BRANCH  15  18
ATOM     18  O   UNL d   1      32.340  23.702 -18.307  0.00  0.00    -0.260 OA
BRANCH  18  19
ATOM     19  C   UNL d   1      32.349  23.387 -17.537  0.00  0.00     0.391 C 
ATOM     20  F   UNL d   1      31.729  22.910 -17.274  0.00  0.00    -0.145 F 
ATOM     21  F   UNL d   1      32.991  23.556 -17.028  0.00  0.00    -0.145 F 
ENDBRANCH  18  19
ENDBRANCH  15  18
ENDBRANCH   1  12
TORSDOF 6
ENDMDL
MODEL 4
REMARK VINA RESULT:      -1.1      2.488      4.810
REMARK  6 active torsions:
REMARK  status: ('A' for Active; 'I' for Inactive)
REMARK    1  A    between atoms: N_2  and  C_1 
REMARK    2  A    between atoms: N_3  and  C_1 
REMARK    3  A    between atoms: C_8  and  N_3 
REMARK    4  A    between atoms: C_5  and  O_7 
REMARK    5  A    between atoms: C_17  and  C_6 
REMARK    6  A    between atoms: O_7  and  C_9 
ROOT
ATOM      1  N   UNL d   1      32.210  19.189 -22.688  0.00  0.00    -0.219 NA
ENDROOT
BRANCH   1   2
ATOM      2  C   UNL d   1      32.726  18.822 -23.224  0.00  0.00     0.206 C 
ATOM      3  S   UNL d   1      33.241  19.284 -23.672  0.00  0.00    -0.038 SA
BRANCH   2   4
ATOM      4  N   UNL d   1      32.720  17.995 -23.304  0.00  0.00    -0.282 N 
ATOM      5  C   UNL d   1      32.211  17.640 -23.839  0.00  0.00     0.066 A 
ATOM      6  C   UNL d   1      32.190  16.821 -23.933  0.00  0.00     0.018 A 
ATOM      7  C   UNL d   1      32.700  16.344 -23.473  0.00  0.00     0.003 A 
ATOM      8  C   UNL d   1      33.202  16.712 -22.943  0.00  0.00     0.019 A 
ATOM      9  C   UNL d   1      33.215  17.531 -22.857  0.00  0.00     0.082 A 
BRANCH   5  10
ATOM     10  C   UNL d   1      31.695  18.121 -24.305  0.00  0.00     0.018 C 
ATOM     11  C   UNL d   1      31.013  17.805 -24.601  0.00  0.00     0.002 C 
ENDBRANCH   5  10
ENDBRANCH   2   4
ENDBRANCH   1   2
BRANCH   1  12
ATOM     12  C   UNL d   1      32.460  19.826 -22.230  0.00  0.00     0.084 A 
ATOM     13  C   UNL d   1      32.174  20.594 -22.397  0.00  0.00     0.021 A 
ATOM     14  C   UNL d   1      32.411  21.227 -21.956  0.00  0.00     0.026 A 
ATOM     15  C   UNL d   1      32.955  21.119 -21.315  0.00  0.00     0.105 A 
ATOM     16  C   UNL d   1      33.240  20.352 -21.148  0.00  0.00     0.026 A 
ATOM     17  C   UNL d   1      32.990  19.715 -21.606  0.00  0.00     0.021 A 
BRANCH  15  18
ATOM     18  O   UNL d   1      33.203  21.760 -20.858  0.00  0.00    -0.260 OA
BRANCH  18  19
ATOM     19  C   UNL d   1      32.761  21.999 -20.196  0.00  0.00     0.391 C 
ATOM     20  F   UNL d   1      31.964  22.200 -20.276  0.00  0.00    -0.145 F 
ATOM     21  F   UNL d   1      33.127  22.037 -19.445  0.00  0.00    -0.145 F 
ENDBRANCH  18  19
ENDBRANCH  15  18
ENDBRANCH   1  12
TORSDOF 6
ENDMDL
MODEL 5
REMARK VINA RESULT:      -1.1      1.242      2.104
REMARK  6 active torsions:
REMARK  status: ('A' for Active; 'I' for Inactive)
REMARK    1  A    between atoms: N_2  and  C_1 
REMARK    2  A    between atoms: N_3  and  C_1 
REMARK    3  A    between atoms: C_8  and  N_3 
REMARK    4  A    between atoms: C_5  and  O_7 
REMARK    5  A    between atoms: C_17  and  C_6 
REMARK    6  A    between atoms: O_7  and  C_9 
ROOT
ATOM      1  N   UNL d   1      32.426  20.026 -22.767  0.00  0.00    -0.219 NA
ENDROOT
BRANCH   1   2
ATOM      2  C   UNL d   1      32.871  20.405 -22.178  0.00  0.00     0.206 C 
ATOM      3  S   UNL d   1      33.234  19.954 -21.592  0.00  0.00    -0.038 SA
BRANCH   2   4
ATOM      4  N   UNL d   1      32.947  21.233 -22.184  0.00  0.00    -0.282 N 
ATOM      5  C   UNL d   1      32.798  21.662 -21.501  0.00  0.00     0.066 A 
ATOM      6  C   UNL d   1      32.868  22.483 -21.487  0.00  0.00     0.018 A 
ATOM      7  C   UNL d   1      33.096  22.885 -22.184  0.00  0.00     0.003 A 
ATOM      8  C   UNL d   1      33.241  22.445 -22.857  0.00  0.00     0.019 A 
ATOM      9  C   UNL d   1      33.168  21.624 -22.860  0.00  0.00     0.082 A 
BRANCH   5  10
ATOM     10  C   UNL d   1      32.568  21.255 -20.797  0.00  0.00     0.018 C 
ATOM     11  C   UNL d   1      32.502  21.664 -20.103  0.00  0.00     0.002 C 
ENDBRANCH   5  10
ENDBRANCH   2   4
ENDBRANCH   1   2
BRANCH   1  12
ATOM     12  C   UNL d   1      32.627  19.272 -23.029  0.00  0.00     0.084 A 
ATOM     13  C   UNL d   1      32.877  18.695 -22.479  0.00  0.00     0.021 A 
ATOM     14  C   UNL d   1      33.077  17.952 -22.723  0.00  0.00     0.026 A 
ATOM     15  C   UNL d   1      33.037  17.748 -23.544  0.00  0.00     0.105 A 
ATOM     16  C   UNL d   1      32.787  18.326 -24.095  0.00  0.00     0.026 A 
ATOM     17  C   UNL d   1      32.585  19.079 -23.832  0.00  0.00     0.021 A 
BRANCH  15  18
ATOM     18  O   UNL d   1      33.239  16.992 -23.803  0.00  0.00    -0.260 OA
BRANCH  18  19
ATOM     19  C   UNL d   1      32.760  16.340 -23.610  0.00  0.00     0.391 C 
ATOM     20  F   UNL d   1      32.183  16.075 -24.137  0.00  0.00    -0.145 F 
ATOM     21  F   UNL d   1      32.866  15.951 -22.877  0.00  0.00    -0.145 F 
ENDBRANCH  18  19
ENDBRANCH  15  18
ENDBRANCH   1  12
TORSDOF 6
ENDMDL
MODEL 6
REMARK VINA RESULT:       0.5      3.443      5.644
REMARK  6 active torsions:
REMARK  status: ('A' for Active; 'I' for Inactive)
REMARK    1  A    between atoms: N_2  and  C_1 
REMARK    2  A    between atoms: N_3  and  C_1 
REMARK    3  A    between atoms: C_8  and  N_3 
REMARK    4  A    between atoms: C_5  and  O_7 
REMARK    5  A    between atoms: C_17  and  C_6 
REMARK    6  A    between atoms: O_7  and  C_9 
ROOT
ATOM      1  N   UNL d   1      31.348  17.453 -23.652  0.00  0.00    -0.219 NA
ENDROOT
BRANCH   1   2
ATOM      2  C   UNL d   1      30.931  17.290 -24.351  0.00  0.00     0.206 C 
ATOM      3  S   UNL d   1      31.157  17.658 -25.053  0.00  0.00    -0.038 SA
BRANCH   2   4
ATOM      4  N   UNL d   1      30.291  16.760 -24.337  0.00  0.00    -0.282 N 
ATOM      5  C   UNL d   1      29.558  16.996 -24.619  0.00  0.00     0.066 A 
ATOM      6  C   UNL d   1      28.912  16.484 -24.614  0.00  0.00     0.018 A 
ATOM      7  C   UNL d   1      29.007  15.709 -24.314  0.00  0.00     0.003 A 
ATOM      8  C   UNL d   1      29.743  15.488 -24.036  0.00  0.00     0.019 A 
ATOM      9  C   UNL d   1      30.383  16.008 -24.046  0.00  0.00     0.082 A 
BRANCH   5  10
ATOM     10  C   UNL d   1      29.462  17.779 -24.922  0.00  0.00     0.018 C 
ATOM     11  C   UNL d   1      28.719  18.083 -25.013  0.00  0.00     0.002 C 
ENDBRANCH   5  10
ENDBRANCH   2   4
ENDBRANCH   1   2
BRANCH   1  12
ATOM     12  C   UNL d   1      31.821  18.125 -23.589  0.00  0.00     0.084 A 
ATOM     13  C   UNL d   1      31.852  18.543 -22.866  0.00  0.00     0.021 A 
ATOM     14  C   UNL d   1      32.311  19.203 -22.792  0.00  0.00     0.026 A 
ATOM     15  C   UNL d   1      32.769  19.480 -23.448  0.00  0.00     0.105 A 
ATOM     16  C   UNL d   1      32.738  19.061 -24.171  0.00  0.00     0.026 A 
ATOM     17  C   UNL d   1      32.265  18.390 -24.234  0.00  0.00     0.021 A 
BRANCH  15  18
ATOM     18  O   UNL d   1      33.241  20.152 -23.382  0.00  0.00    -0.260 OA
BRANCH  18  19
ATOM     19  C   UNL d   1      33.113  20.806 -23.880  0.00  0.00     0.391 C 
ATOM     20  F   UNL d   1      32.928  21.544 -23.561  0.00  0.00    -0.145 F 
ATOM     21  F   UNL d   1      33.173  20.713 -24.709  0.00  0.00    -0.145 F 
ENDBRANCH  18  19
ENDBRANCH  15  18
ENDBRANCH   1  12
TORSDOF 6
ENDMDL
