MODEL 1
REMARK VINA RESULT:      16.6      0.000      0.000
REMARK  8 active torsions:
REMARK  status: ('A' for Active; 'I' for Inactive)
REMARK    1  A    between atoms: C_7  and  C_3 
REMARK    2  A    between atoms: C_9  and  C_4 
REMARK    3  A    between atoms: O_13  and  C_7 
REMARK    4  A    between atoms: O_15  and  C_12 
REMARK    5  A    between atoms: C_26  and  O_13 
REMARK    6  A    between atoms: O_25  and  C_14 
REMARK    7  A    between atoms: C_16  and  O_15 
REMARK    8  A    between atoms: C_28  and  O_25 
ROOT
ATOM      1  N   UNL d   1     -42.180-122.525 -54.348  0.00  0.00    -0.254 N 
ATOM      2  C   UNL d   1     -42.283-122.139 -55.070  0.00  0.00     0.182 A 
ATOM      3  C   UNL d   1     -42.086-121.266 -53.687  0.00  0.00     0.097 A 
ATOM      4  C   UNL d   1     -42.081-122.090 -53.655  0.00  0.00     0.075 A 
ATOM      5  N   UNL d   1     -42.287-121.316 -55.098  0.00  0.00    -0.222 NA
ATOM      6  C   UNL d   1     -42.189-120.877 -54.407  0.00  0.00     0.090 A 
ATOM      7  C   UNL d   1     -42.175-123.351 -54.314  0.00  0.00     0.267 A 
ATOM      8  S   UNL d   1     -42.380-122.572 -55.754  0.00  0.00    -0.049 SA
ATOM      9  C   UNL d   1     -42.275-123.781 -55.014  0.00  0.00     0.068 A 
ATOM     10  O   UNL d   1     -42.072-123.740 -53.594  0.00  0.00    -0.267 OA
ATOM     11  C   UNL d   1     -42.377-123.392 -55.734  0.00  0.00     0.043 A 
ATOM     12  C   UNL d   1     -42.193-120.057 -54.435  0.00  0.00     0.021 C 
ENDROOT
BRANCH   4  13
ATOM     13  C   UNL d   1     -41.979-122.480 -52.935  0.00  0.00     0.019 A 
ATOM     14  C   UNL d   1     -42.617-122.571 -52.426  0.00  0.00     0.028 A 
ATOM     15  C   UNL d   1     -42.514-122.961 -51.706  0.00  0.00     0.123 A 
ATOM     16  C   UNL d   1     -41.766-123.259 -51.497  0.00  0.00     0.126 A 
ATOM     17  C   UNL d   1     -41.125-123.164 -52.015  0.00  0.00     0.027 A 
ATOM     18  C   UNL d   1     -41.232-122.774 -52.734  0.00  0.00     0.004 A 
BRANCH  15  19
ATOM     19  O   UNL d   1     -43.151-123.055 -51.193  0.00  0.00    -0.303 OA
BRANCH  19  20
ATOM     20  C   UNL d   1     -43.817-122.574 -51.268  0.00  0.00     0.123 C 
ATOM     21  C   UNL d   1     -44.319-122.462 -50.625  0.00  0.00     0.029 C 
ENDBRANCH  19  20
ENDBRANCH  15  19
BRANCH  16  22
ATOM     22  O   UNL d   1     -41.659-123.649 -50.778  0.00  0.00    -0.271 OA
BRANCH  22  23
ATOM     23  C   UNL d   1     -41.326-123.253 -50.140  0.00  0.00     0.300 C 
ATOM     24  O   UNL d   1     -41.148-122.450 -50.205  0.00  0.00    -0.259 OA
ATOM     25  C   UNL d   1     -41.169-123.654 -49.439  0.00  0.00     0.074 C 
ENDBRANCH  22  23
ENDBRANCH  16  22
ENDBRANCH   4  13
BRANCH   3  26
ATOM     26  C   UNL d   1     -41.987-120.832 -52.993  0.00  0.00     0.303 C 
ATOM     27  O   UNL d   1     -42.620-120.715 -52.477  0.00  0.00    -0.259 OA
BRANCH  26  28
ATOM     28  O   UNL d   1     -41.245-120.513 -52.817  0.00  0.00    -0.273 OA
BRANCH  28  29
ATOM     29  C   UNL d   1     -41.191-119.797 -52.403  0.00  0.00     0.103 C 
ATOM     30  C   UNL d   1     -41.203-119.079 -52.807  0.00  0.00     0.027 C 
ATOM     31  C   UNL d   1     -41.124-119.803 -51.581  0.00  0.00     0.027 C 
ENDBRANCH  28  29
ENDBRANCH  26  28
ENDBRANCH   3  26
TORSDOF 8
ENDMDL
MODEL 2
REMARK VINA RESULT:      18.6      1.279      2.782
REMARK  8 active torsions:
REMARK  status: ('A' for Active; 'I' for Inactive)
REMARK    1  A    between atoms: C_7  and  C_3 
REMARK    2  A    between atoms: C_9  and  C_4 
REMARK    3  A    between atoms: O_13  and  C_7 
REMARK    4  A    between atoms: O_15  and  C_12 
REMARK    5  A    between atoms: C_26  and  O_13 
REMARK    6  A    between atoms: O_25  and  C_14 
REMARK    7  A    between atoms: C_16  and  O_15 
REMARK    8  A    between atoms: C_28  and  O_25 
ROOT
ATOM      1  N   UNL d   1     -41.543-120.625 -52.485  0.00  0.00    -0.254 N 
ATOM      2  C   UNL d   1     -41.486-120.153 -53.159  0.00  0.00     0.182 A 
ATOM      3  C   UNL d   1     -41.903-121.741 -53.294  0.00  0.00     0.097 A 
ATOM      4  C   UNL d   1     -41.751-121.419 -52.549  0.00  0.00     0.075 A 
ATOM      5  N   UNL d   1     -41.639-120.478 -53.900  0.00  0.00    -0.222 NA
ATOM      6  C   UNL d   1     -41.847-121.273 -53.970  0.00  0.00     0.090 A 
ATOM      7  C   UNL d   1     -41.391-120.304 -51.738  0.00  0.00     0.267 A 
ATOM      8  S   UNL d   1     -41.280-119.367 -53.092  0.00  0.00    -0.049 SA
ATOM      9  C   UNL d   1     -41.182-119.505 -51.680  0.00  0.00     0.068 A 
ATOM     10  O   UNL d   1     -41.446-120.773 -51.061  0.00  0.00    -0.267 OA
ATOM     11  C   UNL d   1     -41.127-119.037 -52.357  0.00  0.00     0.043 A 
ATOM     12  C   UNL d   1     -41.999-121.596 -54.709  0.00  0.00     0.021 C 
ENDROOT
BRANCH   4  13
ATOM     13  C   UNL d   1     -41.806-121.887 -51.873  0.00  0.00     0.019 A 
ATOM     14  C   UNL d   1     -42.533-121.986 -51.503  0.00  0.00     0.028 A 
ATOM     15  C   UNL d   1     -42.589-122.454 -50.826  0.00  0.00     0.123 A 
ATOM     16  C   UNL d   1     -41.909-122.826 -50.520  0.00  0.00     0.126 A 
ATOM     17  C   UNL d   1     -41.178-122.724 -50.897  0.00  0.00     0.027 A 
ATOM     18  C   UNL d   1     -41.127-122.254 -51.574  0.00  0.00     0.004 A 
BRANCH  15  19
ATOM     19  O   UNL d   1     -43.315-122.556 -50.452  0.00  0.00    -0.303 OA
BRANCH  19  20
ATOM     20  C   UNL d   1     -43.870-121.946 -50.455  0.00  0.00     0.123 C 
ATOM     21  C   UNL d   1     -44.580-122.033 -50.046  0.00  0.00     0.029 C 
ENDBRANCH  19  20
ENDBRANCH  15  19
BRANCH  16  22
ATOM     22  O   UNL d   1     -41.961-123.296 -49.843  0.00  0.00    -0.271 OA
BRANCH  22  23
ATOM     23  C   UNL d   1     -41.621-123.042 -49.139  0.00  0.00     0.300 C 
ATOM     24  O   UNL d   1     -41.138-122.373 -49.135  0.00  0.00    -0.259 OA
ATOM     25  C   UNL d   1     -41.761-123.453 -48.441  0.00  0.00     0.074 C 
ENDBRANCH  22  23
ENDBRANCH  16  22
ENDBRANCH   4  13
BRANCH   3  26
ATOM     26  C   UNL d   1     -42.111-122.536 -53.357  0.00  0.00     0.303 C 
ATOM     27  O   UNL d   1     -41.844-123.086 -52.804  0.00  0.00    -0.259 OA
BRANCH  26  28
ATOM     28  O   UNL d   1     -42.592-122.780 -53.984  0.00  0.00    -0.273 OA
BRANCH  28  29
ATOM     29  C   UNL d   1     -42.323-123.360 -54.510  0.00  0.00     0.103 C 
ATOM     30  C   UNL d   1     -42.815-123.645 -55.106  0.00  0.00     0.027 C 
ATOM     31  C   UNL d   1     -41.556-123.656 -54.437  0.00  0.00     0.027 C 
ENDBRANCH  28  29
ENDBRANCH  26  28
ENDBRANCH   3  26
TORSDOF 8
ENDMDL
