MODEL 1
REMARK VINA RESULT:      32.0      0.000      0.000
REMARK  2 active torsions:
REMARK  status: ('A' for Active; 'I' for Inactive)
REMARK    1  A    between atoms: C_6  and  N_1 
REMARK    2  A    between atoms: C_7  and  C_6 
ROOT
ATOM      1  N   UNL d   1     -58.958 -98.933 -45.516  0.00  0.00    -0.268 N 
ATOM      2  C   UNL d   1     -57.894 -98.898 -45.494  0.00  0.00     0.265 A 
ATOM      3  C   UNL d   1     -59.150 -98.896 -44.736  0.00  0.00     0.067 A 
ATOM      4  C   UNL d   1     -57.738 -98.849 -44.707  0.00  0.00     0.058 A 
ATOM      5  C   UNL d   1     -58.444 -98.849 -44.308  0.00  0.00     0.021 A 
ATOM      6  O   UNL d   1     -57.272 -98.910 -46.048  0.00  0.00    -0.267 OA
ATOM      7  C   UNL d   1     -58.462 -98.804 -43.484  0.00  0.00     0.002 A 
ATOM      8  C   UNL d   1     -59.871 -98.896 -44.337  0.00  0.00     0.018 A 
ATOM      9  C   UNL d   1     -57.027 -98.803 -44.279  0.00  0.00     0.005 A 
ATOM     10  C   UNL d   1     -59.889 -98.851 -43.513  0.00  0.00     0.002 A 
ATOM     11  C   UNL d   1     -57.045 -98.757 -43.456  0.00  0.00     0.000 A 
ATOM     12  C   UNL d   1     -57.774 -98.758 -43.053  0.00  0.00     0.000 A 
ATOM     13  C   UNL d   1     -59.186 -98.804 -43.081  0.00  0.00     0.000 A 
ENDROOT
BRANCH   1  14
ATOM     14  C   UNL d   1     -59.556 -98.985 -46.094  0.00  0.00     0.154 C 
BRANCH  14  15
ATOM     15  C   UNL d   1     -59.342 -98.886 -46.890  0.00  0.00     0.230 C 
ATOM     16  O   UNL d   1     -59.938 -98.829 -47.439  0.00  0.00    -0.643 OA
ATOM     17  O   UNL d   1     -58.571 -98.848 -47.115  0.00  0.00    -0.643 OA
ENDBRANCH  14  15
ENDBRANCH   1  14
TORSDOF 2
ENDMDL
