MODEL 1
REMARK VINA RESULT:      35.4      0.000      0.000
REMARK  7 active torsions:
REMARK  status: ('A' for Active; 'I' for Inactive)
REMARK    1  A    between atoms: C_6  and  C_13 
REMARK       I    between atoms: N_12  and  C_6 
REMARK    2  A    between atoms: O_8  and  C_7 
REMARK    3  A    between atoms: C_13  and  O_8 
REMARK    4  A    between atoms: O_14  and  C_10 
REMARK    5  A    between atoms: C_11  and  C_20 
REMARK    6  A    between atoms: C_15  and  N_12 
REMARK    7  A    between atoms: C_20  and  C_15 
ROOT
ATOM      1  C   UNL d   1      14.385  12.183  -1.705  0.00  0.00     0.304 C 
ATOM      2  O   UNL d   1      15.004  11.782  -2.081  0.00  0.00    -0.263 OA
ATOM      3  N   UNL d   1      13.654  12.274  -2.069  0.00  0.00    -0.205 NA
ENDROOT
BRANCH   1   4
ATOM      4  C   UNL d   1      14.506  12.498  -0.950  0.00  0.00     0.185 C 
BRANCH   4   5
ATOM      5  O   UNL d   1      14.462  13.311  -0.834  0.00  0.00    -0.298 OA
BRANCH   5   6
ATOM      6  C   UNL d   1      15.125  13.723  -0.590  0.00  0.00     0.122 A 
ATOM      7  C   UNL d   1      15.156  14.544  -0.673  0.00  0.00     0.117 A 
ATOM      8  O   UNL d   1      14.606  15.088  -0.979  0.00  0.00    -0.330 OA
ATOM      9  C   UNL d   1      15.826  14.960  -0.427  0.00  0.00     0.022 A 
ATOM     10  C   UNL d   1      14.943  15.845  -0.920  0.00  0.00     0.117 A 
ATOM     11  C   UNL d   1      15.343  16.544  -0.826  0.00  0.00     0.035 C 
ATOM     12  C   UNL d   1      14.222  16.044  -1.261  0.00  0.00     0.035 C 
ATOM     13  C   UNL d   1      15.692  15.763  -0.580  0.00  0.00     0.003 A 
ATOM     14  C   UNL d   1      16.462  14.555  -0.098  0.00  0.00     0.002 A 
ATOM     15  C   UNL d   1      16.430  13.747  -0.017  0.00  0.00     0.002 A 
ATOM     16  C   UNL d   1      15.760  13.330  -0.264  0.00  0.00     0.027 A 
ENDBRANCH   5   6
ENDBRANCH   4   5
ENDBRANCH   1   4
BRANCH   3  17
ATOM     17  C   UNL d   1      13.534  11.963  -2.816  0.00  0.00     0.102 C 
BRANCH  17  18
ATOM     18  C   UNL d   1      12.883  12.200  -3.272  0.00  0.00     0.023 C 
BRANCH  18  19
ATOM     19  C   UNL d   1      12.976  12.388  -4.064  0.00  0.00     0.024 A 
ATOM     20  C   UNL d   1      12.943  13.175  -4.308  0.00  0.00     0.094 A 
ATOM     21  C   UNL d   1      13.038  13.353  -5.110  0.00  0.00     0.024 A 
ATOM     22  C   UNL d   1      13.163  12.755  -5.665  0.00  0.00     0.002 A 
ATOM     23  C   UNL d   1      13.196  11.974  -5.428  0.00  0.00     0.000 A 
ATOM     24  C   UNL d   1      13.104  11.781  -4.634  0.00  0.00     0.002 A 
BRANCH  20  25
ATOM     25  O   UNL d   1      12.820  13.766  -3.762  0.00  0.00    -0.328 OA
ATOM     26  C   UNL d   1      12.849  14.549  -3.998  0.00  0.00     0.181 C 
ENDBRANCH  20  25
ENDBRANCH  18  19
ENDBRANCH  17  18
ENDBRANCH   3  17
TORSDOF 7
ENDMDL
MODEL 2
REMARK VINA RESULT:      37.2      1.556      3.040
REMARK  7 active torsions:
REMARK  status: ('A' for Active; 'I' for Inactive)
REMARK    1  A    between atoms: C_6  and  C_13 
REMARK       I    between atoms: N_12  and  C_6 
REMARK    2  A    between atoms: O_8  and  C_7 
REMARK    3  A    between atoms: C_13  and  O_8 
REMARK    4  A    between atoms: O_14  and  C_10 
REMARK    5  A    between atoms: C_11  and  C_20 
REMARK    6  A    between atoms: C_15  and  N_12 
REMARK    7  A    between atoms: C_20  and  C_15 
ROOT
ATOM      1  C   UNL d   1      13.251  12.648  -3.687  0.00  0.00     0.304 C 
ATOM      2  O   UNL d   1      13.569  12.329  -4.381  0.00  0.00    -0.263 OA
ATOM      3  N   UNL d   1      13.059  13.445  -3.635  0.00  0.00    -0.205 NA
ENDROOT
BRANCH   1   4
ATOM      4  C   UNL d   1      13.127  12.155  -3.034  0.00  0.00     0.185 C 
BRANCH   4   5
ATOM      5  O   UNL d   1      13.756  11.967  -2.538  0.00  0.00    -0.298 OA
BRANCH   5   6
ATOM      6  C   UNL d   1      13.667  12.029  -1.728  0.00  0.00     0.122 A 
ATOM      7  C   UNL d   1      14.280  12.333  -1.266  0.00  0.00     0.117 A 
ATOM      8  O   UNL d   1      15.036  12.615  -1.471  0.00  0.00    -0.330 OA
ATOM      9  C   UNL d   1      14.191  12.396  -0.448  0.00  0.00     0.022 A 
ATOM     10  C   UNL d   1      15.413  12.852  -0.770  0.00  0.00     0.117 A 
ATOM     11  C   UNL d   1      15.706  13.059  -0.042  0.00  0.00     0.035 C 
ATOM     12  C   UNL d   1      16.008  13.028  -1.308  0.00  0.00     0.035 C 
ATOM     13  C   UNL d   1      14.890  12.717  -0.142  0.00  0.00     0.003 A 
ATOM     14  C   UNL d   1      13.488  12.155  -0.093  0.00  0.00     0.002 A 
ATOM     15  C   UNL d   1      12.886  11.855  -0.549  0.00  0.00     0.002 A 
ATOM     16  C   UNL d   1      12.976  11.792  -1.367  0.00  0.00     0.027 A 
ENDBRANCH   5   6
ENDBRANCH   4   5
ENDBRANCH   1   4
BRANCH   3  17
ATOM     17  C   UNL d   1      13.182  13.932  -4.280  0.00  0.00     0.102 C 
BRANCH  17  18
ATOM     18  C   UNL d   1      13.223  14.755  -4.185  0.00  0.00     0.023 C 
BRANCH  18  19
ATOM     19  C   UNL d   1      13.767  15.197  -4.610  0.00  0.00     0.024 A 
ATOM     20  C   UNL d   1      14.270  15.720  -4.219  0.00  0.00     0.094 A 
ATOM     21  C   UNL d   1      14.814  16.161  -4.659  0.00  0.00     0.024 A 
ATOM     22  C   UNL d   1      14.859  16.083  -5.479  0.00  0.00     0.002 A 
ATOM     23  C   UNL d   1      14.362  15.565  -5.871  0.00  0.00     0.000 A 
ATOM     24  C   UNL d   1      13.816  15.120  -5.448  0.00  0.00     0.002 A 
BRANCH  20  25
ATOM     25  O   UNL d   1      14.227  15.799  -3.411  0.00  0.00    -0.328 OA
ATOM     26  C   UNL d   1      14.766  16.274  -3.020  0.00  0.00     0.181 C 
ENDBRANCH  20  25
ENDBRANCH  18  19
ENDBRANCH  17  18
ENDBRANCH   3  17
TORSDOF 7
ENDMDL
