MODEL 1
REMARK VINA RESULT:      52.8      0.000      0.000
REMARK  3 active torsions:
REMARK  status: ('A' for Active; 'I' for Inactive)
REMARK    1  A    between atoms: C_8  and  C_1 
REMARK    2  A    between atoms: C_3  and  N_14 
REMARK       I    between atoms: N_13  and  C_8 
REMARK    3  A    between atoms: N_14  and  N_13 
ROOT
ATOM      1  C   UNL d   1     -55.299 -99.174 -44.100  0.00  0.00     0.320 C 
ATOM      2  N   UNL d   1     -55.845 -98.822 -44.598  0.00  0.00    -0.102 NA
ATOM      3  O   UNL d   1     -54.721 -98.870 -43.582  0.00  0.00    -0.261 OA
ENDROOT
BRANCH   1   4
ATOM      4  C   UNL d   1     -55.317 -99.995 -44.107  0.00  0.00     0.162 A 
ATOM      5  C   UNL d   1     -55.586-100.399 -43.448  0.00  0.00     0.072 A 
ATOM      6  C   UNL d   1     -55.607-101.223 -43.448  0.00  0.00     0.200 A 
ATOM      7  O   UNL d   1     -55.884-101.637 -42.772  0.00  0.00    -0.286 OA
ATOM      8  C   UNL d   1     -55.355-101.645 -44.116  0.00  0.00     0.062 A 
ATOM      9  C   UNL d   1     -55.086-101.237 -44.774  0.00  0.00     0.103 A 
ATOM     10  C   UNL d   1     -55.376-102.469 -44.117  0.00  0.00     0.005 A 
ATOM     11  O   UNL d   1     -55.068-100.416 -44.767  0.00  0.00    -0.302 OA
ATOM     12  C   UNL d   1     -54.836-101.647 -45.437  0.00  0.00     0.025 A 
ATOM     13  C   UNL d   1     -54.854-102.472 -45.445  0.00  0.00     0.002 A 
ATOM     14  C   UNL d   1     -55.126-102.880 -44.779  0.00  0.00     0.000 A 
ENDBRANCH   1   4
BRANCH   2  15
ATOM     15  N   UNL d   1     -56.347 -99.293 -45.045  0.00  0.00    -0.118 NA
BRANCH  15  16
ATOM     16  C   UNL d   1     -57.170 -99.174 -45.017  0.00  0.00     0.215 A 
ATOM     17  N   UNL d   1     -57.627 -99.113 -44.338  0.00  0.00    -0.219 NA
ATOM     18  C   UNL d   1     -58.410 -98.999 -44.554  0.00  0.00     0.090 A 
ATOM     19  C   UNL d   1     -59.100 -98.902 -44.119  0.00  0.00     0.018 A 
ATOM     20  C   UNL d   1     -58.437 -98.988 -45.385  0.00  0.00     0.050 A 
ATOM     21  C   UNL d   1     -59.820 -98.795 -44.508  0.00  0.00     0.002 A 
ATOM     22  C   UNL d   1     -59.070 -98.913 -43.290  0.00  0.00     0.002 C 
ATOM     23  C   UNL d   1     -59.845 -98.785 -45.331  0.00  0.00     0.001 A 
ATOM     24  C   UNL d   1     -59.152 -98.882 -45.783  0.00  0.00     0.008 A 
ATOM     25  S   UNL d   1     -57.672 -99.097 -45.665  0.00  0.00    -0.045 SA
ENDBRANCH  15  16
ENDBRANCH   2  15
TORSDOF 3
ENDMDL
