MODEL 1
REMARK VINA RESULT:     128.4      0.000      0.000
REMARK  5 active torsions:
REMARK  status: ('A' for Active; 'I' for Inactive)
REMARK    1  A    between atoms: N_5  and  C_1 
REMARK    2  A    between atoms: N_8  and  C_2 
REMARK    3  A    between atoms: C_26  and  N_4 
REMARK    4  A    between atoms: C_22  and  N_9 
REMARK    5  A    between atoms: C_21  and  C_22 
ROOT
ATOM      1  C   UNL d   1      61.748  45.368  49.878  0.00  0.00     0.199 A 
ATOM      2  C   UNL d   1      61.390  45.658  50.572  0.00  0.00     0.092 A 
ATOM      3  C   UNL d   1      61.952  44.572  49.813  0.00  0.00     0.288 A 
ATOM      4  N   UNL d   1      61.798  44.057  50.446  0.00  0.00    -0.272 N 
ATOM      5  C   UNL d   1      61.240  45.136  51.201  0.00  0.00     0.034 A 
ATOM      6  C   UNL d   1      61.444  44.338  51.136  0.00  0.00     0.068 A 
ATOM      7  O   UNL d   1      62.305  44.291  49.123  0.00  0.00    -0.265 OA
ATOM      8  C   UNL d   1      60.886  45.417  51.891  0.00  0.00     0.003 A 
ATOM      9  C   UNL d   1      61.293  43.823  51.762  0.00  0.00     0.018 A 
ATOM     10  C   UNL d   1      60.736  44.900  52.517  0.00  0.00     0.000 A 
ATOM     11  C   UNL d   1      60.939  44.104  52.452  0.00  0.00     0.002 A 
ENDROOT
BRANCH   2  12
ATOM     12  N   UNL d   1      61.187  46.446  50.641  0.00  0.00    -0.300 N 
ATOM     13  C   UNL d   1      61.712  47.025  50.381  0.00  0.00     0.100 A 
ATOM     14  C   UNL d   1      61.512  47.828  50.448  0.00  0.00     0.100 A 
ATOM     15  N   UNL d   1      60.788  48.049  50.774  0.00  0.00    -0.300 N 
ATOM     16  C   UNL d   1      60.259  47.467  51.036  0.00  0.00     0.100 A 
ATOM     17  C   UNL d   1      60.463  46.670  50.967  0.00  0.00     0.100 A 
BRANCH  15  18
ATOM     18  C   UNL d   1      60.587  48.844  50.842  0.00  0.00     0.080 C 
BRANCH  18  19
ATOM     19  C   UNL d   1      59.798  49.062  50.934  0.00  0.00     0.020 A 
ATOM     20  C   UNL d   1      59.315  49.145  50.274  0.00  0.00     0.028 A 
ATOM     21  C   UNL d   1      58.527  49.363  50.366  0.00  0.00     0.119 A 
ATOM     22  O   UNL d   1      57.922  49.487  49.822  0.00  0.00    -0.300 OA
ATOM     23  C   UNL d   1      58.222  49.499  51.120  0.00  0.00     0.119 A 
ATOM     24  C   UNL d   1      57.240  49.699  50.237  0.00  0.00     0.304 A 
ATOM     25  O   UNL d   1      57.424  49.707  51.043  0.00  0.00    -0.300 OA
ATOM     26  C   UNL d   1      58.709  49.415  51.784  0.00  0.00     0.026 A 
ATOM     27  C   UNL d   1      59.498  49.197  51.691  0.00  0.00     0.004 A 
ENDBRANCH  18  19
ENDBRANCH  15  18
ENDBRANCH   2  12
BRANCH   1  28
ATOM     28  N   UNL d   1      61.898  45.889  49.250  0.00  0.00    -0.107 N 
ATOM     29  O   UNL d   1      61.270  46.220  48.833  0.00  0.00    -0.531 OA
ATOM     30  O   UNL d   1      62.677  46.075  49.041  0.00  0.00    -0.531 OA
ENDBRANCH   1  28
BRANCH   4  31
ATOM     31  C   UNL d   1      62.001  43.262  50.382  0.00  0.00     0.083 C 
ATOM     32  C   UNL d   1      62.278  42.958  49.660  0.00  0.00     0.021 C 
ENDBRANCH   4  31
TORSDOF 5
ENDMDL
MODEL 2
REMARK VINA RESULT:     130.5      1.998      5.430
REMARK  5 active torsions:
REMARK  status: ('A' for Active; 'I' for Inactive)
REMARK    1  A    between atoms: N_5  and  C_1 
REMARK    2  A    between atoms: N_8  and  C_2 
REMARK    3  A    between atoms: C_26  and  N_4 
REMARK    4  A    between atoms: C_22  and  N_9 
REMARK    5  A    between atoms: C_21  and  C_22 
ROOT
ATOM      1  C   UNL d   1      60.990  47.546  51.443  0.00  0.00     0.199 A 
ATOM      2  C   UNL d   1      61.083  47.572  50.615  0.00  0.00     0.092 A 
ATOM      3  C   UNL d   1      60.768  48.219  51.862  0.00  0.00     0.288 A 
ATOM      4  N   UNL d   1      60.637  48.930  51.453  0.00  0.00    -0.272 N 
ATOM      5  C   UNL d   1      60.949  48.287  50.214  0.00  0.00     0.034 A 
ATOM      6  C   UNL d   1      60.727  48.964  50.634  0.00  0.00     0.068 A 
ATOM      7  O   UNL d   1      60.678  48.185  52.680  0.00  0.00    -0.265 OA
ATOM      8  C   UNL d   1      61.039  48.321  49.395  0.00  0.00     0.003 A 
ATOM      9  C   UNL d   1      60.595  49.672  50.233  0.00  0.00     0.018 A 
ATOM     10  C   UNL d   1      60.907  49.032  48.995  0.00  0.00     0.000 A 
ATOM     11  C   UNL d   1      60.685  49.706  49.413  0.00  0.00     0.002 A 
ENDROOT
BRANCH   2  12
ATOM     12  N   UNL d   1      61.303  46.907  50.196  0.00  0.00    -0.300 N 
ATOM     13  C   UNL d   1      62.076  46.838  49.920  0.00  0.00     0.100 A 
ATOM     14  C   UNL d   1      62.307  46.165  49.493  0.00  0.00     0.100 A 
ATOM     15  N   UNL d   1      61.763  45.562  49.343  0.00  0.00    -0.300 N 
ATOM     16  C   UNL d   1      60.985  45.631  49.621  0.00  0.00     0.100 A 
ATOM     17  C   UNL d   1      60.762  46.303  50.045  0.00  0.00     0.100 A 
BRANCH  15  18
ATOM     18  C   UNL d   1      61.989  44.894  48.920  0.00  0.00     0.080 C 
BRANCH  18  19
ATOM     19  C   UNL d   1      62.127  44.185  49.315  0.00  0.00     0.020 A 
ATOM     20  C   UNL d   1      62.589  44.178  49.996  0.00  0.00     0.028 A 
ATOM     21  C   UNL d   1      62.727  43.469  50.391  0.00  0.00     0.119 A 
ATOM     22  O   UNL d   1      63.156  43.291  51.071  0.00  0.00    -0.300 OA
ATOM     23  C   UNL d   1      62.402  42.766  50.105  0.00  0.00     0.119 A 
ATOM     24  C   UNL d   1      63.099  42.478  51.208  0.00  0.00     0.304 A 
ATOM     25  O   UNL d   1      62.632  42.151  50.609  0.00  0.00    -0.300 OA
ATOM     26  C   UNL d   1      61.938  42.775  49.420  0.00  0.00     0.026 A 
ATOM     27  C   UNL d   1      61.801  43.485  49.025  0.00  0.00     0.004 A 
ENDBRANCH  18  19
ENDBRANCH  15  18
ENDBRANCH   2  12
BRANCH   1  28
ATOM     28  N   UNL d   1      61.124  46.831  51.843  0.00  0.00    -0.107 N 
ATOM     29  O   UNL d   1      60.514  46.281  51.915  0.00  0.00    -0.531 OA
ATOM     30  O   UNL d   1      61.866  46.670  52.171  0.00  0.00    -0.531 OA
ENDBRANCH   1  28
BRANCH   4  31
ATOM     31  C   UNL d   1      60.415  49.604  51.871  0.00  0.00     0.083 C 
ATOM     32  C   UNL d   1      60.654  49.704  52.660  0.00  0.00     0.021 C 
ENDBRANCH   4  31
TORSDOF 5
ENDMDL
