MODEL 1
REMARK VINA RESULT:     -10.2      0.000      0.000
REMARK  5 active torsions:
REMARK  status: ('A' for Active; 'I' for Inactive)
REMARK    1  A    between atoms: C_14  and  C_3 
REMARK    2  A    between atoms: C_8  and  C_4 
REMARK    3  A    between atoms: N_10  and  C_9 
REMARK    4  A    between atoms: O_21  and  C_14 
REMARK    5  A    between atoms: C_25  and  O_21 
ROOT
ATOM      1  C   UNL d   1      52.879  32.420  53.345  0.00  0.00     0.059 A 
ATOM      2  C   UNL d   1      53.487  32.049  53.760  0.00  0.00     0.085 A 
ATOM      3  C   UNL d   1      53.347  33.689  53.794  0.00  0.00     0.083 A 
ATOM      4  C   UNL d   1      52.812  33.239  53.364  0.00  0.00     0.034 A 
ATOM      5  N   UNL d   1      54.026  32.488  54.191  0.00  0.00    -0.245 NA
ATOM      6  C   UNL d   1      52.431  31.839  52.968  0.00  0.00     0.197 A 
ATOM      7  C   UNL d   1      53.958  33.316  54.211  0.00  0.00     0.087 A 
ATOM      8  C   UNL d   1      53.416  31.233  53.639  0.00  0.00     0.021 A 
ATOM      9  C   UNL d   1      52.766  31.103  53.152  0.00  0.00     0.041 A 
ATOM     10  O   UNL d   1      51.767  31.967  52.492  0.00  0.00    -0.286 OA
ATOM     11  C   UNL d   1      54.497  33.765  54.644  0.00  0.00     0.021 C 
ATOM     12  C   UNL d   1      53.863  30.584  53.912  0.00  0.00     0.002 A 
ATOM     13  C   UNL d   1      52.554  30.333  52.931  0.00  0.00     0.003 A 
ATOM     14  C   UNL d   1      53.650  29.823  53.692  0.00  0.00     0.000 A 
ATOM     15  C   UNL d   1      53.002  29.691  53.206  0.00  0.00     0.000 A 
ENDROOT
BRANCH   4  16
ATOM     16  C   UNL d   1      52.203  33.610  52.949  0.00  0.00     0.102 A 
ATOM     17  O   UNL d   1      51.439  33.753  53.228  0.00  0.00    -0.286 OA
ATOM     18  C   UNL d   1      51.016  34.133  52.639  0.00  0.00     0.227 A 
ATOM     19  C   UNL d   1      51.511  34.231  51.986  0.00  0.00     0.051 A 
ATOM     20  C   UNL d   1      52.250  33.907  52.176  0.00  0.00     0.029 A 
BRANCH  18  21
ATOM     21  N   UNL d   1      50.225  34.381  52.680  0.00  0.00    -0.089 N 
ATOM     22  O   UNL d   1      49.909  34.649  53.388  0.00  0.00    -0.530 OA
ATOM     23  O   UNL d   1      49.757  34.357  51.994  0.00  0.00    -0.530 OA
ENDBRANCH  18  21
ENDBRANCH   4  16
BRANCH   3  24
ATOM     24  C   UNL d   1      53.281  34.511  53.815  0.00  0.00     0.302 C 
ATOM     25  O   UNL d   1      53.534  34.957  53.169  0.00  0.00    -0.259 OA
BRANCH  24  26
ATOM     26  O   UNL d   1      52.966  34.885  54.477  0.00  0.00    -0.271 OA
BRANCH  26  27
ATOM     27  C   UNL d   1      53.135  35.679  54.618  0.00  0.00     0.126 C 
ATOM     28  C   UNL d   1      52.689  36.101  55.166  0.00  0.00     0.029 C 
ENDBRANCH  26  27
ENDBRANCH  24  26
ENDBRANCH   3  24
TORSDOF 5
ENDMDL
MODEL 2
REMARK VINA RESULT:      -8.7      1.600      4.191
REMARK  5 active torsions:
REMARK  status: ('A' for Active; 'I' for Inactive)
REMARK    1  A    between atoms: C_14  and  C_3 
REMARK    2  A    between atoms: C_8  and  C_4 
REMARK    3  A    between atoms: N_10  and  C_9 
REMARK    4  A    between atoms: O_21  and  C_14 
REMARK    5  A    between atoms: C_25  and  O_21 
ROOT
ATOM      1  C   UNL d   1      52.440  33.029  53.479  0.00  0.00     0.059 A 
ATOM      2  C   UNL d   1      51.878  32.795  52.921  0.00  0.00     0.085 A 
ATOM      3  C   UNL d   1      53.068  31.754  53.382  0.00  0.00     0.083 A 
ATOM      4  C   UNL d   1      53.032  32.507  53.706  0.00  0.00     0.034 A 
ATOM      5  N   UNL d   1      51.905  32.046  52.592  0.00  0.00    -0.245 NA
ATOM      6  C   UNL d   1      52.270  33.803  53.706  0.00  0.00     0.197 A 
ATOM      7  C   UNL d   1      52.504  31.518  52.822  0.00  0.00     0.087 A 
ATOM      8  C   UNL d   1      51.358  33.428  52.803  0.00  0.00     0.021 A 
ATOM      9  C   UNL d   1      51.598  34.049  53.286  0.00  0.00     0.041 A 
ATOM     10  O   UNL d   1      52.693  34.255  54.255  0.00  0.00    -0.286 OA
ATOM     11  C   UNL d   1      52.537  30.763  52.495  0.00  0.00     0.021 C 
ATOM     12  C   UNL d   1      50.689  33.521  52.314  0.00  0.00     0.002 A 
ATOM     13  C   UNL d   1      51.181  34.765  53.288  0.00  0.00     0.003 A 
ATOM     14  C   UNL d   1      50.278  34.231  52.319  0.00  0.00     0.000 A 
ATOM     15  C   UNL d   1      50.516  34.851  52.799  0.00  0.00     0.000 A 
ENDROOT
BRANCH   4  16
ATOM     16  C   UNL d   1      53.593  32.741  54.263  0.00  0.00     0.102 A 
ATOM     17  O   UNL d   1      54.281  33.172  54.111  0.00  0.00    -0.286 OA
ATOM     18  C   UNL d   1      54.678  33.284  54.818  0.00  0.00     0.227 A 
ATOM     19  C   UNL d   1      54.243  32.924  55.420  0.00  0.00     0.051 A 
ATOM     20  C   UNL d   1      53.567  32.586  55.078  0.00  0.00     0.029 A 
BRANCH  18  21
ATOM     21  N   UNL d   1      55.395  33.687  54.925  0.00  0.00    -0.089 N 
ATOM     22  O   UNL d   1      55.939  33.739  54.312  0.00  0.00    -0.530 OA
ATOM     23  O   UNL d   1      55.558  34.039  55.660  0.00  0.00    -0.530 OA
ENDBRANCH  18  21
ENDBRANCH   4  16
BRANCH   3  24
ATOM     24  C   UNL d   1      53.662  31.228  53.609  0.00  0.00     0.302 C 
ATOM     25  O   UNL d   1      54.419  31.306  53.291  0.00  0.00    -0.259 OA
BRANCH  24  26
ATOM     26  O   UNL d   1      53.501  30.629  54.150  0.00  0.00    -0.271 OA
BRANCH  26  27
ATOM     27  C   UNL d   1      53.817  29.877  54.034  0.00  0.00     0.126 C 
ATOM     28  C   UNL d   1      53.649  29.275  54.570  0.00  0.00     0.029 C 
ENDBRANCH  26  27
ENDBRANCH  24  26
ENDBRANCH   3  24
TORSDOF 5
ENDMDL
MODEL 3
REMARK VINA RESULT:      -8.6      1.376      2.880
REMARK  5 active torsions:
REMARK  status: ('A' for Active; 'I' for Inactive)
REMARK    1  A    between atoms: C_14  and  C_3 
REMARK    2  A    between atoms: C_8  and  C_4 
REMARK    3  A    between atoms: N_10  and  C_9 
REMARK    4  A    between atoms: O_21  and  C_14 
REMARK    5  A    between atoms: C_25  and  O_21 
ROOT
ATOM      1  C   UNL d   1      53.232  31.944  53.507  0.00  0.00     0.059 A 
ATOM      2  C   UNL d   1      52.532  31.634  53.199  0.00  0.00     0.085 A 
ATOM      3  C   UNL d   1      52.739  33.264  53.301  0.00  0.00     0.083 A 
ATOM      4  C   UNL d   1      53.331  32.758  53.556  0.00  0.00     0.034 A 
ATOM      5  N   UNL d   1      51.935  32.130  52.941  0.00  0.00    -0.245 NA
ATOM      6  C   UNL d   1      53.723  31.315  53.716  0.00  0.00     0.197 A 
ATOM      7  C   UNL d   1      52.035  32.953  52.991  0.00  0.00     0.087 A 
ATOM      8  C   UNL d   1      52.590  30.808  53.218  0.00  0.00     0.021 A 
ATOM      9  C   UNL d   1      53.322  30.611  53.536  0.00  0.00     0.041 A 
ATOM     10  O   UNL d   1      54.479  31.374  54.047  0.00  0.00    -0.286 OA
ATOM     11  C   UNL d   1      51.438  33.459  52.734  0.00  0.00     0.021 C 
ATOM     12  C   UNL d   1      52.065  30.204  52.984  0.00  0.00     0.002 A 
ATOM     13  C   UNL d   1      53.541  29.816  53.626  0.00  0.00     0.003 A 
ATOM     14  C   UNL d   1      52.285  29.418  53.074  0.00  0.00     0.000 A 
ATOM     15  C   UNL d   1      53.015  29.219  53.391  0.00  0.00     0.000 A 
ENDROOT
BRANCH   4  16
ATOM     16  C   UNL d   1      54.031  33.067  53.864  0.00  0.00     0.102 A 
ATOM     17  O   UNL d   1      54.160  33.298  54.646  0.00  0.00    -0.286 OA
ATOM     18  C   UNL d   1      54.928  33.573  54.711  0.00  0.00     0.227 A 
ATOM     19  C   UNL d   1      55.288  33.516  53.971  0.00  0.00     0.051 A 
ATOM     20  C   UNL d   1      54.733  33.202  53.442  0.00  0.00     0.029 A 
BRANCH  18  21
ATOM     21  N   UNL d   1      55.294  33.861  55.399  0.00  0.00    -0.089 N 
ATOM     22  O   UNL d   1      55.035  33.622  56.140  0.00  0.00    -0.530 OA
ATOM     23  O   UNL d   1      55.927  34.395  55.328  0.00  0.00    -0.530 OA
ENDBRANCH  18  21
ENDBRANCH   4  16
BRANCH   3  24
ATOM     24  C   UNL d   1      52.836  34.082  53.350  0.00  0.00     0.302 C 
ATOM     25  O   UNL d   1      53.230  34.483  52.745  0.00  0.00    -0.259 OA
BRANCH  24  26
ATOM     26  O   UNL d   1      52.543  34.497  53.997  0.00  0.00    -0.271 OA
BRANCH  26  27
ATOM     27  C   UNL d   1      52.418  35.309  53.941  0.00  0.00     0.126 C 
ATOM     28  C   UNL d   1      52.357  35.762  54.625  0.00  0.00     0.029 C 
ENDBRANCH  26  27
ENDBRANCH  24  26
ENDBRANCH   3  24
TORSDOF 5
ENDMDL
MODEL 4
REMARK VINA RESULT:      -8.1      1.468      3.532
REMARK  5 active torsions:
REMARK  status: ('A' for Active; 'I' for Inactive)
REMARK    1  A    between atoms: C_14  and  C_3 
REMARK    2  A    between atoms: C_8  and  C_4 
REMARK    3  A    between atoms: N_10  and  C_9 
REMARK    4  A    between atoms: O_21  and  C_14 
REMARK    5  A    between atoms: C_25  and  O_21 
ROOT
ATOM      1  C   UNL d   1      52.191  33.390  53.429  0.00  0.00     0.059 A 
ATOM      2  C   UNL d   1      51.853  34.118  53.619  0.00  0.00     0.085 A 
ATOM      3  C   UNL d   1      53.205  33.606  54.407  0.00  0.00     0.083 A 
ATOM      4  C   UNL d   1      52.866  33.138  53.824  0.00  0.00     0.034 A 
ATOM      5  N   UNL d   1      52.182  34.593  54.198  0.00  0.00    -0.245 NA
ATOM      6  C   UNL d   1      51.740  33.044  52.832  0.00  0.00     0.197 A 
ATOM      7  C   UNL d   1      52.864  34.338  54.598  0.00  0.00     0.087 A 
ATOM      8  C   UNL d   1      51.188  34.223  53.136  0.00  0.00     0.021 A 
ATOM      9  C   UNL d   1      51.118  33.562  52.651  0.00  0.00     0.041 A 
ATOM     10  O   UNL d   1      51.882  32.311  52.475  0.00  0.00    -0.286 OA
ATOM     11  C   UNL d   1      53.202  34.810  55.183  0.00  0.00     0.021 C 
ATOM     12  C   UNL d   1      50.631  34.840  53.074  0.00  0.00     0.002 A 
ATOM     13  C   UNL d   1      50.499  33.507  52.103  0.00  0.00     0.003 A 
ATOM     14  C   UNL d   1      50.019  34.782  52.531  0.00  0.00     0.000 A 
ATOM     15  C   UNL d   1      49.948  34.124  52.046  0.00  0.00     0.000 A 
ENDROOT
BRANCH   4  16
ATOM     16  C   UNL d   1      53.205  32.411  53.634  0.00  0.00     0.102 A 
ATOM     17  O   UNL d   1      53.020  31.682  53.977  0.00  0.00    -0.286 OA
ATOM     18  C   UNL d   1      53.485  31.107  53.626  0.00  0.00     0.227 A 
ATOM     19  C   UNL d   1      53.964  31.469  53.061  0.00  0.00     0.051 A 
ATOM     20  C   UNL d   1      53.792  32.280  53.063  0.00  0.00     0.029 A 
BRANCH  18  21
ATOM     21  N   UNL d   1      53.483  30.295  53.801  0.00  0.00    -0.089 N 
ATOM     22  O   UNL d   1      53.291  30.032  54.554  0.00  0.00    -0.530 OA
ATOM     23  O   UNL d   1      53.678  29.751  53.203  0.00  0.00    -0.530 OA
ENDBRANCH  18  21
ENDBRANCH   4  16
BRANCH   3  24
ATOM     24  C   UNL d   1      53.882  33.355  54.805  0.00  0.00     0.302 C 
ATOM     25  O   UNL d   1      53.812  32.834  55.441  0.00  0.00    -0.259 OA
BRANCH  24  26
ATOM     26  O   UNL d   1      54.624  33.623  54.570  0.00  0.00    -0.271 OA
BRANCH  26  27
ATOM     27  C   UNL d   1      55.231  33.686  55.125  0.00  0.00     0.126 C 
ATOM     28  C   UNL d   1      55.939  34.051  54.916  0.00  0.00     0.029 C 
ENDBRANCH  26  27
ENDBRANCH  24  26
ENDBRANCH   3  24
TORSDOF 5
ENDMDL
MODEL 5
REMARK VINA RESULT:      -7.8      1.274      2.611
REMARK  5 active torsions:
REMARK  status: ('A' for Active; 'I' for Inactive)
REMARK    1  A    between atoms: C_14  and  C_3 
REMARK    2  A    between atoms: C_8  and  C_4 
REMARK    3  A    between atoms: N_10  and  C_9 
REMARK    4  A    between atoms: O_21  and  C_14 
REMARK    5  A    between atoms: C_25  and  O_21 
ROOT
ATOM      1  C   UNL d   1      52.637  32.739  53.306  0.00  0.00     0.059 A 
ATOM      2  C   UNL d   1      52.273  32.056  53.022  0.00  0.00     0.085 A 
ATOM      3  C   UNL d   1      51.529  33.516  52.860  0.00  0.00     0.083 A 
ATOM      4  C   UNL d   1      52.263  33.466  53.223  0.00  0.00     0.034 A 
ATOM      5  N   UNL d   1      51.541  32.094  52.658  0.00  0.00    -0.245 NA
ATOM      6  C   UNL d   1      53.360  32.526  53.640  0.00  0.00     0.197 A 
ATOM      7  C   UNL d   1      51.163  32.829  52.574  0.00  0.00     0.087 A 
ATOM      8  C   UNL d   1      52.773  31.416  53.181  0.00  0.00     0.021 A 
ATOM      9  C   UNL d   1      53.443  31.704  53.562  0.00  0.00     0.041 A 
ATOM     10  O   UNL d   1      53.906  33.039  53.991  0.00  0.00    -0.286 OA
ATOM     11  C   UNL d   1      50.426  32.876  52.208  0.00  0.00     0.021 C 
ATOM     12  C   UNL d   1      52.706  30.599  53.028  0.00  0.00     0.002 A 
ATOM     13  C   UNL d   1      54.050  31.189  53.793  0.00  0.00     0.003 A 
ATOM     14  C   UNL d   1      53.308  30.091  53.258  0.00  0.00     0.000 A 
ATOM     15  C   UNL d   1      53.977  30.377  53.638  0.00  0.00     0.000 A 
ENDROOT
BRANCH   4  16
ATOM     16  C   UNL d   1      52.628  34.149  53.507  0.00  0.00     0.102 A 
ATOM     17  O   UNL d   1      52.528  34.479  54.258  0.00  0.00    -0.286 OA
ATOM     18  C   UNL d   1      52.991  35.152  54.307  0.00  0.00     0.227 A 
ATOM     19  C   UNL d   1      53.385  35.250  53.589  0.00  0.00     0.051 A 
ATOM     20  C   UNL d   1      53.161  34.627  53.089  0.00  0.00     0.029 A 
BRANCH  18  21
ATOM     21  N   UNL d   1      53.060  35.658  54.962  0.00  0.00    -0.089 N 
ATOM     22  O   UNL d   1      53.213  35.353  55.709  0.00  0.00    -0.530 OA
ATOM     23  O   UNL d   1      52.974  36.477  54.853  0.00  0.00    -0.530 OA
ENDBRANCH  18  21
ENDBRANCH   4  16
BRANCH   3  24
ATOM     24  C   UNL d   1      51.152  34.245  52.776  0.00  0.00     0.302 C 
ATOM     25  O   UNL d   1      51.409  34.773  52.196  0.00  0.00    -0.259 OA
BRANCH  24  26
ATOM     26  O   UNL d   1      50.523  34.445  53.267  0.00  0.00    -0.271 OA
BRANCH  26  27
ATOM     27  C   UNL d   1      49.916  34.924  52.981  0.00  0.00     0.126 C 
ATOM     28  C   UNL d   1      49.373  35.252  53.505  0.00  0.00     0.029 C 
ENDBRANCH  26  27
ENDBRANCH  24  26
ENDBRANCH   3  24
TORSDOF 5
ENDMDL
