MODEL 1
REMARK VINA RESULT:      -2.2      0.000      0.000
REMARK  2 active torsions:
REMARK  status: ('A' for Active; 'I' for Inactive)
REMARK    1  A    between atoms: C_10  and  C_3 
REMARK    2  A    between atoms: O_20  and  C_16 
ROOT
ATOM      1  C   UNL d   1      32.600  21.641 -21.486  0.00  0.00     0.203 A 
ATOM      2  C   UNL d   1      32.571  22.160 -20.839  0.00  0.00     0.101 A 
ATOM      3  C   UNL d   1      32.933  20.881 -21.405  0.00  0.00     0.064 A 
ATOM      4  C   UNL d   1      32.881  21.912 -20.101  0.00  0.00     0.109 A 
ATOM      5  C   UNL d   1      33.241  20.640 -20.664  0.00  0.00     0.126 A 
ATOM      6  C   UNL d   1      32.242  22.909 -20.921  0.00  0.00     0.204 A 
ATOM      7  O   UNL d   1      33.214  21.158 -20.013  0.00  0.00    -0.305 OA
ATOM      8  C   UNL d   1      32.852  22.432 -19.454  0.00  0.00     0.067 A 
ATOM      9  C   UNL d   1      32.215  23.421 -20.278  0.00  0.00     0.084 A 
ATOM     10  O   UNL d   1      32.297  21.878 -22.215  0.00  0.00    -0.286 OA
ATOM     11  C   UNL d   1      32.519  23.183 -19.547  0.00  0.00     0.201 A 
ATOM     12  O   UNL d   1      31.939  23.146 -21.651  0.00  0.00    -0.286 OA
ATOM     13  O   UNL d   1      32.492  23.696 -18.903  0.00  0.00    -0.286 OA
ENDROOT
BRANCH   3  14
ATOM     14  C   UNL d   1      32.960  20.368 -22.049  0.00  0.00     0.005 A 
ATOM     15  C   UNL d   1      32.731  19.581 -21.951  0.00  0.00     0.002 A 
ATOM     16  C   UNL d   1      32.758  19.068 -22.594  0.00  0.00     0.024 A 
ATOM     17  C   UNL d   1      33.010  19.334 -23.326  0.00  0.00     0.094 A 
ATOM     18  C   UNL d   1      33.240  20.131 -23.417  0.00  0.00     0.024 A 
ATOM     19  C   UNL d   1      33.213  20.643 -22.774  0.00  0.00     0.002 A 
BRANCH  17  20
ATOM     20  O   UNL d   1      33.037  18.821 -23.969  0.00  0.00    -0.328 OA
ATOM     21  C   UNL d   1      32.368  18.375 -24.176  0.00  0.00     0.181 C 
ENDBRANCH  17  20
ENDBRANCH   3  14
TORSDOF 2
ENDMDL
MODEL 2
REMARK VINA RESULT:      -2.0      1.119      4.350
REMARK  2 active torsions:
REMARK  status: ('A' for Active; 'I' for Inactive)
REMARK    1  A    between atoms: C_10  and  C_3 
REMARK    2  A    between atoms: O_20  and  C_16 
ROOT
ATOM      1  C   UNL d   1      32.777  19.978 -22.735  0.00  0.00     0.203 A 
ATOM      2  C   UNL d   1      32.881  19.202 -23.010  0.00  0.00     0.101 A 
ATOM      3  C   UNL d   1      32.901  20.164 -21.932  0.00  0.00     0.064 A 
ATOM      4  C   UNL d   1      33.115  18.605 -22.470  0.00  0.00     0.109 A 
ATOM      5  C   UNL d   1      33.135  19.561 -21.398  0.00  0.00     0.126 A 
ATOM      6  C   UNL d   1      32.758  19.021 -23.802  0.00  0.00     0.204 A 
ATOM      7  O   UNL d   1      33.241  18.782 -21.670  0.00  0.00    -0.305 OA
ATOM      8  C   UNL d   1      33.220  17.828 -22.746  0.00  0.00     0.067 A 
ATOM      9  C   UNL d   1      32.863  18.251 -24.070  0.00  0.00     0.084 A 
ATOM     10  O   UNL d   1      32.547  20.571 -23.260  0.00  0.00    -0.286 OA
ATOM     11  C   UNL d   1      33.093  17.657 -23.545  0.00  0.00     0.201 A 
ATOM     12  O   UNL d   1      32.528  19.614 -24.327  0.00  0.00    -0.286 OA
ATOM     13  O   UNL d   1      33.198  16.886 -23.814  0.00  0.00    -0.286 OA
ENDROOT
BRANCH   3  14
ATOM     14  C   UNL d   1      32.796  20.935 -21.662  0.00  0.00     0.005 A 
ATOM     15  C   UNL d   1      33.240  21.545 -21.995  0.00  0.00     0.002 A 
ATOM     16  C   UNL d   1      33.136  22.316 -21.727  0.00  0.00     0.024 A 
ATOM     17  C   UNL d   1      32.596  22.478 -21.132  0.00  0.00     0.094 A 
ATOM     18  C   UNL d   1      32.151  21.856 -20.800  0.00  0.00     0.024 A 
ATOM     19  C   UNL d   1      32.256  21.085 -21.070  0.00  0.00     0.002 A 
BRANCH  17  20
ATOM     20  O   UNL d   1      32.491  23.249 -20.863  0.00  0.00    -0.328 OA
ATOM     21  C   UNL d   1      31.747  23.613 -20.917  0.00  0.00     0.181 C 
ENDBRANCH  17  20
ENDBRANCH   3  14
TORSDOF 2
ENDMDL
MODEL 3
REMARK VINA RESULT:      -1.9      1.477      5.174
REMARK  2 active torsions:
REMARK  status: ('A' for Active; 'I' for Inactive)
REMARK    1  A    between atoms: C_10  and  C_3 
REMARK    2  A    between atoms: O_20  and  C_16 
ROOT
ATOM      1  C   UNL d   1      32.136  18.469 -23.657  0.00  0.00     0.203 A 
ATOM      2  C   UNL d   1      32.037  17.717 -23.993  0.00  0.00     0.101 A 
ATOM      3  C   UNL d   1      32.735  18.608 -23.094  0.00  0.00     0.064 A 
ATOM      4  C   UNL d   1      32.547  17.094 -23.759  0.00  0.00     0.109 A 
ATOM      5  C   UNL d   1      33.241  17.980 -22.865  0.00  0.00     0.126 A 
ATOM      6  C   UNL d   1      31.446  17.583 -24.548  0.00  0.00     0.204 A 
ATOM      7  O   UNL d   1      33.145  17.224 -23.199  0.00  0.00    -0.305 OA
ATOM      8  C   UNL d   1      32.447  16.342 -24.095  0.00  0.00     0.067 A 
ATOM      9  C   UNL d   1      31.351  16.836 -24.878  0.00  0.00     0.084 A 
ATOM     10  O   UNL d   1      31.638  19.087 -23.883  0.00  0.00    -0.286 OA
ATOM     11  C   UNL d   1      31.850  16.217 -24.653  0.00  0.00     0.201 A 
ATOM     12  O   UNL d   1      30.948  18.201 -24.773  0.00  0.00    -0.286 OA
ATOM     13  O   UNL d   1      31.754  15.469 -24.984  0.00  0.00    -0.286 OA
ENDROOT
BRANCH   3  14
ATOM     14  C   UNL d   1      32.830  19.356 -22.763  0.00  0.00     0.005 A 
ATOM     15  C   UNL d   1      32.606  19.484 -21.979  0.00  0.00     0.002 A 
ATOM     16  C   UNL d   1      32.701  20.231 -21.647  0.00  0.00     0.024 A 
ATOM     17  C   UNL d   1      33.016  20.844 -22.090  0.00  0.00     0.094 A 
ATOM     18  C   UNL d   1      33.241  20.707 -22.882  0.00  0.00     0.024 A 
ATOM     19  C   UNL d   1      33.145  19.959 -23.213  0.00  0.00     0.002 A 
BRANCH  17  20
ATOM     20  O   UNL d   1      33.111  21.591 -21.759  0.00  0.00    -0.328 OA
ATOM     21  C   UNL d   1      32.503  21.927 -21.304  0.00  0.00     0.181 C 
ENDBRANCH  17  20
ENDBRANCH   3  14
TORSDOF 2
ENDMDL
MODEL 4
REMARK VINA RESULT:      -1.8      1.172      2.172
REMARK  2 active torsions:
REMARK  status: ('A' for Active; 'I' for Inactive)
REMARK    1  A    between atoms: C_10  and  C_3 
REMARK    2  A    between atoms: O_20  and  C_16 
ROOT
ATOM      1  C   UNL d   1      32.906  20.294 -22.100  0.00  0.00     0.203 A 
ATOM      2  C   UNL d   1      32.988  21.096 -21.905  0.00  0.00     0.101 A 
ATOM      3  C   UNL d   1      32.989  20.039 -22.889  0.00  0.00     0.064 A 
ATOM      4  C   UNL d   1      33.156  21.650 -22.511  0.00  0.00     0.109 A 
ATOM      5  C   UNL d   1      33.157  20.598 -23.490  0.00  0.00     0.126 A 
ATOM      6  C   UNL d   1      32.906  21.346 -21.126  0.00  0.00     0.204 A 
ATOM      7  O   UNL d   1      33.240  21.404 -23.298  0.00  0.00    -0.305 OA
ATOM      8  C   UNL d   1      33.238  22.453 -22.315  0.00  0.00     0.067 A 
ATOM      9  C   UNL d   1      32.988  22.142 -20.937  0.00  0.00     0.084 A 
ATOM     10  O   UNL d   1      32.741  19.744 -21.508  0.00  0.00    -0.286 OA
ATOM     11  C   UNL d   1      33.154  22.694 -21.529  0.00  0.00     0.201 A 
ATOM     12  O   UNL d   1      32.741  20.795 -20.535  0.00  0.00    -0.286 OA
ATOM     13  O   UNL d   1      33.236  23.491 -21.339  0.00  0.00    -0.286 OA
ENDROOT
BRANCH   3  14
ATOM     14  C   UNL d   1      32.907  19.242 -23.079  0.00  0.00     0.005 A 
ATOM     15  C   UNL d   1      32.487  19.027 -23.757  0.00  0.00     0.002 A 
ATOM     16  C   UNL d   1      32.405  18.231 -23.948  0.00  0.00     0.024 A 
ATOM     17  C   UNL d   1      32.736  17.654 -23.470  0.00  0.00     0.094 A 
ATOM     18  C   UNL d   1      33.159  17.878 -22.787  0.00  0.00     0.024 A 
ATOM     19  C   UNL d   1      33.241  18.675 -22.597  0.00  0.00     0.002 A 
BRANCH  17  20
ATOM     20  O   UNL d   1      32.654  16.858 -23.661  0.00  0.00    -0.328 OA
ATOM     21  C   UNL d   1      31.900  16.512 -23.695  0.00  0.00     0.181 C 
ENDBRANCH  17  20
ENDBRANCH   3  14
TORSDOF 2
ENDMDL
MODEL 5
REMARK VINA RESULT:      -1.8      5.066      6.537
REMARK  2 active torsions:
REMARK  status: ('A' for Active; 'I' for Inactive)
REMARK    1  A    between atoms: C_10  and  C_3 
REMARK    2  A    between atoms: O_20  and  C_16 
ROOT
ATOM      1  C   UNL d   1      30.506  16.778 -23.935  0.00  0.00     0.203 A 
ATOM      2  C   UNL d   1      31.191  17.163 -24.197  0.00  0.00     0.101 A 
ATOM      3  C   UNL d   1      29.759  16.979 -24.247  0.00  0.00     0.064 A 
ATOM      4  C   UNL d   1      31.127  17.760 -24.782  0.00  0.00     0.109 A 
ATOM      5  C   UNL d   1      29.702  17.578 -24.831  0.00  0.00     0.126 A 
ATOM      6  C   UNL d   1      31.926  16.963 -23.888  0.00  0.00     0.204 A 
ATOM      7  O   UNL d   1      30.388  17.967 -25.097  0.00  0.00    -0.305 OA
ATOM      8  C   UNL d   1      31.814  18.146 -25.044  0.00  0.00     0.067 A 
ATOM      9  C   UNL d   1      32.604  17.348 -24.151  0.00  0.00     0.084 A 
ATOM     10  O   UNL d   1      30.561  16.189 -23.359  0.00  0.00    -0.286 OA
ATOM     11  C   UNL d   1      32.548  17.937 -24.727  0.00  0.00     0.201 A 
ATOM     12  O   UNL d   1      31.982  16.374 -23.313  0.00  0.00    -0.286 OA
ATOM     13  O   UNL d   1      33.227  18.322 -24.990  0.00  0.00    -0.286 OA
ENDROOT
BRANCH   3  14
ATOM     14  C   UNL d   1      29.080  16.595 -23.984  0.00  0.00     0.005 A 
ATOM     15  C   UNL d   1      28.592  16.965 -23.431  0.00  0.00     0.002 A 
ATOM     16  C   UNL d   1      27.913  16.581 -23.168  0.00  0.00     0.024 A 
ATOM     17  C   UNL d   1      27.722  15.837 -23.451  0.00  0.00     0.094 A 
ATOM     18  C   UNL d   1      28.220  15.469 -24.010  0.00  0.00     0.024 A 
ATOM     19  C   UNL d   1      28.899  15.854 -24.273  0.00  0.00     0.002 A 
BRANCH  17  20
ATOM     20  O   UNL d   1      27.043  15.453 -23.188  0.00  0.00    -0.328 OA
ATOM     21  C   UNL d   1      26.303  15.646 -23.510  0.00  0.00     0.181 C 
ENDBRANCH  17  20
ENDBRANCH   3  14
TORSDOF 2
ENDMDL
MODEL 6
REMARK VINA RESULT:      -1.5      0.891      4.372
REMARK  2 active torsions:
REMARK  status: ('A' for Active; 'I' for Inactive)
REMARK    1  A    between atoms: C_10  and  C_3 
REMARK    2  A    between atoms: O_20  and  C_16 
ROOT
ATOM      1  C   UNL d   1      32.922  20.808 -21.835  0.00  0.00     0.203 A 
ATOM      2  C   UNL d   1      33.002  20.289 -22.478  0.00  0.00     0.101 A 
ATOM      3  C   UNL d   1      32.821  21.626 -21.960  0.00  0.00     0.064 A 
ATOM      4  C   UNL d   1      32.982  20.596 -23.257  0.00  0.00     0.109 A 
ATOM      5  C   UNL d   1      32.801  21.926 -22.743  0.00  0.00     0.126 A 
ATOM      6  C   UNL d   1      33.102  19.483 -22.352  0.00  0.00     0.204 A 
ATOM      7  O   UNL d   1      32.882  21.409 -23.390  0.00  0.00    -0.305 OA
ATOM      8  C   UNL d   1      33.062  20.077 -23.900  0.00  0.00     0.067 A 
ATOM      9  C   UNL d   1      33.181  18.972 -22.992  0.00  0.00     0.084 A 
ATOM     10  O   UNL d   1      32.942  20.512 -21.065  0.00  0.00    -0.286 OA
ATOM     11  C   UNL d   1      33.161  19.267 -23.763  0.00  0.00     0.201 A 
ATOM     12  O   UNL d   1      33.121  19.188 -21.582  0.00  0.00    -0.286 OA
ATOM     13  O   UNL d   1      33.241  18.755 -24.403  0.00  0.00    -0.286 OA
ENDROOT
BRANCH   3  14
ATOM     14  C   UNL d   1      32.742  22.138 -21.321  0.00  0.00     0.005 A 
ATOM     15  C   UNL d   1      32.159  22.722 -21.338  0.00  0.00     0.002 A 
ATOM     16  C   UNL d   1      32.079  23.235 -20.699  0.00  0.00     0.024 A 
ATOM     17  C   UNL d   1      32.573  23.167 -20.049  0.00  0.00     0.094 A 
ATOM     18  C   UNL d   1      33.160  22.574 -20.039  0.00  0.00     0.024 A 
ATOM     19  C   UNL d   1      33.239  22.062 -20.679  0.00  0.00     0.002 A 
BRANCH  17  20
ATOM     20  O   UNL d   1      32.493  23.679 -19.410  0.00  0.00    -0.328 OA
ATOM     21  C   UNL d   1      32.833  23.488 -18.677  0.00  0.00     0.181 C 
ENDBRANCH  17  20
ENDBRANCH   3  14
TORSDOF 2
ENDMDL
