MODEL 1
REMARK VINA RESULT:      -8.0      0.000      0.000
REMARK  4 active torsions:
REMARK  status: ('A' for Active; 'I' for Inactive)
REMARK    1  A    between atoms: C_2  and  C_1 
REMARK       I    between atoms: N_9  and  C_2 
REMARK    2  A    between atoms: N_4  and  C_14 
REMARK    3  A    between atoms: C_13  and  N_9 
REMARK    4  A    between atoms: C_14  and  C_13 
ROOT
ATOM      1  C   UNL d   1      53.648  31.464  53.572  0.00  0.00     0.281 C 
ATOM      2  O   UNL d   1      53.988  30.715  53.579  0.00  0.00    -0.265 OA
ATOM      3  N   UNL d   1      52.948  31.603  53.159  0.00  0.00    -0.205 NA
ENDROOT
BRANCH   1   4
ATOM      4  C   UNL d   1      54.014  32.087  53.986  0.00  0.00     0.077 A 
ATOM      5  C   UNL d   1      54.566  32.565  53.602  0.00  0.00     0.105 A 
ATOM      6  N   UNL d   1      54.929  33.181  54.007  0.00  0.00    -0.233 NA
ATOM      7  C   UNL d   1      54.742  33.322  54.800  0.00  0.00     0.139 A 
ATOM      8  C   UNL d   1      54.193  32.847  55.185  0.00  0.00     0.031 A 
ATOM      9 CL   UNL d   1      55.107  33.946  55.218  0.00  0.00    -0.061 Cl
ATOM     10  C   UNL d   1      53.827  32.228  54.779  0.00  0.00     0.009 A 
ENDBRANCH   1   4
BRANCH   3  11
ATOM     11  C   UNL d   1      52.607  32.352  53.152  0.00  0.00     0.121 C 
BRANCH  11  12
ATOM     12  C   UNL d   1      51.920  32.496  52.725  0.00  0.00     0.101 C 
BRANCH  12  13
ATOM     13  N   UNL d   1      51.536  33.220  52.795  0.00  0.00    -0.298 N 
ATOM     14  C   UNL d   1      50.901  33.302  53.310  0.00  0.00     0.107 A 
ATOM     15  C   UNL d   1      50.513  34.033  53.381  0.00  0.00     0.142 A 
ATOM     16  O   UNL d   1      50.762  34.677  52.937  0.00  0.00    -0.300 OA
ATOM     17  C   UNL d   1      51.403  34.599  52.416  0.00  0.00     0.142 A 
ATOM     18  C   UNL d   1      51.791  33.868  52.345  0.00  0.00     0.107 A 
ENDBRANCH  12  13
ENDBRANCH  11  12
ENDBRANCH   3  11
TORSDOF 4
ENDMDL
MODEL 2
REMARK VINA RESULT:      -7.5      1.639      2.204
REMARK  4 active torsions:
REMARK  status: ('A' for Active; 'I' for Inactive)
REMARK    1  A    between atoms: C_2  and  C_1 
REMARK       I    between atoms: N_9  and  C_2 
REMARK    2  A    between atoms: N_4  and  C_14 
REMARK    3  A    between atoms: C_13  and  N_9 
REMARK    4  A    between atoms: C_14  and  C_13 
ROOT
ATOM      1  C   UNL d   1      54.183  33.836  54.670  0.00  0.00     0.281 C 
ATOM      2  O   UNL d   1      54.799  34.034  55.179  0.00  0.00    -0.265 OA
ATOM      3  N   UNL d   1      53.643  34.409  54.422  0.00  0.00    -0.205 NA
ENDROOT
BRANCH   1   4
ATOM      4  C   UNL d   1      54.105  33.052  54.401  0.00  0.00     0.077 A 
ATOM      5  C   UNL d   1      53.663  32.511  54.841  0.00  0.00     0.105 A 
ATOM      6  N   UNL d   1      53.585  31.736  54.578  0.00  0.00    -0.233 NA
ATOM      7  C   UNL d   1      53.948  31.498  53.875  0.00  0.00     0.139 A 
ATOM      8  C   UNL d   1      54.389  32.035  53.436  0.00  0.00     0.031 A 
ATOM      9 CL   UNL d   1      53.872  30.712  53.603  0.00  0.00    -0.061 Cl
ATOM     10  C   UNL d   1      54.469  32.813  53.698  0.00  0.00     0.009 A 
ENDBRANCH   1   4
BRANCH   3  11
ATOM     11  C   UNL d   1      53.028  34.212  53.913  0.00  0.00     0.121 C 
BRANCH  11  12
ATOM     12  C   UNL d   1      52.517  34.790  53.631  0.00  0.00     0.101 C 
BRANCH  12  13
ATOM     13  N   UNL d   1      51.864  34.576  53.177  0.00  0.00    -0.298 N 
ATOM     14  C   UNL d   1      51.944  34.460  52.369  0.00  0.00     0.107 A 
ATOM     15  C   UNL d   1      51.285  34.245  51.911  0.00  0.00     0.142 A 
ATOM     16  O   UNL d   1      50.551  34.147  52.266  0.00  0.00    -0.300 OA
ATOM     17  C   UNL d   1      50.465  34.263  53.083  0.00  0.00     0.142 A 
ATOM     18  C   UNL d   1      51.124  34.478  53.540  0.00  0.00     0.107 A 
ENDBRANCH  12  13
ENDBRANCH  11  12
ENDBRANCH   3  11
TORSDOF 4
ENDMDL
MODEL 3
REMARK VINA RESULT:      -7.2      1.913      3.688
REMARK  4 active torsions:
REMARK  status: ('A' for Active; 'I' for Inactive)
REMARK    1  A    between atoms: C_2  and  C_1 
REMARK       I    between atoms: N_9  and  C_2 
REMARK    2  A    between atoms: N_4  and  C_14 
REMARK    3  A    between atoms: C_13  and  N_9 
REMARK    4  A    between atoms: C_14  and  C_13 
ROOT
ATOM      1  C   UNL d   1      53.326  33.710  54.173  0.00  0.00     0.281 C 
ATOM      2  O   UNL d   1      53.627  34.314  54.645  0.00  0.00    -0.265 OA
ATOM      3  N   UNL d   1      53.678  32.964  54.173  0.00  0.00    -0.205 NA
ENDROOT
BRANCH   1   4
ATOM      4  C   UNL d   1      52.661  33.854  53.692  0.00  0.00     0.077 A 
ATOM      5  C   UNL d   1      51.910  33.638  53.957  0.00  0.00     0.105 A 
ATOM      6  N   UNL d   1      51.253  33.779  53.485  0.00  0.00    -0.233 NA
ATOM      7  C   UNL d   1      51.343  34.137  52.744  0.00  0.00     0.139 A 
ATOM      8  C   UNL d   1      52.090  34.353  52.479  0.00  0.00     0.031 A 
ATOM      9 CL   UNL d   1      50.679  34.283  52.260  0.00  0.00    -0.061 Cl
ATOM     10  C   UNL d   1      52.752  34.212  52.952  0.00  0.00     0.009 A 
ENDBRANCH   1   4
BRANCH   3  11
ATOM     11  C   UNL d   1      53.377  32.360  53.701  0.00  0.00     0.121 C 
BRANCH  11  12
ATOM     12  C   UNL d   1      53.823  31.686  53.549  0.00  0.00     0.101 C 
BRANCH  12  13
ATOM     13  N   UNL d   1      53.455  30.952  53.502  0.00  0.00    -0.298 N 
ATOM     14  C   UNL d   1      53.025  30.749  52.832  0.00  0.00     0.107 A 
ATOM     15  C   UNL d   1      52.654  30.007  52.784  0.00  0.00     0.142 A 
ATOM     16  O   UNL d   1      52.716  29.474  53.406  0.00  0.00    -0.300 OA
ATOM     17  C   UNL d   1      53.149  29.675  54.084  0.00  0.00     0.142 A 
ATOM     18  C   UNL d   1      53.521  30.416  54.132  0.00  0.00     0.107 A 
ENDBRANCH  12  13
ENDBRANCH  11  12
ENDBRANCH   3  11
TORSDOF 4
ENDMDL
MODEL 4
REMARK VINA RESULT:      -7.1      1.447      3.065
REMARK  4 active torsions:
REMARK  status: ('A' for Active; 'I' for Inactive)
REMARK    1  A    between atoms: C_2  and  C_1 
REMARK       I    between atoms: N_9  and  C_2 
REMARK    2  A    between atoms: N_4  and  C_14 
REMARK    3  A    between atoms: C_13  and  N_9 
REMARK    4  A    between atoms: C_14  and  C_13 
ROOT
ATOM      1  C   UNL d   1      52.847  33.347  53.081  0.00  0.00     0.281 C 
ATOM      2  O   UNL d   1      52.531  34.035  52.759  0.00  0.00    -0.265 OA
ATOM      3  N   UNL d   1      52.625  32.608  52.788  0.00  0.00    -0.205 NA
ENDROOT
BRANCH   1   4
ATOM      4  C   UNL d   1      53.394  33.396  53.706  0.00  0.00     0.077 A 
ATOM      5  C   UNL d   1      53.124  33.473  54.482  0.00  0.00     0.105 A 
ATOM      6  N   UNL d   1      53.662  33.522  55.101  0.00  0.00    -0.233 NA
ATOM      7  C   UNL d   1      54.474  33.495  54.948  0.00  0.00     0.139 A 
ATOM      8  C   UNL d   1      54.745  33.418  54.176  0.00  0.00     0.031 A 
ATOM      9 CL   UNL d   1      55.026  33.544  55.572  0.00  0.00    -0.061 Cl
ATOM     10  C   UNL d   1      54.207  33.369  53.553  0.00  0.00     0.009 A 
ENDBRANCH   1   4
BRANCH   3  11
ATOM     11  C   UNL d   1      52.941  31.918  53.109  0.00  0.00     0.121 C 
BRANCH  11  12
ATOM     12  C   UNL d   1      52.829  31.194  52.738  0.00  0.00     0.101 C 
BRANCH  12  13
ATOM     13  N   UNL d   1      52.847  30.499  53.178  0.00  0.00    -0.298 N 
ATOM     14  C   UNL d   1      52.147  30.120  53.378  0.00  0.00     0.107 A 
ATOM     15  C   UNL d   1      52.165  29.418  53.823  0.00  0.00     0.142 A 
ATOM     16  O   UNL d   1      52.883  29.101  54.062  0.00  0.00    -0.300 OA
ATOM     17  C   UNL d   1      53.593  29.480  53.862  0.00  0.00     0.142 A 
ATOM     18  C   UNL d   1      53.575  30.182  53.418  0.00  0.00     0.107 A 
ENDBRANCH  12  13
ENDBRANCH  11  12
ENDBRANCH   3  11
TORSDOF 4
ENDMDL
