MODEL 1
REMARK VINA RESULT:      58.0      0.000      0.000
REMARK  7 active torsions:
REMARK  status: ('A' for Active; 'I' for Inactive)
REMARK    1  A    between atoms: C_3  and  S_1 
REMARK    2  A    between atoms: N_4  and  S_1 
REMARK    3  A    between atoms: C_2  and  C_9 
REMARK       I    between atoms: N_5  and  C_2 
REMARK    4  A    between atoms: C_15  and  N_4 
REMARK    5  A    between atoms: C_10  and  N_5 
REMARK    6  A    between atoms: C_18  and  C_15 
REMARK    7  A    between atoms: O_22  and  C_16 
ROOT
ATOM      1  C   UNL d   1      13.708  14.739  -4.963  0.00  0.00     0.058 A 
ATOM      2  C   UNL d   1      14.109  14.800  -5.685  0.00  0.00     0.005 A 
ATOM      3  C   UNL d   1      13.394  15.411  -4.609  0.00  0.00     0.005 A 
ATOM      4  C   UNL d   1      13.879  16.202  -5.695  0.00  0.00     0.020 A 
ATOM      5  C   UNL d   1      14.193  15.530  -6.049  0.00  0.00     0.002 A 
ATOM      6  C   UNL d   1      13.481  16.144  -4.978  0.00  0.00     0.002 A 
ENDROOT
BRANCH   4   7
ATOM      7  C   UNL d   1      13.962  16.941  -6.058  0.00  0.00     0.112 C 
BRANCH   7   8
ATOM      8  N   UNL d   1      14.392  17.538  -5.679  0.00  0.00    -0.157 NA
BRANCH   8   9
ATOM      9  S   UNL d   1      14.218  18.337  -5.834  0.00  0.00     0.285 S 
ATOM     10  O   UNL d   1      13.550  18.110  -6.274  0.00  0.00    -0.198 OA
ATOM     11  O   UNL d   1      14.889  18.568  -5.393  0.00  0.00    -0.198 OA
BRANCH   9  12
ATOM     12  C   UNL d   1      14.048  19.132  -5.987  0.00  0.00     0.107 A 
ATOM     13  C   UNL d   1      14.629  19.705  -5.890  0.00  0.00     0.037 A 
ATOM     14  C   UNL d   1      14.464  20.500  -6.041  0.00  0.00     0.095 A 
ATOM     15  C   UNL d   1      13.717  20.723  -6.289  0.00  0.00     0.024 A 
ATOM     16  C   UNL d   1      13.127  20.149  -6.388  0.00  0.00     0.003 A 
ATOM     17  C   UNL d   1      13.293  19.354  -6.237  0.00  0.00     0.013 A 
BRANCH  14  18
ATOM     18  O   UNL d   1      15.049  21.073  -5.943  0.00  0.00    -0.328 OA
ATOM     19  C   UNL d   1      15.117  21.473  -5.237  0.00  0.00     0.181 C 
ENDBRANCH  14  18
ENDBRANCH   9  12
ENDBRANCH   8   9
ENDBRANCH   7   8
ENDBRANCH   4   7
BRANCH   1  20
ATOM     20  C   UNL d   1      13.619  14.004  -4.591  0.00  0.00     0.279 C 
ATOM     21  N   UNL d   1      13.566  13.968  -3.774  0.00  0.00    -0.208 NA
ATOM     22  O   UNL d   1      13.584  13.313  -5.036  0.00  0.00    -0.265 OA
BRANCH  21  23
ATOM     23  C   UNL d   1      13.478  13.237  -3.403  0.00  0.00     0.086 A 
ATOM     24  C   UNL d   1      13.923  13.070  -2.723  0.00  0.00     0.031 A 
ATOM     25  C   UNL d   1      13.832  12.338  -2.354  0.00  0.00     0.059 A 
ATOM     26 CL   UNL d   1      14.272  12.170  -1.681  0.00  0.00    -0.082 Cl
ATOM     27  C   UNL d   1      13.305  11.779  -2.658  0.00  0.00     0.011 A 
ATOM     28  C   UNL d   1      12.867  11.955  -3.335  0.00  0.00     0.002 A 
ATOM     29  C   UNL d   1      12.958  12.687  -3.704  0.00  0.00     0.019 A 
ENDBRANCH  21  23
ENDBRANCH   1  20
TORSDOF 7
ENDMDL
MODEL 2
REMARK VINA RESULT:      58.6      3.710      5.123
REMARK  7 active torsions:
REMARK  status: ('A' for Active; 'I' for Inactive)
REMARK    1  A    between atoms: C_3  and  S_1 
REMARK    2  A    between atoms: N_4  and  S_1 
REMARK    3  A    between atoms: C_2  and  C_9 
REMARK       I    between atoms: N_5  and  C_2 
REMARK    4  A    between atoms: C_15  and  N_4 
REMARK    5  A    between atoms: C_10  and  N_5 
REMARK    6  A    between atoms: C_18  and  C_15 
REMARK    7  A    between atoms: O_22  and  C_16 
ROOT
ATOM      1  C   UNL d   1      14.184  12.697  -2.132  0.00  0.00     0.058 A 
ATOM      2  C   UNL d   1      14.791  12.279  -1.755  0.00  0.00     0.005 A 
ATOM      3  C   UNL d   1      13.897  13.394  -1.802  0.00  0.00     0.005 A 
ATOM      4  C   UNL d   1      14.823  13.256  -0.724  0.00  0.00     0.020 A 
ATOM      5  C   UNL d   1      15.109  12.559  -1.053  0.00  0.00     0.002 A 
ATOM      6  C   UNL d   1      14.220  13.672  -1.096  0.00  0.00     0.002 A 
ENDROOT
BRANCH   4   7
ATOM      7  C   UNL d   1      15.141  13.542  -0.016  0.00  0.00     0.112 C 
BRANCH   7   8
ATOM      8  N   UNL d   1      15.766  14.084  -0.036  0.00  0.00    -0.157 NA
BRANCH   8   9
ATOM      9  S   UNL d   1      15.631  14.866  -0.285  0.00  0.00     0.285 S 
ATOM     10  O   UNL d   1      16.436  15.044  -0.175  0.00  0.00    -0.198 OA
ATOM     11  O   UNL d   1      14.822  14.690  -0.396  0.00  0.00    -0.198 OA
BRANCH   9  12
ATOM     12  C   UNL d   1      15.494  15.643  -0.534  0.00  0.00     0.107 A 
ATOM     13  C   UNL d   1      15.688  15.873  -1.298  0.00  0.00     0.037 A 
ATOM     14  C   UNL d   1      15.552  16.648  -1.551  0.00  0.00     0.095 A 
ATOM     15  C   UNL d   1      15.222  17.194  -1.038  0.00  0.00     0.024 A 
ATOM     16  C   UNL d   1      15.025  16.967  -0.266  0.00  0.00     0.003 A 
ATOM     17  C   UNL d   1      15.160  16.191  -0.014  0.00  0.00     0.013 A 
BRANCH  14  18
ATOM     18  O   UNL d   1      15.748  16.876  -2.318  0.00  0.00    -0.328 OA
ATOM     19  C   UNL d   1      15.217  16.768  -2.927  0.00  0.00     0.181 C 
ENDBRANCH  14  18
ENDBRANCH   9  12
ENDBRANCH   8   9
ENDBRANCH   7   8
ENDBRANCH   4   7
BRANCH   1  20
ATOM     20  C   UNL d   1      13.858  12.419  -2.841  0.00  0.00     0.279 C 
ATOM     21  N   UNL d   1      14.148  12.696  -3.556  0.00  0.00    -0.208 NA
ATOM     22  O   UNL d   1      13.248  11.867  -2.832  0.00  0.00    -0.265 OA
BRANCH  21  23
ATOM     23  C   UNL d   1      13.824  12.420  -4.262  0.00  0.00     0.086 A 
ATOM     24  C   UNL d   1      14.248  12.517  -4.968  0.00  0.00     0.031 A 
ATOM     25  C   UNL d   1      13.922  12.240  -5.673  0.00  0.00     0.059 A 
ATOM     26 CL   UNL d   1      14.340  12.334  -6.374  0.00  0.00    -0.082 Cl
ATOM     27  C   UNL d   1      13.183  11.871  -5.675  0.00  0.00     0.011 A 
ATOM     28  C   UNL d   1      12.769  11.779  -4.967  0.00  0.00     0.002 A 
ATOM     29  C   UNL d   1      13.095  12.057  -4.262  0.00  0.00     0.019 A 
ENDBRANCH  21  23
ENDBRANCH   1  20
TORSDOF 7
ENDMDL
MODEL 3
REMARK VINA RESULT:      58.7      2.457      6.478
REMARK  7 active torsions:
REMARK  status: ('A' for Active; 'I' for Inactive)
REMARK    1  A    between atoms: C_3  and  S_1 
REMARK    2  A    between atoms: N_4  and  S_1 
REMARK    3  A    between atoms: C_2  and  C_9 
REMARK       I    between atoms: N_5  and  C_2 
REMARK    4  A    between atoms: C_15  and  N_4 
REMARK    5  A    between atoms: C_10  and  N_5 
REMARK    6  A    between atoms: C_18  and  C_15 
REMARK    7  A    between atoms: O_22  and  C_16 
ROOT
ATOM      1  C   UNL d   1      13.471  15.448  -5.135  0.00  0.00     0.058 A 
ATOM      2  C   UNL d   1      12.875  15.327  -4.574  0.00  0.00     0.005 A 
ATOM      3  C   UNL d   1      13.972  14.831  -5.344  0.00  0.00     0.005 A 
ATOM      4  C   UNL d   1      13.282  13.973  -4.434  0.00  0.00     0.020 A 
ATOM      5  C   UNL d   1      12.782  14.590  -4.226  0.00  0.00     0.002 A 
ATOM      6  C   UNL d   1      13.876  14.092  -4.992  0.00  0.00     0.002 A 
ENDROOT
BRANCH   4   7
ATOM      7  C   UNL d   1      13.193  13.228  -4.085  0.00  0.00     0.112 C 
BRANCH   7   8
ATOM      8  N   UNL d   1      13.856  12.831  -3.789  0.00  0.00    -0.157 NA
BRANCH   8   9
ATOM      9  S   UNL d   1      13.896  12.634  -2.982  0.00  0.00     0.285 S 
ATOM     10  O   UNL d   1      14.136  11.863  -3.178  0.00  0.00    -0.198 OA
ATOM     11  O   UNL d   1      13.656  13.409  -2.782  0.00  0.00    -0.198 OA
BRANCH   9  12
ATOM     12  C   UNL d   1      13.936  12.442  -2.179  0.00  0.00     0.107 A 
ATOM     13  C   UNL d   1      14.559  12.716  -1.718  0.00  0.00     0.037 A 
ATOM     14  C   UNL d   1      14.603  12.526  -0.915  0.00  0.00     0.095 A 
ATOM     15  C   UNL d   1      14.023  12.062  -0.572  0.00  0.00     0.024 A 
ATOM     16  C   UNL d   1      13.392  11.784  -1.032  0.00  0.00     0.003 A 
ATOM     17  C   UNL d   1      13.349  11.974  -1.836  0.00  0.00     0.013 A 
BRANCH  14  18
ATOM     18  O   UNL d   1      15.229  12.803  -0.455  0.00  0.00    -0.328 OA
ATOM     19  C   UNL d   1      15.372  13.602  -0.395  0.00  0.00     0.181 C 
ENDBRANCH  14  18
ENDBRANCH   9  12
ENDBRANCH   8   9
ENDBRANCH   7   8
ENDBRANCH   4   7
BRANCH   1  20
ATOM     20  C   UNL d   1      13.570  16.190  -5.491  0.00  0.00     0.279 C 
ATOM     21  N   UNL d   1      13.950  16.789  -5.081  0.00  0.00    -0.208 NA
ATOM     22  O   UNL d   1      13.288  16.328  -6.252  0.00  0.00    -0.265 OA
BRANCH  21  23
ATOM     23  C   UNL d   1      14.049  17.527  -5.434  0.00  0.00     0.086 A 
ATOM     24  C   UNL d   1      14.660  18.024  -5.175  0.00  0.00     0.031 A 
ATOM     25  C   UNL d   1      14.756  18.762  -5.530  0.00  0.00     0.059 A 
ATOM     26 CL   UNL d   1      15.361  19.255  -5.274  0.00  0.00    -0.082 Cl
ATOM     27  C   UNL d   1      14.250  19.002  -6.137  0.00  0.00     0.011 A 
ATOM     28  C   UNL d   1      13.645  18.500  -6.389  0.00  0.00     0.002 A 
ATOM     29  C   UNL d   1      13.550  17.763  -6.033  0.00  0.00     0.019 A 
ENDBRANCH  21  23
ENDBRANCH   1  20
TORSDOF 7
ENDMDL
MODEL 4
REMARK VINA RESULT:      58.9      1.923      2.335
REMARK  7 active torsions:
REMARK  status: ('A' for Active; 'I' for Inactive)
REMARK    1  A    between atoms: C_3  and  S_1 
REMARK    2  A    between atoms: N_4  and  S_1 
REMARK    3  A    between atoms: C_2  and  C_9 
REMARK       I    between atoms: N_5  and  C_2 
REMARK    4  A    between atoms: C_15  and  N_4 
REMARK    5  A    between atoms: C_10  and  N_5 
REMARK    6  A    between atoms: C_18  and  C_15 
REMARK    7  A    between atoms: O_22  and  C_16 
ROOT
ATOM      1  C   UNL d   1      14.809  15.274  -2.180  0.00  0.00     0.058 A 
ATOM      2  C   UNL d   1      14.737  15.122  -2.991  0.00  0.00     0.005 A 
ATOM      3  C   UNL d   1      14.960  16.037  -1.916  0.00  0.00     0.005 A 
ATOM      4  C   UNL d   1      14.969  16.495  -3.269  0.00  0.00     0.020 A 
ATOM      5  C   UNL d   1      14.817  15.732  -3.532  0.00  0.00     0.002 A 
ATOM      6  C   UNL d   1      15.040  16.648  -2.464  0.00  0.00     0.002 A 
ENDROOT
BRANCH   4   7
ATOM      7  C   UNL d   1      15.051  17.115  -3.811  0.00  0.00     0.112 C 
BRANCH   7   8
ATOM      8  N   UNL d   1      14.666  17.073  -4.543  0.00  0.00    -0.157 NA
BRANCH   8   9
ATOM      9  S   UNL d   1      14.528  17.767  -4.980  0.00  0.00     0.285 S 
ATOM     10  O   UNL d   1      14.855  18.223  -4.367  0.00  0.00    -0.198 OA
ATOM     11  O   UNL d   1      14.198  17.312  -5.598  0.00  0.00    -0.198 OA
BRANCH   9  12
ATOM     12  C   UNL d   1      14.389  18.456  -5.417  0.00  0.00     0.107 A 
ATOM     13  C   UNL d   1      14.877  19.110  -5.323  0.00  0.00     0.037 A 
ATOM     14  C   UNL d   1      14.742  19.800  -5.758  0.00  0.00     0.095 A 
ATOM     15  C   UNL d   1      14.118  19.835  -6.286  0.00  0.00     0.024 A 
ATOM     16  C   UNL d   1      13.624  19.178  -6.385  0.00  0.00     0.003 A 
ATOM     17  C   UNL d   1      13.759  18.488  -5.950  0.00  0.00     0.013 A 
BRANCH  14  18
ATOM     18  O   UNL d   1      15.233  20.455  -5.662  0.00  0.00    -0.328 OA
ATOM     19  C   UNL d   1      15.041  21.166  -6.010  0.00  0.00     0.181 C 
ENDBRANCH  14  18
ENDBRANCH   9  12
ENDBRANCH   8   9
ENDBRANCH   7   8
ENDBRANCH   4   7
BRANCH   1  20
ATOM     20  C   UNL d   1      14.729  14.661  -1.628  0.00  0.00     0.279 C 
ATOM     21  N   UNL d   1      14.720  13.883  -1.885  0.00  0.00    -0.208 NA
ATOM     22  O   UNL d   1      14.658  14.830  -0.826  0.00  0.00    -0.265 OA
BRANCH  21  23
ATOM     23  C   UNL d   1      14.640  13.273  -1.336  0.00  0.00     0.086 A 
ATOM     24  C   UNL d   1      13.938  12.832  -1.316  0.00  0.00     0.031 A 
ATOM     25  C   UNL d   1      13.862  12.223  -0.766  0.00  0.00     0.059 A 
ATOM     26 CL   UNL d   1      13.167  11.785  -0.745  0.00  0.00    -0.082 Cl
ATOM     27  C   UNL d   1      14.477  12.054  -0.241  0.00  0.00     0.011 A 
ATOM     28  C   UNL d   1      15.172  12.498  -0.269  0.00  0.00     0.002 A 
ATOM     29  C   UNL d   1      15.248  13.107  -0.819  0.00  0.00     0.019 A 
ENDBRANCH  21  23
ENDBRANCH   1  20
TORSDOF 7
ENDMDL
