MODEL 1
REMARK VINA RESULT:      33.7      0.000      0.000
REMARK  4 active torsions:
REMARK  status: ('A' for Active; 'I' for Inactive)
REMARK       I    between atoms: C_2  and  N_1 
REMARK    1  A    between atoms: C_3  and  N_1 
REMARK       I    between atoms: N_6  and  C_2 
REMARK    2  A    between atoms: C_9  and  N_6 
REMARK    3  A    between atoms: C_10  and  C_9 
REMARK    4  A    between atoms: C_11  and  C_10 
ROOT
ATOM      1  N   UNL d   1      61.349  48.316  50.332  0.00  0.00    -0.172 NA
ATOM      2  C   UNL d   1      61.301  47.494  50.375  0.00  0.00     0.370 C 
ATOM      3  O   UNL d   1      60.829  47.137  50.944  0.00  0.00    -0.242 OA
ATOM      4  N   UNL d   1      61.731  47.028  49.840  0.00  0.00    -0.189 NA
ENDROOT
BRANCH   1   5
ATOM      5  C   UNL d   1      60.919  48.781  50.866  0.00  0.00     0.167 A 
ATOM      6  N   UNL d   1      60.137  48.973  50.708  0.00  0.00    -0.225 NA
ATOM      7  C   UNL d   1      59.712  49.435  51.239  0.00  0.00     0.101 A 
ATOM      8  C   UNL d   1      60.069  49.708  51.934  0.00  0.00     0.021 A 
ATOM      9  C   UNL d   1      60.856  49.511  52.085  0.00  0.00     0.005 A 
ATOM     10  C   UNL d   1      61.281  49.051  51.557  0.00  0.00     0.039 A 
ENDBRANCH   1   5
BRANCH   4  11
ATOM     11  C   UNL d   1      61.682  46.205  49.883  0.00  0.00     0.104 C 
BRANCH  11  12
ATOM     12  C   UNL d   1      62.179  45.747  49.416  0.00  0.00     0.021 C 
BRANCH  12  13
ATOM     13  C   UNL d   1      61.855  45.258  48.831  0.00  0.00     0.002 C 
ATOM     14  C   UNL d   1      61.281  44.708  49.032  0.00  0.00     0.000 C 
ENDBRANCH  12  13
ENDBRANCH  11  12
ENDBRANCH   4  11
TORSDOF 4
ENDMDL
MODEL 2
REMARK VINA RESULT:      34.3      1.480      2.358
REMARK  4 active torsions:
REMARK  status: ('A' for Active; 'I' for Inactive)
REMARK       I    between atoms: C_2  and  N_1 
REMARK    1  A    between atoms: C_3  and  N_1 
REMARK       I    between atoms: N_6  and  C_2 
REMARK    2  A    between atoms: C_9  and  N_6 
REMARK    3  A    between atoms: C_10  and  C_9 
REMARK    4  A    between atoms: C_11  and  C_10 
ROOT
ATOM      1  N   UNL d   1      59.712  49.627  50.331  0.00  0.00    -0.172 NA
ATOM      2  C   UNL d   1      60.116  48.937  50.535  0.00  0.00     0.370 C 
ATOM      3  O   UNL d   1      59.702  48.279  50.799  0.00  0.00    -0.242 OA
ATOM      4  N   UNL d   1      60.942  48.909  50.471  0.00  0.00    -0.189 NA
ENDROOT
BRANCH   1   5
ATOM      5  C   UNL d   1      58.886  49.654  50.395  0.00  0.00     0.167 A 
ATOM      6  N   UNL d   1      58.421  49.658  49.718  0.00  0.00    -0.225 NA
ATOM      7  C   UNL d   1      57.602  49.685  49.784  0.00  0.00     0.101 A 
ATOM      8  C   UNL d   1      57.243  49.708  50.528  0.00  0.00     0.021 A 
ATOM      9  C   UNL d   1      57.718  49.703  51.204  0.00  0.00     0.005 A 
ATOM     10  C   UNL d   1      58.534  49.676  51.141  0.00  0.00     0.039 A 
ENDBRANCH   1   5
BRANCH   4  11
ATOM     11  C   UNL d   1      61.346  48.219  50.675  0.00  0.00     0.104 C 
BRANCH  11  12
ATOM     12  C   UNL d   1      61.498  47.655  50.097  0.00  0.00     0.021 C 
BRANCH  12  13
ATOM     13  C   UNL d   1      61.856  46.939  50.309  0.00  0.00     0.002 C 
ATOM     14  C   UNL d   1      61.897  46.326  49.766  0.00  0.00     0.000 C 
ENDBRANCH  12  13
ENDBRANCH  11  12
ENDBRANCH   4  11
TORSDOF 4
ENDMDL
