MODEL 1
REMARK VINA RESULT:      -8.3      0.000      0.000
REMARK  1 active torsions:
REMARK  status: ('A' for Active; 'I' for Inactive)
REMARK    1  A    between atoms: C_7  and  C_4 
ROOT
ATOM      1  N   UNL d   1     -48.648  12.558  23.136  0.00  0.00    -0.242 NA
ATOM      2  C   UNL d   1     -48.714  13.981  22.948  0.00  0.00     0.156 A 
ATOM      3  N   UNL d   1     -49.518  13.966  23.136  0.00  0.00    -0.231 NA
ATOM      4  C   UNL d   1     -48.277  13.272  22.948  0.00  0.00     0.110 A 
ATOM      5  C   UNL d   1     -49.453  12.552  23.322  0.00  0.00     0.099 A 
ATOM      6  C   UNL d   1     -49.882  13.256  23.321  0.00  0.00     0.100 A 
ATOM      7 CL   UNL d   1     -48.341  14.691  22.761  0.00  0.00    -0.060 Cl
ATOM      8  C   UNL d   1     -49.832  11.837  23.512  0.00  0.00     0.021 A 
ATOM      9  C   UNL d   1     -50.691  13.246  23.509  0.00  0.00     0.021 A 
ATOM     10  C   UNL d   1     -51.064  12.537  23.697  0.00  0.00     0.002 A 
ATOM     11  C   UNL d   1     -50.635  11.832  23.698  0.00  0.00     0.002 A 
ENDROOT
BRANCH   4  12
ATOM     12  C   UNL d   1     -47.479  13.284  22.762  0.00  0.00     0.020 A 
ATOM     13  C   UNL d   1     -46.927  13.496  23.329  0.00  0.00     0.002 A 
ATOM     14  C   UNL d   1     -46.126  13.510  23.148  0.00  0.00     0.000 A 
ATOM     15  C   UNL d   1     -45.872  13.307  22.381  0.00  0.00     0.000 A 
ATOM     16  C   UNL d   1     -46.435  13.091  21.807  0.00  0.00     0.000 A 
ATOM     17  C   UNL d   1     -45.068  13.317  22.189  0.00  0.00     0.000 C 
ATOM     18  C   UNL d   1     -47.236  13.081  22.001  0.00  0.00     0.002 A 
ENDBRANCH   4  12
TORSDOF 1
ENDMDL
MODEL 2
REMARK VINA RESULT:      -8.2      1.531      2.003
REMARK  1 active torsions:
REMARK  status: ('A' for Active; 'I' for Inactive)
REMARK    1  A    between atoms: C_7  and  C_4 
ROOT
ATOM      1  N   UNL d   1     -48.941  13.747  23.323  0.00  0.00    -0.242 NA
ATOM      2  C   UNL d   1     -48.904  13.170  22.008  0.00  0.00     0.156 A 
ATOM      3  N   UNL d   1     -49.539  13.648  21.783  0.00  0.00    -0.231 NA
ATOM      4  C   UNL d   1     -48.604  13.221  22.783  0.00  0.00     0.110 A 
ATOM      5  C   UNL d   1     -49.576  14.222  23.089  0.00  0.00     0.099 A 
ATOM      6  C   UNL d   1     -49.870  14.169  22.320  0.00  0.00     0.100 A 
ATOM      7 CL   UNL d   1     -48.565  12.643  21.472  0.00  0.00    -0.060 Cl
ATOM      8  C   UNL d   1     -49.920  14.755  23.627  0.00  0.00     0.021 A 
ATOM      9  C   UNL d   1     -50.508  14.647  22.088  0.00  0.00     0.021 A 
ATOM     10  C   UNL d   1     -50.847  15.174  22.623  0.00  0.00     0.002 A 
ATOM     11  C   UNL d   1     -50.553  15.228  23.392  0.00  0.00     0.002 A 
ENDROOT
BRANCH   4  12
ATOM     12  C   UNL d   1     -47.975  12.748  23.009  0.00  0.00     0.020 A 
ATOM     13  C   UNL d   1     -47.206  13.015  22.921  0.00  0.00     0.002 A 
ATOM     14  C   UNL d   1     -46.571  12.545  23.146  0.00  0.00     0.000 A 
ATOM     15  C   UNL d   1     -46.710  11.789  23.468  0.00  0.00     0.000 A 
ATOM     16  C   UNL d   1     -47.493  11.519  23.557  0.00  0.00     0.000 A 
ATOM     17  C   UNL d   1     -46.079  11.308  23.697  0.00  0.00     0.000 C 
ATOM     18  C   UNL d   1     -48.121  12.000  23.327  0.00  0.00     0.002 A 
ENDBRANCH   4  12
TORSDOF 1
ENDMDL
MODEL 3
REMARK VINA RESULT:      -8.1      1.531      3.290
REMARK  1 active torsions:
REMARK  status: ('A' for Active; 'I' for Inactive)
REMARK    1  A    between atoms: C_7  and  C_4 
ROOT
ATOM      1  N   UNL d   1     -48.313  12.707  23.197  0.00  0.00    -0.242 NA
ATOM      2  C   UNL d   1     -47.542  13.860  22.823  0.00  0.00     0.156 A 
ATOM      3  N   UNL d   1     -46.846  13.434  22.950  0.00  0.00    -0.231 NA
ATOM      4  C   UNL d   1     -48.280  13.494  22.948  0.00  0.00     0.110 A 
ATOM      5  C   UNL d   1     -47.612  12.287  23.323  0.00  0.00     0.099 A 
ATOM      6  C   UNL d   1     -46.883  12.655  23.198  0.00  0.00     0.100 A 
ATOM      7 CL   UNL d   1     -47.513  14.645  22.574  0.00  0.00    -0.060 Cl
ATOM      8  C   UNL d   1     -47.637  11.496  23.574  0.00  0.00     0.021 A 
ATOM      9  C   UNL d   1     -46.181  12.230  23.324  0.00  0.00     0.021 A 
ATOM     10  C   UNL d   1     -46.209  11.446  23.573  0.00  0.00     0.002 A 
ATOM     11  C   UNL d   1     -46.937  11.079  23.698  0.00  0.00     0.002 A 
ENDROOT
BRANCH   4  12
ATOM     12  C   UNL d   1     -48.971  13.914  22.822  0.00  0.00     0.020 A 
ATOM     13  C   UNL d   1     -49.274  14.395  23.412  0.00  0.00     0.002 A 
ATOM     14  C   UNL d   1     -49.967  14.818  23.292  0.00  0.00     0.000 A 
ATOM     15  C   UNL d   1     -50.367  14.760  22.563  0.00  0.00     0.000 A 
ATOM     16  C   UNL d   1     -50.057  14.270  21.965  0.00  0.00     0.000 A 
ATOM     17  C   UNL d   1     -51.064  15.182  22.432  0.00  0.00     0.000 C 
ATOM     18  C   UNL d   1     -49.361  13.850  22.098  0.00  0.00     0.002 A 
ENDBRANCH   4  12
TORSDOF 1
ENDMDL
MODEL 4
REMARK VINA RESULT:      -6.4      8.600      9.602
REMARK  1 active torsions:
REMARK  status: ('A' for Active; 'I' for Inactive)
REMARK    1  A    between atoms: C_7  and  C_4 
ROOT
ATOM      1  N   UNL d   1     -39.154  14.172  20.067  0.00  0.00    -0.242 NA
ATOM      2  C   UNL d   1     -40.406  14.605  20.624  0.00  0.00     0.156 A 
ATOM      3  N   UNL d   1     -40.163  14.342  21.368  0.00  0.00    -0.231 NA
ATOM      4  C   UNL d   1     -39.897  14.519  19.969  0.00  0.00     0.110 A 
ATOM      5  C   UNL d   1     -38.919  13.911  20.815  0.00  0.00     0.099 A 
ATOM      6  C   UNL d   1     -39.426  13.999  21.460  0.00  0.00     0.100 A 
ATOM      7 CL   UNL d   1     -41.146  14.952  20.523  0.00  0.00    -0.060 Cl
ATOM      8  C   UNL d   1     -38.173  13.561  20.920  0.00  0.00     0.021 A 
ATOM      9  C   UNL d   1     -39.186  13.736  22.210  0.00  0.00     0.021 A 
ATOM     10  C   UNL d   1     -38.446  13.389  22.312  0.00  0.00     0.002 A 
ATOM     11  C   UNL d   1     -37.940  13.302  21.667  0.00  0.00     0.002 A 
ENDROOT
BRANCH   4  12
ATOM     12  C   UNL d   1     -40.136  14.779  19.230  0.00  0.00     0.020 A 
ATOM     13  C   UNL d   1     -40.058  15.569  19.026  0.00  0.00     0.002 A 
ATOM     14  C   UNL d   1     -40.295  15.835  18.287  0.00  0.00     0.000 A 
ATOM     15  C   UNL d   1     -40.618  15.298  17.738  0.00  0.00     0.000 A 
ATOM     16  C   UNL d   1     -40.696  14.496  17.947  0.00  0.00     0.000 A 
ATOM     17  C   UNL d   1     -40.860  15.556  16.991  0.00  0.00     0.000 C 
ATOM     18  C   UNL d   1     -40.454  14.241  18.693  0.00  0.00     0.002 A 
ENDBRANCH   4  12
TORSDOF 1
ENDMDL
MODEL 5
REMARK VINA RESULT:      -6.2      8.742      9.446
REMARK  1 active torsions:
REMARK  status: ('A' for Active; 'I' for Inactive)
REMARK    1  A    between atoms: C_7  and  C_4 
ROOT
ATOM      1  N   UNL d   1     -39.935  14.407  19.211  0.00  0.00    -0.242 NA
ATOM      2  C   UNL d   1     -40.333  15.539  20.001  0.00  0.00     0.156 A 
ATOM      3  N   UNL d   1     -40.664  15.888  19.329  0.00  0.00    -0.231 NA
ATOM      4  C   UNL d   1     -39.967  14.793  19.940  0.00  0.00     0.110 A 
ATOM      5  C   UNL d   1     -40.268  14.764  18.544  0.00  0.00     0.099 A 
ATOM      6  C   UNL d   1     -40.630  15.502  18.608  0.00  0.00     0.100 A 
ATOM      7 CL   UNL d   1     -40.363  15.922  20.730  0.00  0.00    -0.060 Cl
ATOM      8  C   UNL d   1     -40.240  14.381  17.807  0.00  0.00     0.021 A 
ATOM      9  C   UNL d   1     -40.964  15.858  17.936  0.00  0.00     0.021 A 
ATOM     10  C   UNL d   1     -40.934  15.476  17.207  0.00  0.00     0.002 A 
ATOM     11  C   UNL d   1     -40.572  14.738  17.142  0.00  0.00     0.002 A 
ENDROOT
BRANCH   4  12
ATOM     12  C   UNL d   1     -39.638  14.445  20.604  0.00  0.00     0.020 A 
ATOM     13  C   UNL d   1     -40.117  14.067  21.151  0.00  0.00     0.002 A 
ATOM     14  C   UNL d   1     -39.793  13.715  21.818  0.00  0.00     0.000 A 
ATOM     15  C   UNL d   1     -38.970  13.742  21.942  0.00  0.00     0.000 A 
ATOM     16  C   UNL d   1     -38.485  14.127  21.385  0.00  0.00     0.000 A 
ATOM     17  C   UNL d   1     -38.634  13.392  22.611  0.00  0.00     0.000 C 
ATOM     18  C   UNL d   1     -38.822  14.476  20.719  0.00  0.00     0.002 A 
ENDBRANCH   4  12
TORSDOF 1
ENDMDL
