MODEL 1
REMARK VINA RESULT:     -10.0      0.000      0.000
REMARK  4 active torsions:
REMARK  status: ('A' for Active; 'I' for Inactive)
REMARK    1  A    between atoms: C_8  and  C_2 
REMARK    2  A    between atoms: C_9  and  N_3 
REMARK    3  A    between atoms: C_12  and  C_9 
REMARK    4  A    between atoms: C_14  and  C_12 
ROOT
ATOM      1  N   UNL d   1      52.538  34.853  53.839  0.00  0.00    -0.217 NA
ATOM      2  C   UNL d   1      52.259  34.145  53.530  0.00  0.00     0.149 A 
ATOM      3  N   UNL d   1      52.625  33.437  53.731  0.00  0.00    -0.290 N 
ATOM      4  C   UNL d   1      53.548  34.158  54.549  0.00  0.00     0.044 A 
ATOM      5  C   UNL d   1      53.179  34.869  54.346  0.00  0.00     0.139 A 
ATOM      6  C   UNL d   1      53.275  33.437  54.244  0.00  0.00     0.068 A 
ATOM      7  S   UNL d   1      53.456  35.569  54.652  0.00  0.00    -0.057 SA
ATOM      8  C   UNL d   1      54.193  34.162  55.058  0.00  0.00     0.004 A 
ATOM      9  C   UNL d   1      53.642  32.738  54.446  0.00  0.00     0.018 A 
ATOM     10  C   UNL d   1      54.562  33.460  55.262  0.00  0.00     0.000 A 
ATOM     11  C   UNL d   1      54.276  32.736  54.946  0.00  0.00     0.002 A 
ENDROOT
BRANCH   2  12
ATOM     12  C   UNL d   1      51.612  34.135  53.018  0.00  0.00     0.035 A 
ATOM     13  C   UNL d   1      51.723  34.265  52.215  0.00  0.00     0.003 A 
ATOM     14  C   UNL d   1      51.064  34.253  51.700  0.00  0.00     0.000 A 
ATOM     15  C   UNL d   1      50.309  34.111  52.002  0.00  0.00     0.000 A 
ATOM     16  C   UNL d   1      50.209  33.982  52.811  0.00  0.00     0.000 A 
ATOM     17  C   UNL d   1      50.855  33.993  53.320  0.00  0.00     0.003 A 
ENDBRANCH   2  12
BRANCH   3  18
ATOM     18  C   UNL d   1      52.343  32.722  53.419  0.00  0.00     0.085 C 
BRANCH  18  19
ATOM     19  C   UNL d   1      52.877  32.190  53.096  0.00  0.00     0.064 C 
BRANCH  19  20
ATOM     20  C   UNL d   1      52.636  31.421  52.922  0.00  0.00     0.236 C 
ATOM     21  O   UNL d   1      52.873  31.055  52.239  0.00  0.00    -0.283 OA
ENDBRANCH  19  20
ENDBRANCH  18  19
ENDBRANCH   3  18
TORSDOF 4
ENDMDL
MODEL 2
REMARK VINA RESULT:      -9.9      1.668      2.397
REMARK  4 active torsions:
REMARK  status: ('A' for Active; 'I' for Inactive)
REMARK    1  A    between atoms: C_8  and  C_2 
REMARK    2  A    between atoms: C_9  and  N_3 
REMARK    3  A    between atoms: C_12  and  C_9 
REMARK    4  A    between atoms: C_14  and  C_12 
ROOT
ATOM      1  N   UNL d   1      52.423  32.531  53.024  0.00  0.00    -0.217 NA
ATOM      2  C   UNL d   1      52.206  33.284  53.267  0.00  0.00     0.149 A 
ATOM      3  N   UNL d   1      52.630  33.661  53.862  0.00  0.00    -0.290 N 
ATOM      4  C   UNL d   1      53.485  32.520  53.962  0.00  0.00     0.044 A 
ATOM      5  C   UNL d   1      53.058  32.143  53.364  0.00  0.00     0.139 A 
ATOM      6  C   UNL d   1      53.275  33.281  54.216  0.00  0.00     0.068 A 
ATOM      7  S   UNL d   1      53.273  31.397  53.124  0.00  0.00    -0.057 SA
ATOM      8  C   UNL d   1      54.124  32.141  54.311  0.00  0.00     0.004 A 
ATOM      9  C   UNL d   1      53.698  33.651  54.807  0.00  0.00     0.018 A 
ATOM     10  C   UNL d   1      54.550  32.511  54.905  0.00  0.00     0.000 A 
ATOM     11  C   UNL d   1      54.327  33.283  55.153  0.00  0.00     0.002 A 
ENDROOT
BRANCH   2  12
ATOM     12  C   UNL d   1      51.565  33.671  52.920  0.00  0.00     0.035 A 
ATOM     13  C   UNL d   1      50.838  33.683  53.303  0.00  0.00     0.003 A 
ATOM     14  C   UNL d   1      50.191  34.076  52.948  0.00  0.00     0.000 A 
ATOM     15  C   UNL d   1      50.288  34.448  52.217  0.00  0.00     0.000 A 
ATOM     16  C   UNL d   1      51.023  34.430  51.842  0.00  0.00     0.000 A 
ATOM     17  C   UNL d   1      51.661  34.044  52.189  0.00  0.00     0.003 A 
ENDBRANCH   2  12
BRANCH   3  18
ATOM     18  C   UNL d   1      52.410  34.422  54.108  0.00  0.00     0.085 C 
BRANCH  18  19
ATOM     19  C   UNL d   1      52.988  35.000  54.179  0.00  0.00     0.064 C 
BRANCH  19  20
ATOM     20  C   UNL d   1      52.807  35.720  54.538  0.00  0.00     0.236 C 
ATOM     21  O   UNL d   1      53.262  36.377  54.404  0.00  0.00    -0.283 OA
ENDBRANCH  19  20
ENDBRANCH  18  19
ENDBRANCH   3  18
TORSDOF 4
ENDMDL
MODEL 3
REMARK VINA RESULT:      -8.9      1.797      3.859
REMARK  4 active torsions:
REMARK  status: ('A' for Active; 'I' for Inactive)
REMARK    1  A    between atoms: C_8  and  C_2 
REMARK    2  A    between atoms: C_9  and  N_3 
REMARK    3  A    between atoms: C_12  and  C_9 
REMARK    4  A    between atoms: C_14  and  C_12 
ROOT
ATOM      1  N   UNL d   1      53.239  32.514  53.692  0.00  0.00    -0.217 NA
ATOM      2  C   UNL d   1      53.480  33.270  53.902  0.00  0.00     0.149 A 
ATOM      3  N   UNL d   1      53.049  33.923  53.648  0.00  0.00    -0.290 N 
ATOM      4  C   UNL d   1      52.142  33.049  52.973  0.00  0.00     0.044 A 
ATOM      5  C   UNL d   1      52.575  32.394  53.230  0.00  0.00     0.139 A 
ATOM      6  C   UNL d   1      52.374  33.817  53.179  0.00  0.00     0.068 A 
ATOM      7  S   UNL d   1      52.337  31.646  53.021  0.00  0.00    -0.057 SA
ATOM      8  C   UNL d   1      51.473  32.941  52.509  0.00  0.00     0.004 A 
ATOM      9  C   UNL d   1      51.945  34.461  52.924  0.00  0.00     0.018 A 
ATOM     10  C   UNL d   1      51.040  33.587  52.252  0.00  0.00     0.000 A 
ATOM     11  C   UNL d   1      51.287  34.361  52.468  0.00  0.00     0.002 A 
ENDROOT
BRANCH   2  12
ATOM     12  C   UNL d   1      54.150  33.385  54.369  0.00  0.00     0.035 A 
ATOM     13  C   UNL d   1      54.866  33.580  54.016  0.00  0.00     0.003 A 
ATOM     14  C   UNL d   1      55.543  33.696  54.493  0.00  0.00     0.000 A 
ATOM     15  C   UNL d   1      55.487  33.613  55.313  0.00  0.00     0.000 A 
ATOM     16  C   UNL d   1      54.763  33.416  55.656  0.00  0.00     0.000 A 
ATOM     17  C   UNL d   1      54.095  33.302  55.190  0.00  0.00     0.003 A 
ENDBRANCH   2  12
BRANCH   3  18
ATOM     18  C   UNL d   1      53.292  34.686  53.860  0.00  0.00     0.085 C 
BRANCH  18  19
ATOM     19  C   UNL d   1      52.754  35.189  54.222  0.00  0.00     0.064 C 
BRANCH  19  20
ATOM     20  C   UNL d   1      52.961  35.973  54.373  0.00  0.00     0.236 C 
ATOM     21  O   UNL d   1      52.673  36.362  55.022  0.00  0.00    -0.283 OA
ENDBRANCH  19  20
ENDBRANCH  18  19
ENDBRANCH   3  18
TORSDOF 4
ENDMDL
MODEL 4
REMARK VINA RESULT:      -8.6      1.346      2.823
REMARK  4 active torsions:
REMARK  status: ('A' for Active; 'I' for Inactive)
REMARK    1  A    between atoms: C_8  and  C_2 
REMARK    2  A    between atoms: C_9  and  N_3 
REMARK    3  A    between atoms: C_12  and  C_9 
REMARK    4  A    between atoms: C_14  and  C_12 
ROOT
ATOM      1  N   UNL d   1      54.228  32.651  54.515  0.00  0.00    -0.217 NA
ATOM      2  C   UNL d   1      53.598  32.461  54.023  0.00  0.00     0.149 A 
ATOM      3  N   UNL d   1      53.074  33.048  53.782  0.00  0.00    -0.290 N 
ATOM      4  C   UNL d   1      53.821  34.008  54.533  0.00  0.00     0.044 A 
ATOM      5  C   UNL d   1      54.346  33.418  54.774  0.00  0.00     0.139 A 
ATOM      6  C   UNL d   1      53.182  33.829  54.037  0.00  0.00     0.068 A 
ATOM      7  S   UNL d   1      54.969  33.606  55.261  0.00  0.00    -0.057 SA
ATOM      8  C   UNL d   1      53.929  34.781  54.787  0.00  0.00     0.004 A 
ATOM      9  C   UNL d   1      52.665  34.414  53.801  0.00  0.00     0.018 A 
ATOM     10  C   UNL d   1      53.412  35.370  54.551  0.00  0.00     0.000 A 
ATOM     11  C   UNL d   1      52.767  35.176  54.047  0.00  0.00     0.002 A 
ENDROOT
BRANCH   2  12
ATOM     12  C   UNL d   1      53.483  31.686  53.764  0.00  0.00     0.035 A 
ATOM     13  C   UNL d   1      53.652  31.484  52.986  0.00  0.00     0.003 A 
ATOM     14  C   UNL d   1      53.533  30.698  52.730  0.00  0.00     0.000 A 
ATOM     15  C   UNL d   1      53.250  30.131  53.259  0.00  0.00     0.000 A 
ATOM     16  C   UNL d   1      53.084  30.345  54.038  0.00  0.00     0.000 A 
ATOM     17  C   UNL d   1      53.199  31.118  54.294  0.00  0.00     0.003 A 
ENDBRANCH   2  12
BRANCH   3  18
ATOM     18  C   UNL d   1      52.439  32.856  53.286  0.00  0.00     0.085 C 
BRANCH  18  19
ATOM     19  C   UNL d   1      51.692  33.142  53.466  0.00  0.00     0.064 C 
BRANCH  19  20
ATOM     20  C   UNL d   1      51.065  33.012  52.946  0.00  0.00     0.236 C 
ATOM     21  O   UNL d   1      50.306  32.938  53.219  0.00  0.00    -0.283 OA
ENDBRANCH  19  20
ENDBRANCH  18  19
ENDBRANCH   3  18
TORSDOF 4
ENDMDL
MODEL 5
REMARK VINA RESULT:      -8.3      1.648      3.197
REMARK  4 active torsions:
REMARK  status: ('A' for Active; 'I' for Inactive)
REMARK    1  A    between atoms: C_8  and  C_2 
REMARK    2  A    between atoms: C_9  and  N_3 
REMARK    3  A    between atoms: C_12  and  C_9 
REMARK    4  A    between atoms: C_14  and  C_12 
ROOT
ATOM      1  N   UNL d   1      52.278  32.757  52.853  0.00  0.00    -0.217 NA
ATOM      2  C   UNL d   1      52.852  32.553  53.404  0.00  0.00     0.149 A 
ATOM      3  N   UNL d   1      53.135  33.119  53.929  0.00  0.00    -0.290 N 
ATOM      4  C   UNL d   1      52.264  34.087  53.341  0.00  0.00     0.044 A 
ATOM      5  C   UNL d   1      51.980  33.517  52.814  0.00  0.00     0.139 A 
ATOM      6  C   UNL d   1      52.843  33.894  53.902  0.00  0.00     0.068 A 
ATOM      7  S   UNL d   1      51.412  33.719  52.269  0.00  0.00    -0.057 SA
ATOM      8  C   UNL d   1      51.972  34.854  53.311  0.00  0.00     0.004 A 
ATOM      9  C   UNL d   1      53.121  34.458  54.420  0.00  0.00     0.018 A 
ATOM     10  C   UNL d   1      52.250  35.422  53.831  0.00  0.00     0.000 A 
ATOM     11  C   UNL d   1      52.837  35.213  54.395  0.00  0.00     0.002 A 
ENDROOT
BRANCH   2  12
ATOM     12  C   UNL d   1      53.149  31.784  53.439  0.00  0.00     0.035 A 
ATOM     13  C   UNL d   1      53.796  31.574  52.979  0.00  0.00     0.003 A 
ATOM     14  C   UNL d   1      54.093  30.794  53.018  0.00  0.00     0.000 A 
ATOM     15  C   UNL d   1      53.736  30.242  53.517  0.00  0.00     0.000 A 
ATOM     16  C   UNL d   1      53.086  30.464  53.975  0.00  0.00     0.000 A 
ATOM     17  C   UNL d   1      52.791  31.231  53.939  0.00  0.00     0.003 A 
ENDBRANCH   2  12
BRANCH   3  18
ATOM     18  C   UNL d   1      53.714  32.913  54.486  0.00  0.00     0.085 C 
BRANCH  18  19
ATOM     19  C   UNL d   1      54.342  33.424  54.614  0.00  0.00     0.064 C 
BRANCH  19  20
ATOM     20  C   UNL d   1      54.859  33.290  55.243  0.00  0.00     0.236 C 
ATOM     21  O   UNL d   1      55.583  33.653  55.271  0.00  0.00    -0.283 OA
ENDBRANCH  19  20
ENDBRANCH  18  19
ENDBRANCH   3  18
TORSDOF 4
ENDMDL
MODEL 6
REMARK VINA RESULT:      -7.3      1.560      2.861
REMARK  4 active torsions:
REMARK  status: ('A' for Active; 'I' for Inactive)
REMARK    1  A    between atoms: C_8  and  C_2 
REMARK    2  A    between atoms: C_9  and  N_3 
REMARK    3  A    between atoms: C_12  and  C_9 
REMARK    4  A    between atoms: C_14  and  C_12 
ROOT
ATOM      1  N   UNL d   1      54.057  33.246  53.810  0.00  0.00    -0.217 NA
ATOM      2  C   UNL d   1      53.311  33.585  53.863  0.00  0.00     0.149 A 
ATOM      3  N   UNL d   1      52.646  33.147  53.658  0.00  0.00    -0.290 N 
ATOM      4  C   UNL d   1      53.487  32.034  53.348  0.00  0.00     0.044 A 
ATOM      5  C   UNL d   1      54.154  32.475  53.554  0.00  0.00     0.139 A 
ATOM      6  C   UNL d   1      52.729  32.365  53.398  0.00  0.00     0.068 A 
ATOM      7  S   UNL d   1      54.892  32.140  53.502  0.00  0.00    -0.057 SA
ATOM      8  C   UNL d   1      53.572  31.259  53.090  0.00  0.00     0.004 A 
ATOM      9  C   UNL d   1      52.072  31.927  53.193  0.00  0.00     0.018 A 
ATOM     10  C   UNL d   1      52.915  30.817  52.885  0.00  0.00     0.000 A 
ATOM     11  C   UNL d   1      52.151  31.164  52.939  0.00  0.00     0.002 A 
ENDROOT
BRANCH   2  12
ATOM     12  C   UNL d   1      53.218  34.363  54.121  0.00  0.00     0.035 A 
ATOM     13  C   UNL d   1      53.270  34.982  53.584  0.00  0.00     0.003 A 
ATOM     14  C   UNL d   1      53.176  35.769  53.850  0.00  0.00     0.000 A 
ATOM     15  C   UNL d   1      53.031  35.917  54.650  0.00  0.00     0.000 A 
ATOM     16  C   UNL d   1      52.981  35.288  55.181  0.00  0.00     0.000 A 
ATOM     17  C   UNL d   1      53.073  34.513  54.921  0.00  0.00     0.003 A 
ENDBRANCH   2  12
BRANCH   3  18
ATOM     18  C   UNL d   1      51.892  33.489  53.712  0.00  0.00     0.085 C 
BRANCH  18  19
ATOM     19  C   UNL d   1      51.404  33.482  53.053  0.00  0.00     0.064 C 
BRANCH  19  20
ATOM     20  C   UNL d   1      50.621  33.732  53.120  0.00  0.00     0.236 C 
ATOM     21  O   UNL d   1      50.264  34.148  52.522  0.00  0.00    -0.283 OA
ENDBRANCH  19  20
ENDBRANCH  18  19
ENDBRANCH   3  18
TORSDOF 4
ENDMDL
MODEL 7
REMARK VINA RESULT:      -7.3      0.948      3.117
REMARK  4 active torsions:
REMARK  status: ('A' for Active; 'I' for Inactive)
REMARK    1  A    between atoms: C_8  and  C_2 
REMARK    2  A    between atoms: C_9  and  N_3 
REMARK    3  A    between atoms: C_12  and  C_9 
REMARK    4  A    between atoms: C_14  and  C_12 
ROOT
ATOM      1  N   UNL d   1      53.012  34.474  53.894  0.00  0.00    -0.217 NA
ATOM      2  C   UNL d   1      53.335  33.742  54.075  0.00  0.00     0.149 A 
ATOM      3  N   UNL d   1      52.928  33.054  53.882  0.00  0.00    -0.290 N 
ATOM      4  C   UNL d   1      51.875  33.845  53.327  0.00  0.00     0.044 A 
ATOM      5  C   UNL d   1      52.286  34.535  53.522  0.00  0.00     0.139 A 
ATOM      6  C   UNL d   1      52.192  33.100  53.505  0.00  0.00     0.068 A 
ATOM      7  S   UNL d   1      51.965  35.260  53.342  0.00  0.00    -0.057 SA
ATOM      8  C   UNL d   1      51.146  33.894  52.953  0.00  0.00     0.004 A 
ATOM      9  C   UNL d   1      51.785  32.421  53.311  0.00  0.00     0.018 A 
ATOM     10  C   UNL d   1      50.735  33.213  52.758  0.00  0.00     0.000 A 
ATOM     11  C   UNL d   1      51.067  32.463  52.944  0.00  0.00     0.002 A 
ENDROOT
BRANCH   2  12
ATOM     12  C   UNL d   1      54.068  33.686  54.451  0.00  0.00     0.035 A 
ATOM     13  C   UNL d   1      54.759  33.726  54.009  0.00  0.00     0.003 A 
ATOM     14  C   UNL d   1      55.499  33.668  54.395  0.00  0.00     0.000 A 
ATOM     15  C   UNL d   1      55.529  33.572  55.214  0.00  0.00     0.000 A 
ATOM     16  C   UNL d   1      54.828  33.533  55.648  0.00  0.00     0.000 A 
ATOM     17  C   UNL d   1      54.098  33.589  55.272  0.00  0.00     0.003 A 
ENDBRANCH   2  12
BRANCH   3  18
ATOM     18  C   UNL d   1      53.255  32.314  54.065  0.00  0.00     0.085 C 
BRANCH  18  19
ATOM     19  C   UNL d   1      53.299  31.742  53.480  0.00  0.00     0.064 C 
BRANCH  19  20
ATOM     20  C   UNL d   1      53.487  30.964  53.679  0.00  0.00     0.236 C 
ATOM     21  O   UNL d   1      53.947  30.509  53.191  0.00  0.00    -0.283 OA
ENDBRANCH  19  20
ENDBRANCH  18  19
ENDBRANCH   3  18
TORSDOF 4
ENDMDL
MODEL 8
REMARK VINA RESULT:      -7.3      1.938      2.888
REMARK  4 active torsions:
REMARK  status: ('A' for Active; 'I' for Inactive)
REMARK    1  A    between atoms: C_8  and  C_2 
REMARK    2  A    between atoms: C_9  and  N_3 
REMARK    3  A    between atoms: C_12  and  C_9 
REMARK    4  A    between atoms: C_14  and  C_12 
ROOT
ATOM      1  N   UNL d   1      52.059  33.363  53.390  0.00  0.00    -0.217 NA
ATOM      2  C   UNL d   1      52.771  33.652  53.679  0.00  0.00     0.149 A 
ATOM      3  N   UNL d   1      53.415  33.147  53.763  0.00  0.00    -0.290 N 
ATOM      4  C   UNL d   1      52.621  32.068  53.264  0.00  0.00     0.044 A 
ATOM      5  C   UNL d   1      51.975  32.576  53.181  0.00  0.00     0.139 A 
ATOM      6  C   UNL d   1      53.345  32.348  53.555  0.00  0.00     0.068 A 
ATOM      7  S   UNL d   1      51.270  32.290  52.895  0.00  0.00    -0.057 SA
ATOM      8  C   UNL d   1      52.549  31.276  53.058  0.00  0.00     0.004 A 
ATOM      9  C   UNL d   1      53.980  31.844  53.637  0.00  0.00     0.018 A 
ATOM     10  C   UNL d   1      53.186  30.769  53.139  0.00  0.00     0.000 A 
ATOM     11  C   UNL d   1      53.915  31.065  53.436  0.00  0.00     0.002 A 
ENDROOT
BRANCH   2  12
ATOM     12  C   UNL d   1      52.850  34.446  53.888  0.00  0.00     0.035 A 
ATOM     13  C   UNL d   1      53.212  34.972  53.371  0.00  0.00     0.003 A 
ATOM     14  C   UNL d   1      53.289  35.775  53.587  0.00  0.00     0.000 A 
ATOM     15  C   UNL d   1      53.002  36.034  54.317  0.00  0.00     0.000 A 
ATOM     16  C   UNL d   1      52.640  35.497  54.828  0.00  0.00     0.000 A 
ATOM     17  C   UNL d   1      52.562  34.706  54.618  0.00  0.00     0.003 A 
ENDBRANCH   2  12
BRANCH   3  18
ATOM     18  C   UNL d   1      54.133  33.439  54.055  0.00  0.00     0.085 C 
BRANCH  18  19
ATOM     19  C   UNL d   1      54.440  33.123  54.746  0.00  0.00     0.064 C 
BRANCH  19  20
ATOM     20  C   UNL d   1      55.194  33.342  55.000  0.00  0.00     0.236 C 
ATOM     21  O   UNL d   1      55.311  33.648  55.741  0.00  0.00    -0.283 OA
ENDBRANCH  19  20
ENDBRANCH  18  19
ENDBRANCH   3  18
TORSDOF 4
ENDMDL
