MODEL 1
REMARK VINA RESULT:      -0.0      0.000      0.000
REMARK  1 active torsions:
REMARK  status: ('A' for Active; 'I' for Inactive)
REMARK    1  A    between atoms: N_2  and  C_1 
ROOT
ATOM      1  C   UNL d   1      46.595 -18.993  42.209  0.00  0.00     0.148 A 
ATOM      2  C   UNL d   1      46.559 -18.526  42.914  0.00  0.00     0.051 A 
ATOM      3  C   UNL d   1      46.610 -19.816  42.271  0.00  0.00     0.127 A 
ATOM      4  C   UNL d   1      46.540 -18.885  43.651  0.00  0.00     0.121 A 
ATOM      5  C   UNL d   1      46.590 -20.172  43.038  0.00  0.00     0.049 A 
ATOM      6  C   UNL d   1      46.555 -19.708  43.713  0.00  0.00     0.121 A 
ATOM      7  O   UNL d   1      46.504 -18.561  44.435  0.00  0.00    -0.299 OA
ATOM      8  O   UNL d   1      46.529 -19.912  44.537  0.00  0.00    -0.299 OA
ATOM      9  C   UNL d   1      46.498 -19.195  44.952  0.00  0.00     0.304 A 
ATOM     10  N   UNL d   1      46.647 -20.260  41.534  0.00  0.00    -0.146 N 
ENDROOT
BRANCH   1  11
ATOM     11  N   UNL d   1      46.618 -18.663  41.413  0.00  0.00    -0.112 N 
ATOM     12  O   UNL d   1      46.614 -19.158  40.740  0.00  0.00    -0.532 OA
ATOM     13  O   UNL d   1      46.644 -17.814  41.294  0.00  0.00    -0.532 OA
ENDBRANCH   1  11
TORSDOF 1
ENDMDL
MODEL 2
REMARK VINA RESULT:       0.3      7.424      7.659
REMARK  1 active torsions:
REMARK  status: ('A' for Active; 'I' for Inactive)
REMARK    1  A    between atoms: N_2  and  C_1 
ROOT
ATOM      1  C   UNL d   1      44.053 -15.363  36.938  0.00  0.00     0.148 A 
ATOM      2  C   UNL d   1      44.498 -14.686  37.183  0.00  0.00     0.051 A 
ATOM      3  C   UNL d   1      44.442 -15.989  36.567  0.00  0.00     0.127 A 
ATOM      4  C   UNL d   1      45.307 -14.651  37.055  0.00  0.00     0.121 A 
ATOM      5  C   UNL d   1      45.278 -15.938  36.441  0.00  0.00     0.049 A 
ATOM      6  C   UNL d   1      45.697 -15.277  36.684  0.00  0.00     0.121 A 
ATOM      7  O   UNL d   1      45.881 -14.053  37.240  0.00  0.00    -0.299 OA
ATOM      8  O   UNL d   1      46.521 -15.081  36.631  0.00  0.00    -0.299 OA
ATOM      9  C   UNL d   1      46.604 -14.332  36.976  0.00  0.00     0.304 A 
ATOM     10  N   UNL d   1      43.959 -16.661  36.330  0.00  0.00    -0.146 N 
ENDROOT
BRANCH   1  11
ATOM     11  N   UNL d   1      43.203 -15.447  37.049  0.00  0.00    -0.112 N 
ATOM     12  O   UNL d   1      42.862 -15.418  37.811  0.00  0.00    -0.532 OA
ATOM     13  O   UNL d   1      42.684 -15.564  36.376  0.00  0.00    -0.532 OA
ENDBRANCH   1  11
TORSDOF 1
ENDMDL
MODEL 3
REMARK VINA RESULT:       1.8      5.283      6.291
REMARK  1 active torsions:
REMARK  status: ('A' for Active; 'I' for Inactive)
REMARK    1  A    between atoms: N_2  and  C_1 
ROOT
ATOM      1  C   UNL d   1      45.244 -14.350  44.368  0.00  0.00     0.148 A 
ATOM      2  C   UNL d   1      44.647 -13.972  43.902  0.00  0.00     0.051 A 
ATOM      3  C   UNL d   1      45.971 -13.975  44.473  0.00  0.00     0.127 A 
ATOM      4  C   UNL d   1      44.788 -13.242  43.558  0.00  0.00     0.121 A 
ATOM      5  C   UNL d   1      46.103 -13.221  44.111  0.00  0.00     0.049 A 
ATOM      6  C   UNL d   1      45.516 -12.866  43.662  0.00  0.00     0.121 A 
ATOM      7  O   UNL d   1      44.301 -12.744  43.072  0.00  0.00    -0.299 OA
ATOM      8  O   UNL d   1      45.495 -12.127  43.244  0.00  0.00    -0.299 OA
ATOM      9  C   UNL d   1      44.745 -12.080  42.895  0.00  0.00     0.304 A 
ATOM     10  N   UNL d   1      46.556 -14.387  44.953  0.00  0.00    -0.146 N 
ENDROOT
BRANCH   1  11
ATOM     11  N   UNL d   1      45.144 -15.116  44.750  0.00  0.00    -0.112 N 
ATOM     12  O   UNL d   1      45.802 -15.596  44.934  0.00  0.00    -0.532 OA
ATOM     13  O   UNL d   1      44.362 -15.404  44.951  0.00  0.00    -0.532 OA
ENDBRANCH   1  11
TORSDOF 1
ENDMDL
