MODEL 1
REMARK VINA RESULT:      -8.7      0.000      0.000
REMARK  3 active torsions:
REMARK  status: ('A' for Active; 'I' for Inactive)
REMARK    1  A    between atoms: N_2  and  S_1 
REMARK    2  A    between atoms: C_5  and  S_1 
REMARK    3  A    between atoms: C_4  and  C_3 
ROOT
ATOM      1  C   UNL d   1      51.637  33.947  53.271  0.00  0.00     0.083 A 
ATOM      2  C   UNL d   1      52.821  34.402  53.942  0.00  0.00     0.104 A 
ATOM      3  C   UNL d   1      52.087  34.006  53.956  0.00  0.00     0.018 A 
ATOM      4  C   UNL d   1      51.913  34.283  52.558  0.00  0.00     0.062 A 
ATOM      5  C   UNL d   1      53.090  34.732  53.235  0.00  0.00     0.014 A 
ATOM      6  C   UNL d   1      52.640  34.673  52.550  0.00  0.00     0.012 A 
ATOM      7 CL   UNL d   1      51.464  34.224  51.874  0.00  0.00    -0.082 Cl
ENDROOT
BRANCH   2   8
ATOM      8  S   UNL d   1      53.273  34.462  54.630  0.00  0.00     0.272 S 
ATOM      9  O   UNL d   1      52.873  35.142  54.835  0.00  0.00    -0.200 OA
ATOM     10  O   UNL d   1      53.735  34.522  55.333  0.00  0.00    -0.200 OA
BRANCH   8  11
ATOM     11  N   UNL d   1      53.693  33.749  54.417  0.00  0.00    -0.225 N 
ATOM     12  C   UNL d   1      53.440  33.003  54.733  0.00  0.00     0.116 A 
ATOM     13  C   UNL d   1      53.843  32.318  54.528  0.00  0.00     0.118 A 
ATOM     14  C   UNL d   1      53.604  31.584  54.832  0.00  0.00     0.028 C 
ATOM     15  O   UNL d   1      54.507  32.365  54.001  0.00  0.00    -0.304 OA
ATOM     16  C   UNL d   1      54.746  33.099  53.697  0.00  0.00     0.118 A 
ATOM     17  C   UNL d   1      54.343  33.784  53.903  0.00  0.00     0.116 A 
ATOM     18  C   UNL d   1      55.394  33.131  53.187  0.00  0.00     0.028 C 
ENDBRANCH   8  11
ENDBRANCH   2   8
BRANCH   1  19
ATOM     19  C   UNL d   1      50.895  33.545  53.291  0.00  0.00     0.420 C 
ATOM     20  F   UNL d   1      50.154  33.155  53.313  0.00  0.00    -0.166 F 
ATOM     21  F   UNL d   1      51.245  32.842  53.020  0.00  0.00    -0.166 F 
ATOM     22  F   UNL d   1      50.530  34.245  53.563  0.00  0.00    -0.166 F 
ENDBRANCH   1  19
TORSDOF 3
ENDMDL
MODEL 2
REMARK VINA RESULT:      -8.3      1.939      3.019
REMARK  3 active torsions:
REMARK  status: ('A' for Active; 'I' for Inactive)
REMARK    1  A    between atoms: N_2  and  S_1 
REMARK    2  A    between atoms: C_5  and  S_1 
REMARK    3  A    between atoms: C_4  and  C_3 
ROOT
ATOM      1  C   UNL d   1      53.899  33.060  54.584  0.00  0.00     0.083 A 
ATOM      2  C   UNL d   1      53.313  34.243  54.023  0.00  0.00     0.104 A 
ATOM      3  C   UNL d   1      53.393  33.703  54.654  0.00  0.00     0.018 A 
ATOM      4  C   UNL d   1      54.335  32.944  53.882  0.00  0.00     0.062 A 
ATOM      5  C   UNL d   1      53.746  34.124  53.330  0.00  0.00     0.014 A 
ATOM      6  C   UNL d   1      54.252  33.481  53.261  0.00  0.00     0.012 A 
ATOM      7 CL   UNL d   1      54.841  32.301  53.813  0.00  0.00    -0.082 Cl
ENDROOT
BRANCH   2   8
ATOM      8  S   UNL d   1      52.804  34.890  54.092  0.00  0.00     0.272 S 
ATOM      9  O   UNL d   1      53.333  35.252  54.596  0.00  0.00    -0.200 OA
ATOM     10  O   UNL d   1      52.284  35.550  54.164  0.00  0.00    -0.200 OA
BRANCH   8  11
ATOM     11  N   UNL d   1      52.249  34.511  53.565  0.00  0.00    -0.225 N 
ATOM     12  C   UNL d   1      51.663  33.985  53.882  0.00  0.00     0.116 A 
ATOM     13  C   UNL d   1      51.130  33.620  53.375  0.00  0.00     0.118 A 
ATOM     14  C   UNL d   1      50.552  33.105  53.675  0.00  0.00     0.028 C 
ATOM     15  O   UNL d   1      51.172  33.774  52.541  0.00  0.00    -0.304 OA
ATOM     16  C   UNL d   1      51.749  34.289  52.242  0.00  0.00     0.118 A 
ATOM     17  C   UNL d   1      52.282  34.654  52.749  0.00  0.00     0.116 A 
ATOM     18  C   UNL d   1      51.780  34.430  51.429  0.00  0.00     0.028 C 
ENDBRANCH   8  11
ENDBRANCH   2   8
BRANCH   1  19
ATOM     19  C   UNL d   1      53.977  32.517  55.226  0.00  0.00     0.420 C 
ATOM     20  F   UNL d   1      54.059  31.984  55.867  0.00  0.00    -0.166 F 
ATOM     21  F   UNL d   1      53.478  31.969  54.849  0.00  0.00    -0.166 F 
ATOM     22  F   UNL d   1      54.479  33.057  55.616  0.00  0.00    -0.166 F 
ENDBRANCH   1  19
TORSDOF 3
ENDMDL
MODEL 3
REMARK VINA RESULT:      -8.3      1.533      2.334
REMARK  3 active torsions:
REMARK  status: ('A' for Active; 'I' for Inactive)
REMARK    1  A    between atoms: N_2  and  S_1 
REMARK    2  A    between atoms: C_5  and  S_1 
REMARK    3  A    between atoms: C_4  and  C_3 
ROOT
ATOM      1  C   UNL d   1      51.976  33.776  52.564  0.00  0.00     0.083 A 
ATOM      2  C   UNL d   1      52.466  32.573  53.174  0.00  0.00     0.104 A 
ATOM      3  C   UNL d   1      52.440  33.099  52.526  0.00  0.00     0.018 A 
ATOM      4  C   UNL d   1      51.529  33.940  53.250  0.00  0.00     0.062 A 
ATOM      5  C   UNL d   1      52.023  32.740  53.850  0.00  0.00     0.014 A 
ATOM      6  C   UNL d   1      51.559  33.416  53.887  0.00  0.00     0.012 A 
ATOM      7 CL   UNL d   1      51.066  34.616  53.288  0.00  0.00    -0.082 Cl
ENDROOT
BRANCH   2   8
ATOM      8  S   UNL d   1      52.933  31.892  53.136  0.00  0.00     0.272 S 
ATOM      9  O   UNL d   1      52.345  31.513  52.717  0.00  0.00    -0.200 OA
ATOM     10  O   UNL d   1      53.409  31.197  53.097  0.00  0.00    -0.200 OA
BRANCH   8  11
ATOM     11  N   UNL d   1      53.548  32.289  53.575  0.00  0.00    -0.225 N 
ATOM     12  C   UNL d   1      54.199  32.641  53.159  0.00  0.00     0.116 A 
ATOM     13  C   UNL d   1      54.791  33.023  53.581  0.00  0.00     0.118 A 
ATOM     14  C   UNL d   1      55.431  33.371  53.183  0.00  0.00     0.028 C 
ATOM     15  O   UNL d   1      54.744  33.061  54.428  0.00  0.00    -0.304 OA
ATOM     16  C   UNL d   1      54.104  32.714  54.825  0.00  0.00     0.118 A 
ATOM     17  C   UNL d   1      53.512  32.332  54.403  0.00  0.00     0.116 A 
ATOM     18  C   UNL d   1      54.070  32.758  55.648  0.00  0.00     0.028 C 
ENDBRANCH   8  11
ENDBRANCH   2   8
BRANCH   1  19
ATOM     19  C   UNL d   1      51.953  34.305  51.907  0.00  0.00     0.420 C 
ATOM     20  F   UNL d   1      51.923  34.823  51.250  0.00  0.00    -0.166 F 
ATOM     21  F   UNL d   1      52.502  34.812  52.269  0.00  0.00    -0.166 F 
ATOM     22  F   UNL d   1      51.400  33.804  51.531  0.00  0.00    -0.166 F 
ENDBRANCH   1  19
TORSDOF 3
ENDMDL
MODEL 4
REMARK VINA RESULT:      -8.3      2.424      3.638
REMARK  3 active torsions:
REMARK  status: ('A' for Active; 'I' for Inactive)
REMARK    1  A    between atoms: N_2  and  S_1 
REMARK    2  A    between atoms: C_5  and  S_1 
REMARK    3  A    between atoms: C_4  and  C_3 
ROOT
ATOM      1  C   UNL d   1      54.603  33.185  54.469  0.00  0.00     0.083 A 
ATOM      2  C   UNL d   1      53.634  32.405  53.755  0.00  0.00     0.104 A 
ATOM      3  C   UNL d   1      54.294  32.915  53.758  0.00  0.00     0.018 A 
ATOM      4  C   UNL d   1      54.257  32.950  55.192  0.00  0.00     0.062 A 
ATOM      5  C   UNL d   1      53.296  32.175  54.472  0.00  0.00     0.014 A 
ATOM      6  C   UNL d   1      53.604  32.445  55.183  0.00  0.00     0.012 A 
ATOM      7 CL   UNL d   1      54.565  33.220  55.903  0.00  0.00    -0.082 Cl
ENDROOT
BRANCH   2   8
ATOM      8  S   UNL d   1      53.323  32.133  53.039  0.00  0.00     0.272 S 
ATOM      9  O   UNL d   1      53.871  31.529  53.031  0.00  0.00    -0.200 OA
ATOM     10  O   UNL d   1      53.007  31.856  52.309  0.00  0.00    -0.200 OA
BRANCH   8  11
ATOM     11  N   UNL d   1      52.749  32.765  53.048  0.00  0.00    -0.225 N 
ATOM     12  C   UNL d   1      51.981  32.629  53.381  0.00  0.00     0.116 A 
ATOM     13  C   UNL d   1      51.429  33.237  53.390  0.00  0.00     0.118 A 
ATOM     14  C   UNL d   1      50.675  33.114  53.714  0.00  0.00     0.028 C 
ATOM     15  O   UNL d   1      51.635  33.994  53.065  0.00  0.00    -0.304 OA
ATOM     16  C   UNL d   1      52.389  34.117  52.741  0.00  0.00     0.118 A 
ATOM     17  C   UNL d   1      52.940  33.509  52.733  0.00  0.00     0.116 A 
ATOM     18  C   UNL d   1      52.576  34.857  52.428  0.00  0.00     0.028 C 
ENDBRANCH   8  11
ENDBRANCH   2   8
BRANCH   1  19
ATOM     19  C   UNL d   1      55.271  33.701  54.467  0.00  0.00     0.420 C 
ATOM     20  F   UNL d   1      55.939  34.206  54.461  0.00  0.00    -0.166 F 
ATOM     21  F   UNL d   1      54.824  34.314  54.808  0.00  0.00    -0.166 F 
ATOM     22  F   UNL d   1      55.731  33.095  54.126  0.00  0.00    -0.166 F 
ENDBRANCH   1  19
TORSDOF 3
ENDMDL
MODEL 5
REMARK VINA RESULT:      -8.1      1.951      3.285
REMARK  3 active torsions:
REMARK  status: ('A' for Active; 'I' for Inactive)
REMARK    1  A    between atoms: N_2  and  S_1 
REMARK    2  A    between atoms: C_5  and  S_1 
REMARK    3  A    between atoms: C_4  and  C_3 
ROOT
ATOM      1  C   UNL d   1      53.386  31.034  53.548  0.00  0.00     0.083 A 
ATOM      2  C   UNL d   1      54.049  32.296  53.710  0.00  0.00     0.104 A 
ATOM      3  C   UNL d   1      53.733  31.700  53.218  0.00  0.00     0.018 A 
ATOM      4  C   UNL d   1      53.348  30.949  54.378  0.00  0.00     0.062 A 
ATOM      5  C   UNL d   1      54.009  32.207  54.529  0.00  0.00     0.014 A 
ATOM      6  C   UNL d   1      53.661  31.541  54.860  0.00  0.00     0.012 A 
ATOM      7 CL   UNL d   1      53.000  30.283  54.708  0.00  0.00    -0.082 Cl
ENDROOT
BRANCH   2   8
ATOM      8  S   UNL d   1      54.399  32.966  53.377  0.00  0.00     0.272 S 
ATOM      9  O   UNL d   1      55.058  32.528  53.186  0.00  0.00    -0.200 OA
ATOM     10  O   UNL d   1      54.755  33.651  53.038  0.00  0.00    -0.200 OA
BRANCH   8  11
ATOM     11  N   UNL d   1      53.708  33.426  53.578  0.00  0.00    -0.225 N 
ATOM     12  C   UNL d   1      53.059  33.468  53.033  0.00  0.00     0.116 A 
ATOM     13  C   UNL d   1      52.394  33.910  53.226  0.00  0.00     0.118 A 
ATOM     14  C   UNL d   1      51.755  33.956  52.699  0.00  0.00     0.028 C 
ATOM     15  O   UNL d   1      52.365  34.319  53.969  0.00  0.00    -0.304 OA
ATOM     16  C   UNL d   1      53.005  34.272  54.495  0.00  0.00     0.118 A 
ATOM     17  C   UNL d   1      53.669  33.830  54.302  0.00  0.00     0.116 A 
ATOM     18  C   UNL d   1      52.964  34.675  55.214  0.00  0.00     0.028 C 
ENDBRANCH   8  11
ENDBRANCH   2   8
BRANCH   1  19
ATOM     19  C   UNL d   1      53.068  30.434  53.046  0.00  0.00     0.420 C 
ATOM     20  F   UNL d   1      52.762  29.836  52.547  0.00  0.00    -0.166 F 
ATOM     21  F   UNL d   1      52.307  30.762  53.103  0.00  0.00    -0.166 F 
ATOM     22  F   UNL d   1      53.828  30.094  52.980  0.00  0.00    -0.166 F 
ENDBRANCH   1  19
TORSDOF 3
ENDMDL
