MODEL 1
REMARK VINA RESULT:      -3.7      0.000      0.000
REMARK  2 active torsions:
REMARK  status: ('A' for Active; 'I' for Inactive)
REMARK    1  A    between atoms: N_14  and  C_4 
REMARK    2  A    between atoms: C_9  and  C_5 
ROOT
ATOM      1  C   UNL d   1      30.405  16.739 -24.140  0.00  0.00     0.060 A 
ATOM      2  C   UNL d   1      30.774  17.354 -24.546  0.00  0.00     0.197 A 
ATOM      3  C   UNL d   1      30.842  16.218 -23.671  0.00  0.00     0.043 A 
ATOM      4  C   UNL d   1      29.583  16.628 -24.194  0.00  0.00     0.090 A 
ATOM      5  C   UNL d   1      29.214  16.011 -23.787  0.00  0.00     0.082 A 
ATOM      6  C   UNL d   1      31.659  16.298 -23.595  0.00  0.00     0.196 A 
ATOM      7  C   UNL d   1      31.592  17.435 -24.471  0.00  0.00     0.042 A 
ATOM      8  C   UNL d   1      32.028  16.914 -24.001  0.00  0.00     0.042 A 
ATOM      9  C   UNL d   1      30.453  15.590 -23.259  0.00  0.00     0.004 A 
ATOM     10  C   UNL d   1      29.619  15.528 -23.352  0.00  0.00     0.008 A 
ATOM     11  O   UNL d   1      30.322  17.860 -25.006  0.00  0.00    -0.286 OA
ATOM     12  O   UNL d   1      32.088  15.752 -23.107  0.00  0.00    -0.287 OA
ATOM     13  C   UNL d   1      31.985  18.065 -24.883  0.00  0.00     0.003 A 
ATOM     14  C   UNL d   1      32.869  17.009 -23.932  0.00  0.00     0.003 A 
ATOM     15  C   UNL d   1      33.239  17.625 -24.338  0.00  0.00     0.000 A 
ATOM     16  C   UNL d   1      32.802  18.146 -24.808  0.00  0.00     0.000 A 
ENDROOT
BRANCH   5  17
ATOM     17  C   UNL d   1      28.409  15.872 -23.817  0.00  0.00     0.212 C 
ATOM     18  O   UNL d   1      28.061  15.455 -24.444  0.00  0.00    -0.644 OA
ATOM     19  O   UNL d   1      27.900  16.136 -23.226  0.00  0.00    -0.644 OA
ENDBRANCH   5  17
BRANCH   4  20
ATOM     20  N   UNL d   1      29.110  17.148 -24.669  0.00  0.00    -0.242 NA
ATOM     21  C   UNL d   1      28.741  17.798 -24.350  0.00  0.00     0.119 C 
ENDBRANCH   4  20
TORSDOF 2
ENDMDL
MODEL 2
REMARK VINA RESULT:      -3.6      0.770      1.758
REMARK  2 active torsions:
REMARK  status: ('A' for Active; 'I' for Inactive)
REMARK    1  A    between atoms: N_14  and  C_4 
REMARK    2  A    between atoms: C_9  and  C_5 
ROOT
ATOM      1  C   UNL d   1      30.393  16.510 -23.931  0.00  0.00     0.060 A 
ATOM      2  C   UNL d   1      31.100  16.203 -23.637  0.00  0.00     0.197 A 
ATOM      3  C   UNL d   1      30.389  17.184 -24.407  0.00  0.00     0.043 A 
ATOM      4  C   UNL d   1      29.667  16.147 -23.753  0.00  0.00     0.090 A 
ATOM      5  C   UNL d   1      28.960  16.455 -24.048  0.00  0.00     0.082 A 
ATOM      6  C   UNL d   1      31.091  17.570 -24.603  0.00  0.00     0.196 A 
ATOM      7  C   UNL d   1      31.803  16.588 -23.833  0.00  0.00     0.042 A 
ATOM      8  C   UNL d   1      31.798  17.263 -24.309  0.00  0.00     0.042 A 
ATOM      9  C   UNL d   1      29.659  17.490 -24.703  0.00  0.00     0.004 A 
ATOM     10  C   UNL d   1      28.956  17.080 -24.490  0.00  0.00     0.008 A 
ATOM     11  O   UNL d   1      31.081  15.532 -23.166  0.00  0.00    -0.286 OA
ATOM     12  O   UNL d   1      31.064  18.262 -25.094  0.00  0.00    -0.287 OA
ATOM     13  C   UNL d   1      32.538  16.282 -23.537  0.00  0.00     0.003 A 
ATOM     14  C   UNL d   1      32.529  17.650 -24.503  0.00  0.00     0.003 A 
ATOM     15  C   UNL d   1      33.237  17.342 -24.209  0.00  0.00     0.000 A 
ATOM     16  C   UNL d   1      33.241  16.668 -23.733  0.00  0.00     0.000 A 
ENDROOT
BRANCH   5  17
ATOM     17  C   UNL d   1      28.227  16.125 -23.894  0.00  0.00     0.212 C 
ATOM     18  O   UNL d   1      27.950  15.464 -24.312  0.00  0.00    -0.644 OA
ATOM     19  O   UNL d   1      27.725  16.430 -23.318  0.00  0.00    -0.644 OA
ENDBRANCH   5  17
BRANCH   4  20
ATOM     20  N   UNL d   1      29.642  15.453 -23.266  0.00  0.00    -0.242 NA
ATOM     21  C   UNL d   1      29.481  15.496 -22.471  0.00  0.00     0.119 C 
ENDBRANCH   4  20
TORSDOF 2
ENDMDL
MODEL 3
REMARK VINA RESULT:      -3.5      1.278      3.791
REMARK  2 active torsions:
REMARK  status: ('A' for Active; 'I' for Inactive)
REMARK    1  A    between atoms: N_14  and  C_4 
REMARK    2  A    between atoms: C_9  and  C_5 
ROOT
ATOM      1  C   UNL d   1      30.786  16.773 -24.007  0.00  0.00     0.060 A 
ATOM      2  C   UNL d   1      30.446  16.204 -23.517  0.00  0.00     0.197 A 
ATOM      3  C   UNL d   1      30.319  17.245 -24.498  0.00  0.00     0.043 A 
ATOM      4  C   UNL d   1      31.610  16.884 -24.019  0.00  0.00     0.090 A 
ATOM      5  C   UNL d   1      31.950  17.454 -24.510  0.00  0.00     0.082 A 
ATOM      6  C   UNL d   1      29.499  17.161 -24.511  0.00  0.00     0.196 A 
ATOM      7  C   UNL d   1      29.625  16.119 -23.530  0.00  0.00     0.042 A 
ATOM      8  C   UNL d   1      29.158  16.592 -24.021  0.00  0.00     0.042 A 
ATOM      9  C   UNL d   1      30.679  17.825 -24.996  0.00  0.00     0.004 A 
ATOM     10  C   UNL d   1      31.517  17.893 -24.965  0.00  0.00     0.008 A 
ATOM     11  O   UNL d   1      30.928  15.746 -23.038  0.00  0.00    -0.286 OA
ATOM     12  O   UNL d   1      29.038  17.657 -25.023  0.00  0.00    -0.287 OA
ATOM     13  C   UNL d   1      29.261  15.537 -23.031  0.00  0.00     0.003 A 
ATOM     14  C   UNL d   1      28.314  16.494 -24.025  0.00  0.00     0.003 A 
ATOM     15  C   UNL d   1      27.973  15.925 -23.535  0.00  0.00     0.000 A 
ATOM     16  C   UNL d   1      28.440  15.453 -23.044  0.00  0.00     0.000 A 
ENDROOT
BRANCH   5  17
ATOM     17  C   UNL d   1      32.755  17.592 -24.547  0.00  0.00     0.212 C 
ATOM     18  O   UNL d   1      33.128  18.140 -24.049  0.00  0.00    -0.644 OA
ATOM     19  O   UNL d   1      33.240  17.195 -25.082  0.00  0.00    -0.644 OA
ENDBRANCH   5  17
BRANCH   4  20
ATOM     20  N   UNL d   1      32.114  16.413 -23.525  0.00  0.00    -0.242 NA
ATOM     21  C   UNL d   1      32.444  15.720 -23.792  0.00  0.00     0.119 C 
ENDBRANCH   4  20
TORSDOF 2
ENDMDL
MODEL 4
REMARK VINA RESULT:      -2.2      4.933      6.095
REMARK  2 active torsions:
REMARK  status: ('A' for Active; 'I' for Inactive)
REMARK    1  A    between atoms: N_14  and  C_4 
REMARK    2  A    between atoms: C_9  and  C_5 
ROOT
ATOM      1  C   UNL d   1      32.859  21.290 -21.729  0.00  0.00     0.060 A 
ATOM      2  C   UNL d   1      32.859  21.004 -22.502  0.00  0.00     0.197 A 
ATOM      3  C   UNL d   1      32.983  20.784 -21.088  0.00  0.00     0.043 A 
ATOM      4  C   UNL d   1      32.733  22.097 -21.576  0.00  0.00     0.090 A 
ATOM      5  C   UNL d   1      32.734  22.383 -20.801  0.00  0.00     0.082 A 
ATOM      6  C   UNL d   1      33.111  19.977 -21.204  0.00  0.00     0.196 A 
ATOM      7  C   UNL d   1      32.986  20.197 -22.618  0.00  0.00     0.042 A 
ATOM      8  C   UNL d   1      33.111  19.690 -21.977  0.00  0.00     0.042 A 
ATOM      9  C   UNL d   1      32.981  21.088 -20.300  0.00  0.00     0.004 A 
ATOM     10  C   UNL d   1      32.849  21.914 -20.207  0.00  0.00     0.008 A 
ATOM     11  O   UNL d   1      32.734  21.524 -23.122  0.00  0.00    -0.286 OA
ATOM     12  O   UNL d   1      33.236  19.474 -20.531  0.00  0.00    -0.287 OA
ATOM     13  C   UNL d   1      32.989  19.888 -23.409  0.00  0.00     0.003 A 
ATOM     14  C   UNL d   1      33.241  18.862 -22.111  0.00  0.00     0.003 A 
ATOM     15  C   UNL d   1      33.241  18.575 -22.885  0.00  0.00     0.000 A 
ATOM     16  C   UNL d   1      33.117  19.081 -23.525  0.00  0.00     0.000 A 
ENDROOT
BRANCH   5  17
ATOM     17  C   UNL d   1      32.614  23.170 -20.612  0.00  0.00     0.212 C 
ATOM     18  O   UNL d   1      31.879  23.539 -20.725  0.00  0.00    -0.644 OA
ATOM     19  O   UNL d   1      33.215  23.639 -20.300  0.00  0.00    -0.644 OA
ENDBRANCH   5  17
BRANCH   4  20
ATOM     20  N   UNL d   1      32.603  22.640 -22.214  0.00  0.00    -0.242 NA
ATOM     21  C   UNL d   1      33.211  23.075 -22.534  0.00  0.00     0.119 C 
ENDBRANCH   4  20
TORSDOF 2
ENDMDL
MODEL 5
REMARK VINA RESULT:      -1.3      5.549      6.568
REMARK  2 active torsions:
REMARK  status: ('A' for Active; 'I' for Inactive)
REMARK    1  A    between atoms: N_14  and  C_4 
REMARK    2  A    between atoms: C_9  and  C_5 
ROOT
ATOM      1  C   UNL d   1      32.919  22.263 -22.117  0.00  0.00     0.060 A 
ATOM      2  C   UNL d   1      32.923  22.815 -22.729  0.00  0.00     0.197 A 
ATOM      3  C   UNL d   1      33.016  21.457 -22.271  0.00  0.00     0.043 A 
ATOM      4  C   UNL d   1      32.816  22.505 -21.329  0.00  0.00     0.090 A 
ATOM      5  C   UNL d   1      32.813  21.952 -20.716  0.00  0.00     0.082 A 
ATOM      6  C   UNL d   1      33.121  21.182 -23.041  0.00  0.00     0.196 A 
ATOM      7  C   UNL d   1      33.027  22.540 -23.500  0.00  0.00     0.042 A 
ATOM      8  C   UNL d   1      33.124  21.734 -23.654  0.00  0.00     0.042 A 
ATOM      9  C   UNL d   1      33.011  20.901 -21.635  0.00  0.00     0.004 A 
ATOM     10  C   UNL d   1      32.903  21.205 -20.858  0.00  0.00     0.008 A 
ATOM     11  O   UNL d   1      32.824  23.609 -22.555  0.00  0.00    -0.286 OA
ATOM     12  O   UNL d   1      33.219  20.349 -23.176  0.00  0.00    -0.287 OA
ATOM     13  C   UNL d   1      33.033  23.097 -24.141  0.00  0.00     0.003 A 
ATOM     14  C   UNL d   1      33.231  21.465 -24.452  0.00  0.00     0.003 A 
ATOM     15  C   UNL d   1      33.235  22.017 -25.066  0.00  0.00     0.000 A 
ATOM     16  C   UNL d   1      33.137  22.822 -24.912  0.00  0.00     0.000 A 
ENDROOT
BRANCH   5  17
ATOM     17  C   UNL d   1      32.714  22.153 -19.929  0.00  0.00     0.212 C 
ATOM     18  O   UNL d   1      33.240  22.664 -19.540  0.00  0.00    -0.644 OA
ATOM     19  O   UNL d   1      32.089  21.861 -19.480  0.00  0.00    -0.644 OA
ENDBRANCH   5  17
BRANCH   4  20
ATOM     20  N   UNL d   1      32.714  23.327 -21.142  0.00  0.00    -0.242 NA
ATOM     21  C   UNL d   1      31.994  23.695 -21.222  0.00  0.00     0.119 C 
ENDBRANCH   4  20
TORSDOF 2
ENDMDL
MODEL 6
REMARK VINA RESULT:      -1.0      3.276      4.439
REMARK  2 active torsions:
REMARK  status: ('A' for Active; 'I' for Inactive)
REMARK    1  A    between atoms: N_14  and  C_4 
REMARK    2  A    between atoms: C_9  and  C_5 
ROOT
ATOM      1  C   UNL d   1      32.852  19.655 -23.111  0.00  0.00     0.060 A 
ATOM      2  C   UNL d   1      32.851  20.464 -23.266  0.00  0.00     0.197 A 
ATOM      3  C   UNL d   1      32.978  19.368 -22.347  0.00  0.00     0.043 A 
ATOM      4  C   UNL d   1      32.724  19.107 -23.723  0.00  0.00     0.090 A 
ATOM      5  C   UNL d   1      32.724  18.296 -23.568  0.00  0.00     0.082 A 
ATOM      6  C   UNL d   1      33.108  19.884 -21.717  0.00  0.00     0.196 A 
ATOM      7  C   UNL d   1      32.982  20.981 -22.636  0.00  0.00     0.042 A 
ATOM      8  C   UNL d   1      33.108  20.694 -21.871  0.00  0.00     0.042 A 
ATOM      9  C   UNL d   1      32.976  18.536 -22.201  0.00  0.00     0.004 A 
ATOM     10  C   UNL d   1      32.842  18.030 -22.859  0.00  0.00     0.008 A 
ATOM     11  O   UNL d   1      32.724  20.727 -24.031  0.00  0.00    -0.286 OA
ATOM     12  O   UNL d   1      33.237  19.567 -20.939  0.00  0.00    -0.287 OA
ATOM     13  C   UNL d   1      32.984  21.818 -22.780  0.00  0.00     0.003 A 
ATOM     14  C   UNL d   1      33.241  21.237 -21.232  0.00  0.00     0.003 A 
ATOM     15  C   UNL d   1      33.241  22.048 -21.386  0.00  0.00     0.000 A 
ATOM     16  C   UNL d   1      33.114  22.334 -22.150  0.00  0.00     0.000 A 
ENDROOT
BRANCH   5  17
ATOM     17  C   UNL d   1      32.602  17.728 -24.143  0.00  0.00     0.212 C 
ATOM     18  O   UNL d   1      33.213  17.230 -24.402  0.00  0.00    -0.644 OA
ATOM     19  O   UNL d   1      31.866  17.618 -24.497  0.00  0.00    -0.644 OA
ENDBRANCH   5  17
BRANCH   4  20
ATOM     20  N   UNL d   1      32.591  19.373 -24.517  0.00  0.00    -0.242 NA
ATOM     21  C   UNL d   1      33.164  19.307 -25.090  0.00  0.00     0.119 C 
ENDBRANCH   4  20
TORSDOF 2
ENDMDL
