MODEL 1
REMARK VINA RESULT:      -8.6      0.000      0.000
REMARK  1 active torsions:
REMARK  status: ('A' for Active; 'I' for Inactive)
REMARK    1  A    between atoms: C_2  and  C_3 
ROOT
ATOM      1  C   UNL d   1      53.950  32.411  54.011  0.00  0.00     0.002 A 
ATOM      2  C   UNL d   1      54.573  32.829  53.667  0.00  0.00     0.000 A 
ATOM      3  C   UNL d   1      53.785  32.507  54.813  0.00  0.00     0.000 A 
ATOM      4  C   UNL d   1      55.030  33.343  54.125  0.00  0.00     0.000 A 
ATOM      5  C   UNL d   1      54.241  33.021  55.272  0.00  0.00     0.000 A 
ATOM      6  C   UNL d   1      54.864  33.439  54.928  0.00  0.00     0.000 A 
ENDROOT
BRANCH   1   7
ATOM      7  C   UNL d   1      53.491  31.895  53.555  0.00  0.00     0.021 A 
ATOM      8  C   UNL d   1      52.919  32.113  53.005  0.00  0.00     0.099 A 
ATOM      9  N   UNL d   1      52.601  31.427  52.682  0.00  0.00    -0.242 NA
ATOM     10  C   UNL d   1      52.977  30.780  53.034  0.00  0.00     0.099 A 
ATOM     11  C   UNL d   1      53.528  31.070  53.575  0.00  0.00     0.022 A 
ENDBRANCH   1   7
TORSDOF 1
ENDMDL
MODEL 2
REMARK VINA RESULT:      -8.0      1.175      2.702
REMARK  1 active torsions:
REMARK  status: ('A' for Active; 'I' for Inactive)
REMARK    1  A    between atoms: C_2  and  C_3 
ROOT
ATOM      1  C   UNL d   1      53.672  31.995  53.813  0.00  0.00     0.002 A 
ATOM      2  C   UNL d   1      53.843  31.189  53.857  0.00  0.00     0.000 A 
ATOM      3  C   UNL d   1      53.055  32.258  53.331  0.00  0.00     0.000 A 
ATOM      4  C   UNL d   1      53.400  30.647  53.420  0.00  0.00     0.000 A 
ATOM      5  C   UNL d   1      52.612  31.715  52.894  0.00  0.00     0.000 A 
ATOM      6  C   UNL d   1      52.784  30.910  52.938  0.00  0.00     0.000 A 
ENDROOT
BRANCH   1   7
ATOM      7  C   UNL d   1      54.114  32.542  54.249  0.00  0.00     0.021 A 
ATOM      8  C   UNL d   1      54.754  32.979  53.972  0.00  0.00     0.099 A 
ATOM      9  N   UNL d   1      55.027  33.451  54.588  0.00  0.00    -0.242 NA
ATOM     10  C   UNL d   1      54.553  33.305  55.250  0.00  0.00     0.099 A 
ATOM     11  C   UNL d   1      53.988  32.743  55.041  0.00  0.00     0.022 A 
ENDBRANCH   1   7
TORSDOF 1
ENDMDL
MODEL 3
REMARK VINA RESULT:      -7.4      1.628      2.162
REMARK  1 active torsions:
REMARK  status: ('A' for Active; 'I' for Inactive)
REMARK    1  A    between atoms: C_2  and  C_3 
ROOT
ATOM      1  C   UNL d   1      53.315  33.558  53.906  0.00  0.00     0.002 A 
ATOM      2  C   UNL d   1      53.472  33.875  54.652  0.00  0.00     0.000 A 
ATOM      3  C   UNL d   1      53.865  33.057  53.550  0.00  0.00     0.000 A 
ATOM      4  C   UNL d   1      54.177  33.691  55.040  0.00  0.00     0.000 A 
ATOM      5  C   UNL d   1      54.570  32.872  53.938  0.00  0.00     0.000 A 
ATOM      6  C   UNL d   1      54.726  33.189  54.683  0.00  0.00     0.000 A 
ENDROOT
BRANCH   1   7
ATOM      7  C   UNL d   1      52.610  33.741  53.514  0.00  0.00     0.021 A 
ATOM      8  C   UNL d   1      51.964  33.239  53.419  0.00  0.00     0.099 A 
ATOM      9  N   UNL d   1      51.386  33.644  52.997  0.00  0.00    -0.242 NA
ATOM     10  C   UNL d   1      51.675  34.400  52.829  0.00  0.00     0.099 A 
ATOM     11  C   UNL d   1      52.432  34.461  53.149  0.00  0.00     0.022 A 
ENDBRANCH   1   7
TORSDOF 1
ENDMDL
MODEL 4
REMARK VINA RESULT:      -7.2      1.883      2.813
REMARK  1 active torsions:
REMARK  status: ('A' for Active; 'I' for Inactive)
REMARK    1  A    between atoms: C_2  and  C_3 
ROOT
ATOM      1  C   UNL d   1      52.854  33.675  53.644  0.00  0.00     0.002 A 
ATOM      2  C   UNL d   1      52.798  34.446  53.356  0.00  0.00     0.000 A 
ATOM      3  C   UNL d   1      52.221  33.155  53.551  0.00  0.00     0.000 A 
ATOM      4  C   UNL d   1      52.109  34.696  52.975  0.00  0.00     0.000 A 
ATOM      5  C   UNL d   1      51.532  33.405  53.170  0.00  0.00     0.000 A 
ATOM      6  C   UNL d   1      51.476  34.176  52.882  0.00  0.00     0.000 A 
ENDROOT
BRANCH   1   7
ATOM      7  C   UNL d   1      53.543  33.421  54.026  0.00  0.00     0.021 A 
ATOM      8  C   UNL d   1      54.160  32.998  53.683  0.00  0.00     0.099 A 
ATOM      9  N   UNL d   1      54.729  32.862  54.260  0.00  0.00    -0.242 NA
ATOM     10  C   UNL d   1      54.463  33.203  54.966  0.00  0.00     0.099 A 
ATOM     11  C   UNL d   1      53.729  33.549  54.821  0.00  0.00     0.022 A 
ENDBRANCH   1   7
TORSDOF 1
ENDMDL
MODEL 5
REMARK VINA RESULT:      -6.9      1.072      1.485
REMARK  1 active torsions:
REMARK  status: ('A' for Active; 'I' for Inactive)
REMARK    1  A    between atoms: C_2  and  C_3 
ROOT
ATOM      1  C   UNL d   1      53.455  31.740  53.532  0.00  0.00     0.002 A 
ATOM      2  C   UNL d   1      54.243  31.956  53.649  0.00  0.00     0.000 A 
ATOM      3  C   UNL d   1      52.873  32.323  53.483  0.00  0.00     0.000 A 
ATOM      4  C   UNL d   1      54.448  32.753  53.718  0.00  0.00     0.000 A 
ATOM      5  C   UNL d   1      53.079  33.120  53.552  0.00  0.00     0.000 A 
ATOM      6  C   UNL d   1      53.866  33.335  53.669  0.00  0.00     0.000 A 
ENDROOT
BRANCH   1   7
ATOM      7  C   UNL d   1      53.245  30.943  53.463  0.00  0.00     0.021 A 
ATOM      8  C   UNL d   1      53.376  30.357  54.026  0.00  0.00     0.099 A 
ATOM      9  N   UNL d   1      53.081  29.648  53.730  0.00  0.00    -0.242 NA
ATOM     10  C   UNL d   1      52.766  29.796  52.980  0.00  0.00     0.099 A 
ATOM     11  C   UNL d   1      52.868  30.597  52.814  0.00  0.00     0.022 A 
ENDBRANCH   1   7
TORSDOF 1
ENDMDL
