MODEL 1
REMARK VINA RESULT:      -1.2      0.000      0.000
REMARK  6 active torsions:
REMARK  status: ('A' for Active; 'I' for Inactive)
REMARK    1  A    between atoms: O_8  and  C_1 
REMARK    2  A    between atoms: C_2  and  C_3 
REMARK    3  A    between atoms: C_3  and  O_8 
REMARK    4  A    between atoms: C_4  and  S_17 
REMARK    5  A    between atoms: C_23  and  C_14 
REMARK    6  A    between atoms: S_17  and  C_23 
ROOT
ATOM      1  C   UNL d   1      59.293  -8.888  34.258  0.00  0.00     0.167 A 
ATOM      2  C   UNL d   1      59.695  -9.506  33.878  0.00  0.00     0.222 A 
ATOM      3  C   UNL d   1      59.375  -9.811  33.176  0.00  0.00     0.069 A 
ATOM      4  C   UNL d   1      58.593  -8.583  33.945  0.00  0.00     0.151 A 
ATOM      5  C   UNL d   1      58.675  -9.506  32.862  0.00  0.00     0.110 A 
ATOM      6  O   UNL d   1      58.288  -8.894  33.249  0.00  0.00    -0.302 OA
ATOM      7  O   UNL d   1      60.388  -9.808  34.188  0.00  0.00    -0.284 OA
ENDROOT
BRANCH   5   8
ATOM      8  C   UNL d   1      58.367  -9.815  32.165  0.00  0.00     0.063 C 
BRANCH   8   9
ATOM      9  S   UNL d   1      58.684  -9.342  31.566  0.00  0.00    -0.046 SA
BRANCH   9  10
ATOM     10  C   UNL d   1      58.399  -9.402  30.801  0.00  0.00     0.194 A 
ATOM     11  N   UNL d   1      58.913  -9.300  30.166  0.00  0.00    -0.221 NA
ATOM     12  C   UNL d   1      58.631  -9.360  29.405  0.00  0.00     0.085 A 
ATOM     13  C   UNL d   1      59.144  -9.258  28.770  0.00  0.00     0.021 C 
ATOM     14  C   UNL d   1      57.833  -9.521  29.266  0.00  0.00     0.038 A 
ATOM     15  C   UNL d   1      57.329  -9.621  29.912  0.00  0.00     0.085 A 
ATOM     16  N   UNL d   1      57.618  -9.560  30.672  0.00  0.00    -0.221 NA
ATOM     17  C   UNL d   1      56.530  -9.782  29.773  0.00  0.00     0.021 C 
ENDBRANCH   9  10
ENDBRANCH   8   9
ENDBRANCH   5   8
BRANCH   1  18
ATOM     18  O   UNL d   1      59.431  -8.449  34.948  0.00  0.00    -0.266 OA
BRANCH  18  19
ATOM     19  C   UNL d   1      60.096  -7.966  35.005  0.00  0.00     0.323 C 
ATOM     20  O   UNL d   1      60.775  -8.167  34.612  0.00  0.00    -0.257 OA
BRANCH  19  21
ATOM     21  C   UNL d   1      60.078  -7.273  35.463  0.00  0.00     0.164 A 
ATOM     22  O   UNL d   1      60.718  -6.785  35.585  0.00  0.00    -0.295 OA
ATOM     23  C   UNL d   1      60.454  -6.173  36.066  0.00  0.00     0.134 A 
ATOM     24 BR   UNL d   1      60.919  -5.551  36.329  0.00  0.00    -0.022 Br
ATOM     25  C   UNL d   1      59.680  -6.289  36.228  0.00  0.00     0.034 A 
ATOM     26  C   UNL d   1      59.448  -6.973  35.853  0.00  0.00     0.033 A 
ENDBRANCH  19  21
ENDBRANCH  18  19
ENDBRANCH   1  18
TORSDOF 6
ENDMDL
MODEL 2
REMARK VINA RESULT:      -0.5      2.825      5.746
REMARK  6 active torsions:
REMARK  status: ('A' for Active; 'I' for Inactive)
REMARK    1  A    between atoms: O_8  and  C_1 
REMARK    2  A    between atoms: C_2  and  C_3 
REMARK    3  A    between atoms: C_3  and  O_8 
REMARK    4  A    between atoms: C_4  and  S_17 
REMARK    5  A    between atoms: C_23  and  C_14 
REMARK    6  A    between atoms: S_17  and  C_23 
ROOT
ATOM      1  C   UNL d   1      58.336  -9.770  31.287  0.00  0.00     0.167 A 
ATOM      2  C   UNL d   1      57.773  -9.693  31.892  0.00  0.00     0.222 A 
ATOM      3  C   UNL d   1      58.040  -9.665  32.677  0.00  0.00     0.069 A 
ATOM      4  C   UNL d   1      59.141  -9.817  31.462  0.00  0.00     0.151 A 
ATOM      5  C   UNL d   1      58.845  -9.713  32.852  0.00  0.00     0.110 A 
ATOM      6  O   UNL d   1      59.391  -9.789  32.243  0.00  0.00    -0.302 OA
ATOM      7  O   UNL d   1      56.976  -9.646  31.719  0.00  0.00    -0.284 OA
ENDROOT
BRANCH   5   8
ATOM      8  C   UNL d   1      59.099  -9.685  33.634  0.00  0.00     0.063 C 
BRANCH   8   9
ATOM      9  S   UNL d   1      59.297  -8.892  33.763  0.00  0.00    -0.046 SA
BRANCH   9  10
ATOM     10  C   UNL d   1      59.573  -8.651  34.495  0.00  0.00     0.194 A 
ATOM     11  N   UNL d   1      59.278  -7.962  34.834  0.00  0.00    -0.221 NA
ATOM     12  C   UNL d   1      59.551  -7.721  35.562  0.00  0.00     0.085 A 
ATOM     13  C   UNL d   1      59.257  -7.031  35.901  0.00  0.00     0.021 C 
ATOM     14  C   UNL d   1      60.121  -8.164  35.963  0.00  0.00     0.038 A 
ATOM     15  C   UNL d   1      60.408  -8.855  35.611  0.00  0.00     0.085 A 
ATOM     16  N   UNL d   1      60.130  -9.090  34.881  0.00  0.00    -0.221 NA
ATOM     17  C   UNL d   1      60.978  -9.299  36.011  0.00  0.00     0.021 C 
ENDBRANCH   9  10
ENDBRANCH   8   9
ENDBRANCH   5   8
BRANCH   1  18
ATOM     18  O   UNL d   1      58.290  -9.816  30.461  0.00  0.00    -0.266 OA
BRANCH  18  19
ATOM     19  C   UNL d   1      58.162  -9.135  30.015  0.00  0.00     0.323 C 
ATOM     20  O   UNL d   1      58.631  -8.484  30.129  0.00  0.00    -0.257 OA
BRANCH  19  21
ATOM     21  C   UNL d   1      57.555  -9.108  29.448  0.00  0.00     0.164 A 
ATOM     22  O   UNL d   1      57.017  -8.501  29.377  0.00  0.00    -0.295 OA
ATOM     23  C   UNL d   1      56.523  -8.701  28.751  0.00  0.00     0.134 A 
ATOM     24 BR   UNL d   1      55.898  -8.243  28.485  0.00  0.00    -0.022 Br
ATOM     25  C   UNL d   1      56.756  -9.406  28.456  0.00  0.00     0.034 A 
ATOM     26  C   UNL d   1      57.397  -9.657  28.889  0.00  0.00     0.033 A 
ENDBRANCH  19  21
ENDBRANCH  18  19
ENDBRANCH   1  18
TORSDOF 6
ENDMDL
