MODEL 1
REMARK VINA RESULT:      -2.9      0.000      0.000
REMARK  3 active torsions:
REMARK  status: ('A' for Active; 'I' for Inactive)
REMARK    1  A    between atoms: C_2  and  C_1 
REMARK    2  A    between atoms: C_4  and  C_1 
REMARK       I    between atoms: N_3  and  C_2 
REMARK    3  A    between atoms: C_6  and  N_5 
ROOT
ATOM      1  C   UNL d   1      32.548  17.841 -24.371  0.00  0.00     0.253 C 
ATOM      2  N   UNL d   1      32.636  18.417 -23.789  0.00  0.00    -0.272 N 
ATOM      3  N   UNL d   1      32.866  19.604 -22.697  0.00  0.00    -0.299 N 
ATOM      4  O   UNL d   1      32.922  17.927 -25.097  0.00  0.00    -0.271 OA
ATOM      5  C   UNL d   1      33.105  19.066 -23.966  0.00  0.00     0.102 A 
ATOM      6  C   UNL d   1      32.285  18.366 -23.067  0.00  0.00     0.102 A 
ATOM      7  C   UNL d   1      33.225  19.659 -23.430  0.00  0.00     0.100 A 
ATOM      8  C   UNL d   1      32.396  18.960 -22.511  0.00  0.00     0.100 A 
ENDROOT
BRANCH   1   9
ATOM      9  C   UNL d   1      32.084  17.173 -24.231  0.00  0.00     0.137 A 
ATOM     10  C   UNL d   1      31.624  16.514 -24.093  0.00  0.00     0.018 A 
ATOM     11  C   UNL d   1      31.974  15.815 -23.806  0.00  0.00     0.119 A 
ATOM     12  O   UNL d   1      32.774  15.786 -23.663  0.00  0.00    -0.304 OA
ATOM     13  C   UNL d   1      33.240  16.451 -23.802  0.00  0.00     0.119 A 
ATOM     14  C   UNL d   1      32.896  17.147 -24.086  0.00  0.00     0.018 A 
BRANCH   9  15
ATOM     15  C   UNL d   1      31.270  17.203 -24.377  0.00  0.00     0.023 A 
ATOM     16  S   UNL d   1      30.901  17.389 -25.097  0.00  0.00    -0.090 SA
ATOM     17  C   UNL d   1      30.084  17.354 -24.997  0.00  0.00     0.035 A 
ATOM     18  C   UNL d   1      29.926  17.147 -24.220  0.00  0.00     0.007 A 
ATOM     19  C   UNL d   1      30.660  17.052 -23.832  0.00  0.00     0.004 A 
ENDBRANCH   9  15
ENDBRANCH   1   9
BRANCH   3  20
ATOM     20  C   UNL d   1      32.973  20.188 -22.148  0.00  0.00     0.092 A 
ATOM     21  C   UNL d   1      33.133  19.993 -21.366  0.00  0.00     0.156 A 
ATOM     22  F   UNL d   1      33.184  19.217 -21.138  0.00  0.00    -0.203 F 
ATOM     23  C   UNL d   1      33.241  20.580 -20.814  0.00  0.00     0.031 A 
ATOM     24  C   UNL d   1      33.190  21.372 -21.038  0.00  0.00     0.002 A 
ATOM     25  C   UNL d   1      33.030  21.565 -21.824  0.00  0.00     0.002 A 
ATOM     26  C   UNL d   1      32.921  20.968 -22.382  0.00  0.00     0.020 A 
ENDBRANCH   3  20
TORSDOF 3
ENDMDL
MODEL 2
REMARK VINA RESULT:      -2.5      0.906      1.532
REMARK  3 active torsions:
REMARK  status: ('A' for Active; 'I' for Inactive)
REMARK    1  A    between atoms: C_2  and  C_1 
REMARK    2  A    between atoms: C_4  and  C_1 
REMARK       I    between atoms: N_3  and  C_2 
REMARK    3  A    between atoms: C_6  and  N_5 
ROOT
ATOM      1  C   UNL d   1      32.615  18.019 -24.271  0.00  0.00     0.253 C 
ATOM      2  N   UNL d   1      32.679  18.587 -23.678  0.00  0.00    -0.272 N 
ATOM      3  N   UNL d   1      32.861  19.759 -22.561  0.00  0.00    -0.299 N 
ATOM      4  O   UNL d   1      33.010  18.122 -24.984  0.00  0.00    -0.271 OA
ATOM      5  C   UNL d   1      33.145  19.245 -23.830  0.00  0.00     0.102 A 
ATOM      6  C   UNL d   1      32.308  18.520 -22.968  0.00  0.00     0.102 A 
ATOM      7  C   UNL d   1      33.241  19.831 -23.282  0.00  0.00     0.100 A 
ATOM      8  C   UNL d   1      32.394  19.106 -22.399  0.00  0.00     0.100 A 
ENDROOT
BRANCH   1   9
ATOM      9  C   UNL d   1      32.155  17.343 -24.155  0.00  0.00     0.137 A 
ATOM     10  C   UNL d   1      31.702  16.675 -24.040  0.00  0.00     0.018 A 
ATOM     11  C   UNL d   1      30.934  16.635 -24.356  0.00  0.00     0.119 A 
ATOM     12  O   UNL d   1      30.631  17.260 -24.780  0.00  0.00    -0.304 OA
ATOM     13  C   UNL d   1      31.087  17.935 -24.897  0.00  0.00     0.119 A 
ATOM     14  C   UNL d   1      31.851  17.980 -24.585  0.00  0.00     0.018 A 
BRANCH   9  15
ATOM     15  C   UNL d   1      32.464  16.708 -23.724  0.00  0.00     0.023 A 
ATOM     16  S   UNL d   1      33.129  16.252 -23.920  0.00  0.00    -0.090 SA
ATOM     17  C   UNL d   1      33.241  15.678 -23.340  0.00  0.00     0.035 A 
ATOM     18  C   UNL d   1      32.654  15.763 -22.774  0.00  0.00     0.007 A 
ATOM     19  C   UNL d   1      32.171  16.402 -23.009  0.00  0.00     0.004 A 
ENDBRANCH   9  15
ENDBRANCH   1   9
BRANCH   3  20
ATOM     20  C   UNL d   1      32.945  20.335 -22.000  0.00  0.00     0.092 A 
ATOM     21  C   UNL d   1      33.084  20.129 -21.216  0.00  0.00     0.156 A 
ATOM     22  F   UNL d   1      33.138  19.350 -21.000  0.00  0.00    -0.203 F 
ATOM     23  C   UNL d   1      33.168  20.709 -20.653  0.00  0.00     0.031 A 
ATOM     24  C   UNL d   1      33.114  21.504 -20.865  0.00  0.00     0.002 A 
ATOM     25  C   UNL d   1      32.975  21.708 -21.653  0.00  0.00     0.002 A 
ATOM     26  C   UNL d   1      32.890  21.118 -22.224  0.00  0.00     0.020 A 
ENDBRANCH   3  20
TORSDOF 3
ENDMDL
MODEL 3
REMARK VINA RESULT:      -0.9      1.846      4.354
REMARK  3 active torsions:
REMARK  status: ('A' for Active; 'I' for Inactive)
REMARK    1  A    between atoms: C_2  and  C_1 
REMARK    2  A    between atoms: C_4  and  C_1 
REMARK       I    between atoms: N_3  and  C_2 
REMARK    3  A    between atoms: C_6  and  N_5 
ROOT
ATOM      1  C   UNL d   1      32.638  18.080 -24.148  0.00  0.00     0.253 C 
ATOM      2  N   UNL d   1      31.908  17.708 -24.060  0.00  0.00    -0.272 N 
ATOM      3  N   UNL d   1      30.500  16.900 -23.936  0.00  0.00    -0.299 N 
ATOM      4  O   UNL d   1      33.239  17.714 -24.570  0.00  0.00    -0.271 OA
ATOM      5  C   UNL d   1      31.814  16.970 -24.407  0.00  0.00     0.102 A 
ATOM      6  C   UNL d   1      31.297  18.036 -23.653  0.00  0.00     0.102 A 
ATOM      7  C   UNL d   1      31.119  16.563 -24.350  0.00  0.00     0.100 A 
ATOM      8  C   UNL d   1      30.583  17.635 -23.586  0.00  0.00     0.100 A 
ENDROOT
BRANCH   1   9
ATOM      9  C   UNL d   1      32.771  18.823 -23.813  0.00  0.00     0.137 A 
ATOM     10  C   UNL d   1      32.902  19.556 -23.481  0.00  0.00     0.018 A 
ATOM     11  C   UNL d   1      32.895  20.236 -23.960  0.00  0.00     0.119 A 
ATOM     12  O   UNL d   1      32.756  20.174 -24.759  0.00  0.00    -0.304 OA
ATOM     13  C   UNL d   1      32.623  19.435 -25.096  0.00  0.00     0.119 A 
ATOM     14  C   UNL d   1      32.630  18.756 -24.624  0.00  0.00     0.018 A 
BRANCH   9  15
ATOM     15  C   UNL d   1      32.912  18.886 -23.000  0.00  0.00     0.023 A 
ATOM     16  S   UNL d   1      32.817  19.563 -22.531  0.00  0.00    -0.090 SA
ATOM     17  C   UNL d   1      33.018  19.382 -21.753  0.00  0.00     0.035 A 
ATOM     18  C   UNL d   1      33.241  18.594 -21.720  0.00  0.00     0.007 A 
ATOM     19  C   UNL d   1      33.176  18.283 -22.492  0.00  0.00     0.004 A 
ENDBRANCH   9  15
ENDBRANCH   1   9
BRANCH   3  20
ATOM     20  C   UNL d   1      29.796  16.507 -23.869  0.00  0.00     0.092 A 
ATOM     21  C   UNL d   1      29.216  16.600 -24.443  0.00  0.00     0.156 A 
ATOM     22  F   UNL d   1      29.343  17.084 -25.081  0.00  0.00    -0.203 F 
ATOM     23  C   UNL d   1      28.509  16.205 -24.375  0.00  0.00     0.031 A 
ATOM     24  C   UNL d   1      28.371  15.710 -23.729  0.00  0.00     0.002 A 
ATOM     25  C   UNL d   1      28.956  15.619 -23.153  0.00  0.00     0.002 A 
ATOM     26  C   UNL d   1      29.673  16.021 -23.225  0.00  0.00     0.020 A 
ENDBRANCH   3  20
TORSDOF 3
ENDMDL
