MODEL 1
REMARK VINA RESULT:      35.2      0.000      0.000
REMARK  3 active torsions:
REMARK  status: ('A' for Active; 'I' for Inactive)
REMARK    1  A    between atoms: N_6  and  C_1 
REMARK    2  A    between atoms: C_14  and  N_4 
REMARK    3  A    between atoms: C_9  and  N_6 
ROOT
ATOM      1  C   UNL d   1      13.396  12.460  -3.487  0.00  0.00     0.157 A 
ATOM      2  C   UNL d   1      13.693  13.193  -3.260  0.00  0.00     0.298 A 
ATOM      3  N   UNL d   1      13.234  13.283  -4.513  0.00  0.00    -0.238 N 
ATOM      4  N   UNL d   1      13.591  13.708  -3.905  0.00  0.00    -0.209 N 
ATOM      5  C   UNL d   1      13.111  12.503  -4.253  0.00  0.00     0.104 A 
ATOM      6  O   UNL d   1      14.032  13.392  -2.535  0.00  0.00    -0.263 OA
ATOM      7  C   UNL d   1      13.032  13.587  -5.258  0.00  0.00     0.120 C 
ATOM      8  C   UNL d   1      12.769  11.895  -4.684  0.00  0.00     0.022 C 
ENDROOT
BRANCH   1   9
ATOM      9  N   UNL d   1      13.387  11.779  -3.006  0.00  0.00    -0.239 NA
BRANCH   9  10
ATOM     10  C   UNL d   1      13.746  11.793  -2.260  0.00  0.00     0.082 A 
ATOM     11  C   UNL d   1      13.278  11.795  -1.571  0.00  0.00     0.022 A 
ATOM     12  C   UNL d   1      13.636  11.809  -0.839  0.00  0.00     0.041 A 
ATOM     13  C   UNL d   1      13.171  11.811  -0.151  0.00  0.00     0.003 C 
ATOM     14  C   UNL d   1      14.465  11.821  -0.769  0.00  0.00     0.196 A 
ATOM     15  C   UNL d   1      14.926  11.819  -1.454  0.00  0.00     0.041 A 
ATOM     16  O   UNL d   1      14.825  11.835  -0.023  0.00  0.00    -0.287 OA
ATOM     17  C   UNL d   1      14.565  11.805  -2.195  0.00  0.00     0.022 A 
ATOM     18  C   UNL d   1      15.744  11.830  -1.380  0.00  0.00     0.003 C 
ENDBRANCH   9  10
ENDBRANCH   1   9
BRANCH   4  19
ATOM     19  C   UNL d   1      13.810  14.503  -3.929  0.00  0.00     0.085 A 
ATOM     20  C   UNL d   1      14.269  14.823  -3.331  0.00  0.00     0.019 A 
ATOM     21  C   UNL d   1      14.491  15.622  -3.352  0.00  0.00     0.002 A 
ATOM     22  C   UNL d   1      14.246  16.098  -3.980  0.00  0.00     0.000 A 
ATOM     23  C   UNL d   1      13.786  15.778  -4.581  0.00  0.00     0.002 A 
ATOM     24  C   UNL d   1      13.562  14.976  -4.561  0.00  0.00     0.019 A 
ENDBRANCH   4  19
TORSDOF 3
ENDMDL
MODEL 2
REMARK VINA RESULT:      35.9      0.222      1.180
REMARK  3 active torsions:
REMARK  status: ('A' for Active; 'I' for Inactive)
REMARK    1  A    between atoms: N_6  and  C_1 
REMARK    2  A    between atoms: C_14  and  N_4 
REMARK    3  A    between atoms: C_9  and  N_6 
ROOT
ATOM      1  C   UNL d   1      13.203  12.519  -3.486  0.00  0.00     0.157 A 
ATOM      2  C   UNL d   1      13.472  13.275  -3.303  0.00  0.00     0.298 A 
ATOM      3  N   UNL d   1      13.229  13.211  -4.617  0.00  0.00    -0.238 N 
ATOM      4  N   UNL d   1      13.488  13.707  -4.013  0.00  0.00    -0.209 N 
ATOM      5  C   UNL d   1      13.050  12.467  -4.289  0.00  0.00     0.104 A 
ATOM      6  O   UNL d   1      13.689  13.561  -2.561  0.00  0.00    -0.263 OA
ATOM      7  C   UNL d   1      13.159  13.421  -5.416  0.00  0.00     0.120 C 
ATOM      8  C   UNL d   1      12.774  11.811  -4.694  0.00  0.00     0.022 C 
ENDROOT
BRANCH   1   9
ATOM      9  N   UNL d   1      13.102  11.901  -2.935  0.00  0.00    -0.239 NA
BRANCH   9  10
ATOM     10  C   UNL d   1      13.570  11.873  -2.253  0.00  0.00     0.082 A 
ATOM     11  C   UNL d   1      14.401  11.857  -2.318  0.00  0.00     0.022 A 
ATOM     12  C   UNL d   1      14.859  11.829  -1.644  0.00  0.00     0.041 A 
ATOM     13  C   UNL d   1      15.686  11.813  -1.706  0.00  0.00     0.003 C 
ATOM     14  C   UNL d   1      14.508  11.817  -0.889  0.00  0.00     0.196 A 
ATOM     15  C   UNL d   1      13.684  11.833  -0.829  0.00  0.00     0.041 A 
ATOM     16  O   UNL d   1      14.976  11.789  -0.207  0.00  0.00    -0.287 OA
ATOM     17  C   UNL d   1      13.221  11.861  -1.510  0.00  0.00     0.022 A 
ATOM     18  C   UNL d   1      13.343  11.820  -0.082  0.00  0.00     0.003 C 
ENDBRANCH   9  10
ENDBRANCH   1   9
BRANCH   4  19
ATOM     19  C   UNL d   1      13.722  14.494  -4.096  0.00  0.00     0.085 A 
ATOM     20  C   UNL d   1      13.531  14.912  -4.773  0.00  0.00     0.019 A 
ATOM     21  C   UNL d   1      13.765  15.702  -4.861  0.00  0.00     0.002 A 
ATOM     22  C   UNL d   1      14.193  16.071  -4.259  0.00  0.00     0.000 A 
ATOM     23  C   UNL d   1      14.386  15.653  -3.578  0.00  0.00     0.002 A 
ATOM     24  C   UNL d   1      14.152  14.859  -3.489  0.00  0.00     0.019 A 
ENDBRANCH   4  19
TORSDOF 3
ENDMDL
