MODEL 1
REMARK VINA RESULT:      27.7      0.000      0.000
REMARK  5 active torsions:
REMARK  status: ('A' for Active; 'I' for Inactive)
REMARK    1  A    between atoms: C_6  and  N_2 
REMARK    2  A    between atoms: C_8  and  C_6 
REMARK    3  A    between atoms: C_13  and  C_8 
REMARK    4  A    between atoms: C_9  and  O_12 
REMARK    5  A    between atoms: O_12  and  C_13 
ROOT
ATOM      1  N   UNL d   1     -59.122 -99.041 -43.604  0.00  0.00    -0.227 NA
ATOM      2  N   UNL d   1     -57.916 -98.843 -44.148  0.00  0.00    -0.289 N 
ATOM      3  C   UNL d   1     -58.309 -98.964 -43.418  0.00  0.00     0.148 A 
ATOM      4  C   UNL d   1     -58.466 -98.847 -44.754  0.00  0.00     0.083 A 
ATOM      5  C   UNL d   1     -59.246 -98.975 -44.402  0.00  0.00     0.099 A 
ATOM      6  C   UNL d   1     -57.962 -98.999 -42.662  0.00  0.00     0.041 C 
ATOM      7  C   UNL d   1     -58.380 -98.756 -45.558  0.00  0.00     0.019 A 
ATOM      8  C   UNL d   1     -59.886 -98.997 -44.937  0.00  0.00     0.021 A 
ATOM      9  C   UNL d   1     -59.046 -98.789 -46.017  0.00  0.00     0.002 A 
ATOM     10  C   UNL d   1     -59.775 -98.908 -45.688  0.00  0.00     0.002 A 
ENDROOT
BRANCH   2  11
ATOM     11  C   UNL d   1     -57.125 -98.756 -44.079  0.00  0.00     0.084 C 
BRANCH  11  12
ATOM     12  C   UNL d   1     -56.593 -99.073 -44.623  0.00  0.00     0.046 C 
BRANCH  12  13
ATOM     13  C   UNL d   1     -55.840 -99.326 -44.424  0.00  0.00     0.124 C 
BRANCH  13  14
ATOM     14  O   UNL d   1     -55.427 -99.883 -44.855  0.00  0.00    -0.305 OA
BRANCH  14  15
ATOM     15  C   UNL d   1     -55.209-100.619 -44.556  0.00  0.00     0.100 A 
ATOM     16  C   UNL d   1     -55.274-101.286 -45.059  0.00  0.00     0.025 A 
ATOM     17  C   UNL d   1     -55.058-102.046 -44.776  0.00  0.00     0.002 A 
ATOM     18  C   UNL d   1     -54.777-102.139 -43.993  0.00  0.00     0.000 A 
ATOM     19  C   UNL d   1     -54.711-101.472 -43.490  0.00  0.00     0.002 A 
ATOM     20  C   UNL d   1     -54.929-100.736 -43.789  0.00  0.00     0.025 A 
ENDBRANCH  14  15
ENDBRANCH  13  14
ENDBRANCH  12  13
ENDBRANCH  11  12
ENDBRANCH   2  11
TORSDOF 5
ENDMDL
