MODEL 1
REMARK VINA RESULT:      -8.2      0.000      0.000
REMARK  6 active torsions:
REMARK  status: ('A' for Active; 'I' for Inactive)
REMARK    1  A    between atoms: C_13  and  C_4 
REMARK    2  A    between atoms: N_16  and  C_5 
REMARK    3  A    between atoms: N_11  and  C_18 
REMARK    4  A    between atoms: C_21  and  N_16 
REMARK    5  A    between atoms: C_18  and  C_19 
REMARK    6  A    between atoms: C_19  and  C_21 
ROOT
ATOM      1  N   UNL d   1      51.937  34.356  53.403  0.00  0.00    -0.195 N 
ATOM      2  C   UNL d   1      52.496  33.813  53.669  0.00  0.00     0.167 A 
ATOM      3  N   UNL d   1      52.184  35.105  53.626  0.00  0.00    -0.163 NA
ATOM      4  C   UNL d   1      53.085  34.229  54.055  0.00  0.00     0.055 A 
ATOM      5  C   UNL d   1      51.273  34.097  52.991  0.00  0.00     0.167 A 
ATOM      6  C   UNL d   1      52.896  35.026  54.030  0.00  0.00     0.104 A 
ATOM      7  N   UNL d   1      52.393  33.009  53.523  0.00  0.00    -0.227 NA
ATOM      8  C   UNL d   1      51.166  33.288  52.842  0.00  0.00     0.058 A 
ATOM      9  C   UNL d   1      51.725  32.744  53.108  0.00  0.00     0.086 A 
ATOM     10  C   UNL d   1      53.345  35.636  54.356  0.00  0.00     0.023 C 
ATOM     11  C   UNL d   1      51.626  31.932  52.964  0.00  0.00     0.021 C 
ENDROOT
BRANCH   5  12
ATOM     12  N   UNL d   1      50.713  34.640  52.725  0.00  0.00    -0.225 NA
BRANCH  12  13
ATOM     13  C   UNL d   1      49.911  34.491  52.831  0.00  0.00     0.102 C 
BRANCH  13  14
ATOM     14  C   UNL d   1      49.347  34.999  52.499  0.00  0.00     0.040 C 
BRANCH  14  15
ATOM     15  C   UNL d   1      48.721  35.276  52.956  0.00  0.00     0.083 C 
BRANCH  15  16
ATOM     16  N   UNL d   1      48.097  35.695  52.599  0.00  0.00    -0.285 N 
ATOM     17  C   UNL d   1      47.749  35.642  51.852  0.00  0.00     0.183 A 
ATOM     18  N   UNL d   1      47.153  36.199  51.809  0.00  0.00    -0.222 NA
ATOM     19  C   UNL d   1      47.126  36.600  52.524  0.00  0.00     0.120 A 
ATOM     20  C   UNL d   1      47.708  36.291  53.014  0.00  0.00     0.102 A 
ENDBRANCH  15  16
ENDBRANCH  14  15
ENDBRANCH  13  14
ENDBRANCH  12  13
ENDBRANCH   5  12
BRANCH   4  21
ATOM     21  C   UNL d   1      53.782  33.982  54.432  0.00  0.00     0.004 A 
ATOM     22  C   UNL d   1      54.482  33.919  53.998  0.00  0.00     0.000 A 
ATOM     23  C   UNL d   1      55.179  33.672  54.375  0.00  0.00     0.000 A 
ATOM     24  C   UNL d   1      55.172  33.488  55.180  0.00  0.00     0.000 A 
ATOM     25  C   UNL d   1      54.467  33.552  55.611  0.00  0.00     0.000 A 
ATOM     26  C   UNL d   1      53.775  33.799  55.236  0.00  0.00     0.000 A 
ENDBRANCH   4  21
TORSDOF 6
ENDMDL
MODEL 2
REMARK VINA RESULT:      -7.1      2.148      3.463
REMARK  6 active torsions:
REMARK  status: ('A' for Active; 'I' for Inactive)
REMARK    1  A    between atoms: C_13  and  C_4 
REMARK    2  A    between atoms: N_16  and  C_5 
REMARK    3  A    between atoms: N_11  and  C_18 
REMARK    4  A    between atoms: C_21  and  N_16 
REMARK    5  A    between atoms: C_18  and  C_19 
REMARK    6  A    between atoms: C_19  and  C_21 
ROOT
ATOM      1  N   UNL d   1      52.943  31.930  53.284  0.00  0.00    -0.195 N 
ATOM      2  C   UNL d   1      53.321  31.453  53.840  0.00  0.00     0.167 A 
ATOM      3  N   UNL d   1      52.545  31.442  52.760  0.00  0.00    -0.163 NA
ATOM      4  C   UNL d   1      53.155  30.674  53.655  0.00  0.00     0.055 A 
ATOM      5  C   UNL d   1      53.010  32.749  53.329  0.00  0.00     0.167 A 
ATOM      6  C   UNL d   1      52.677  30.663  52.989  0.00  0.00     0.104 A 
ATOM      7  N   UNL d   1      53.768  31.794  54.441  0.00  0.00    -0.227 NA
ATOM      8  C   UNL d   1      53.459  33.097  53.934  0.00  0.00     0.058 A 
ATOM      9  C   UNL d   1      53.837  32.620  54.489  0.00  0.00     0.086 A 
ATOM     10  C   UNL d   1      52.383  29.986  52.620  0.00  0.00     0.023 C 
ATOM     11  C   UNL d   1      54.289  32.960  55.098  0.00  0.00     0.021 C 
ENDROOT
BRANCH   5  12
ATOM     12  N   UNL d   1      52.631  33.226  52.774  0.00  0.00    -0.225 NA
BRANCH  12  13
ATOM     13  C   UNL d   1      52.136  33.833  53.022  0.00  0.00     0.102 C 
BRANCH  13  14
ATOM     14  C   UNL d   1      51.520  34.094  52.531  0.00  0.00     0.040 C 
BRANCH  14  15
ATOM     15  C   UNL d   1      50.861  34.462  52.857  0.00  0.00     0.083 C 
BRANCH  15  16
ATOM     16  N   UNL d   1      50.163  34.540  52.410  0.00  0.00    -0.285 N 
ATOM     17  C   UNL d   1      49.969  34.310  51.641  0.00  0.00     0.183 A 
ATOM     18  N   UNL d   1      49.196  34.533  51.497  0.00  0.00    -0.222 NA
ATOM     19  C   UNL d   1      48.906  34.901  52.170  0.00  0.00     0.120 A 
ATOM     20  C   UNL d   1      49.502  34.907  52.736  0.00  0.00     0.102 A 
ENDBRANCH  15  16
ENDBRANCH  14  15
ENDBRANCH  13  14
ENDBRANCH  12  13
ENDBRANCH   5  12
BRANCH   4  21
ATOM     21  C   UNL d   1      53.381  29.960  54.012  0.00  0.00     0.004 A 
ATOM     22  C   UNL d   1      54.037  29.547  53.725  0.00  0.00     0.000 A 
ATOM     23  C   UNL d   1      54.263  28.833  54.083  0.00  0.00     0.000 A 
ATOM     24  C   UNL d   1      53.835  28.536  54.722  0.00  0.00     0.000 A 
ATOM     25  C   UNL d   1      53.177  28.953  55.008  0.00  0.00     0.000 A 
ATOM     26  C   UNL d   1      52.953  29.663  54.651  0.00  0.00     0.000 A 
ENDBRANCH   4  21
TORSDOF 6
ENDMDL
MODEL 3
REMARK VINA RESULT:      -6.4      1.022      1.806
REMARK  6 active torsions:
REMARK  status: ('A' for Active; 'I' for Inactive)
REMARK    1  A    between atoms: C_13  and  C_4 
REMARK    2  A    between atoms: N_16  and  C_5 
REMARK    3  A    between atoms: N_11  and  C_18 
REMARK    4  A    between atoms: C_21  and  N_16 
REMARK    5  A    between atoms: C_18  and  C_19 
REMARK    6  A    between atoms: C_19  and  C_21 
ROOT
ATOM      1  N   UNL d   1      51.561  33.686  53.149  0.00  0.00    -0.195 N 
ATOM      2  C   UNL d   1      52.293  33.748  53.522  0.00  0.00     0.167 A 
ATOM      3  N   UNL d   1      51.504  32.936  52.824  0.00  0.00    -0.163 NA
ATOM      4  C   UNL d   1      52.685  33.037  53.424  0.00  0.00     0.055 A 
ATOM      5  C   UNL d   1      51.038  34.322  53.156  0.00  0.00     0.167 A 
ATOM      6  C   UNL d   1      52.202  32.534  52.994  0.00  0.00     0.104 A 
ATOM      7  N   UNL d   1      52.505  34.447  53.901  0.00  0.00    -0.227 NA
ATOM      8  C   UNL d   1      51.249  35.029  53.538  0.00  0.00     0.058 A 
ATOM      9  C   UNL d   1      51.981  35.091  53.910  0.00  0.00     0.086 A 
ATOM     10  C   UNL d   1      52.389  31.761  52.774  0.00  0.00     0.023 C 
ATOM     11  C   UNL d   1      52.199  35.794  54.294  0.00  0.00     0.021 C 
ENDROOT
BRANCH   5  12
ATOM     12  N   UNL d   1      50.306  34.260  52.784  0.00  0.00    -0.225 NA
BRANCH  12  13
ATOM     13  C   UNL d   1      49.779  34.891  52.803  0.00  0.00     0.102 C 
BRANCH  13  14
ATOM     14  C   UNL d   1      49.081  34.863  52.356  0.00  0.00     0.040 C 
BRANCH  14  15
ATOM     15  C   UNL d   1      48.517  35.456  52.436  0.00  0.00     0.083 C 
BRANCH  15  16
ATOM     16  N   UNL d   1      47.838  35.453  51.953  0.00  0.00    -0.285 N 
ATOM     17  C   UNL d   1      47.660  35.062  51.248  0.00  0.00     0.183 A 
ATOM     18  N   UNL d   1      46.903  35.271  51.025  0.00  0.00    -0.222 NA
ATOM     19  C   UNL d   1      46.606  35.791  51.586  0.00  0.00     0.120 A 
ATOM     20  C   UNL d   1      47.182  35.905  52.161  0.00  0.00     0.102 A 
ENDBRANCH  15  16
ENDBRANCH  14  15
ENDBRANCH  13  14
ENDBRANCH  12  13
ENDBRANCH   5  12
BRANCH   4  21
ATOM     21  C   UNL d   1      53.432  32.778  53.674  0.00  0.00     0.004 A 
ATOM     22  C   UNL d   1      54.086  32.870  53.178  0.00  0.00     0.000 A 
ATOM     23  C   UNL d   1      54.833  32.610  53.429  0.00  0.00     0.000 A 
ATOM     24  C   UNL d   1      54.923  32.262  54.171  0.00  0.00     0.000 A 
ATOM     25  C   UNL d   1      54.265  32.171  54.667  0.00  0.00     0.000 A 
ATOM     26  C   UNL d   1      53.522  32.429  54.416  0.00  0.00     0.000 A 
ENDBRANCH   4  21
TORSDOF 6
ENDMDL
MODEL 4
REMARK VINA RESULT:      -6.1      1.148      5.962
REMARK  6 active torsions:
REMARK  status: ('A' for Active; 'I' for Inactive)
REMARK    1  A    between atoms: C_13  and  C_4 
REMARK    2  A    between atoms: N_16  and  C_5 
REMARK    3  A    between atoms: N_11  and  C_18 
REMARK    4  A    between atoms: C_21  and  N_16 
REMARK    5  A    between atoms: C_18  and  C_19 
REMARK    6  A    between atoms: C_19  and  C_21 
ROOT
ATOM      1  N   UNL d   1      49.133  35.226  52.875  0.00  0.00    -0.195 N 
ATOM      2  C   UNL d   1      48.431  35.264  52.445  0.00  0.00     0.167 A 
ATOM      3  N   UNL d   1      49.027  35.646  53.571  0.00  0.00    -0.163 NA
ATOM      4  C   UNL d   1      47.896  35.707  52.878  0.00  0.00     0.055 A 
ATOM      5  C   UNL d   1      49.779  34.813  52.575  0.00  0.00     0.167 A 
ATOM      6  C   UNL d   1      48.261  35.944  53.573  0.00  0.00     0.104 A 
ATOM      7  N   UNL d   1      48.373  34.890  51.715  0.00  0.00    -0.227 NA
ATOM      8  C   UNL d   1      49.724  34.434  51.839  0.00  0.00     0.058 A 
ATOM      9  C   UNL d   1      49.022  34.472  51.409  0.00  0.00     0.086 A 
ATOM     10  C   UNL d   1      47.913  36.400  54.166  0.00  0.00     0.023 C 
ATOM     11  C   UNL d   1      48.959  34.096  50.672  0.00  0.00     0.021 C 
ENDROOT
BRANCH   5  12
ATOM     12  N   UNL d   1      50.481  34.775  53.005  0.00  0.00    -0.225 NA
BRANCH  12  13
ATOM     13  C   UNL d   1      51.059  34.227  52.802  0.00  0.00     0.102 C 
BRANCH  13  14
ATOM     14  C   UNL d   1      51.709  34.104  53.302  0.00  0.00     0.040 C 
BRANCH  14  15
ATOM     15  C   UNL d   1      52.288  33.557  53.098  0.00  0.00     0.083 C 
BRANCH  15  16
ATOM     16  N   UNL d   1      52.950  33.446  53.591  0.00  0.00    -0.285 N 
ATOM     17  C   UNL d   1      53.255  33.890  54.217  0.00  0.00     0.183 A 
ATOM     18  N   UNL d   1      53.922  33.510  54.496  0.00  0.00    -0.222 NA
ATOM     19  C   UNL d   1      54.036  32.832  54.050  0.00  0.00     0.120 A 
ATOM     20  C   UNL d   1      53.436  32.790  53.489  0.00  0.00     0.102 A 
ENDBRANCH  15  16
ENDBRANCH  14  15
ENDBRANCH  13  14
ENDBRANCH  12  13
ENDBRANCH   5  12
BRANCH   4  21
ATOM     21  C   UNL d   1      47.111  35.929  52.727  0.00  0.00     0.004 A 
ATOM     22  C   UNL d   1      46.498  35.588  53.163  0.00  0.00     0.000 A 
ATOM     23  C   UNL d   1      45.713  35.810  53.012  0.00  0.00     0.000 A 
ATOM     24  C   UNL d   1      45.545  36.369  52.429  0.00  0.00     0.000 A 
ATOM     25  C   UNL d   1      46.163  36.709  51.994  0.00  0.00     0.000 A 
ATOM     26  C   UNL d   1      46.944  36.488  52.145  0.00  0.00     0.000 A 
ENDBRANCH   4  21
TORSDOF 6
ENDMDL
MODEL 5
REMARK VINA RESULT:      -5.5      1.562      6.609
REMARK  6 active torsions:
REMARK  status: ('A' for Active; 'I' for Inactive)
REMARK    1  A    between atoms: C_13  and  C_4 
REMARK    2  A    between atoms: N_16  and  C_5 
REMARK    3  A    between atoms: N_11  and  C_18 
REMARK    4  A    between atoms: C_21  and  N_16 
REMARK    5  A    between atoms: C_18  and  C_19 
REMARK    6  A    between atoms: C_19  and  C_21 
ROOT
ATOM      1  N   UNL d   1      47.990  35.461  52.398  0.00  0.00    -0.195 N 
ATOM      2  C   UNL d   1      47.257  35.748  52.639  0.00  0.00     0.167 A 
ATOM      3  N   UNL d   1      47.912  35.174  51.634  0.00  0.00    -0.163 NA
ATOM      4  C   UNL d   1      46.730  35.637  52.024  0.00  0.00     0.055 A 
ATOM      5  C   UNL d   1      48.636  35.497  52.907  0.00  0.00     0.167 A 
ATOM      6  C   UNL d   1      47.130  35.283  51.403  0.00  0.00     0.104 A 
ATOM      7  N   UNL d   1      47.168  36.074  53.390  0.00  0.00    -0.227 NA
ATOM      8  C   UNL d   1      48.551  35.825  53.664  0.00  0.00     0.058 A 
ATOM      9  C   UNL d   1      47.817  36.113  53.906  0.00  0.00     0.086 A 
ATOM     10  C   UNL d   1      46.800  35.076  50.675  0.00  0.00     0.023 C 
ATOM     11  C   UNL d   1      47.723  36.442  54.663  0.00  0.00     0.021 C 
ENDROOT
BRANCH   5  12
ATOM     12  N   UNL d   1      49.370  35.210  52.665  0.00  0.00    -0.225 NA
BRANCH  12  13
ATOM     13  C   UNL d   1      49.859  34.825  53.203  0.00  0.00     0.102 C 
BRANCH  13  14
ATOM     14  C   UNL d   1      50.579  34.500  52.951  0.00  0.00     0.040 C 
BRANCH  14  15
ATOM     15  C   UNL d   1      50.855  33.801  53.285  0.00  0.00     0.083 C 
BRANCH  15  16
ATOM     16  N   UNL d   1      51.661  33.600  53.225  0.00  0.00    -0.285 N 
ATOM     17  C   UNL d   1      52.350  34.009  53.422  0.00  0.00     0.183 A 
ATOM     18  N   UNL d   1      52.989  33.533  53.240  0.00  0.00    -0.222 NA
ATOM     19  C   UNL d   1      52.703  32.829  52.929  0.00  0.00     0.120 A 
ATOM     20  C   UNL d   1      51.882  32.868  52.919  0.00  0.00     0.102 A 
ENDBRANCH  15  16
ENDBRANCH  14  15
ENDBRANCH  13  14
ENDBRANCH  12  13
ENDBRANCH   5  12
BRANCH   4  21
ATOM     21  C   UNL d   1      45.923  35.816  51.947  0.00  0.00     0.004 A 
ATOM     22  C   UNL d   1      45.357  35.277  52.213  0.00  0.00     0.000 A 
ATOM     23  C   UNL d   1      44.550  35.456  52.136  0.00  0.00     0.000 A 
ATOM     24  C   UNL d   1      44.314  36.169  51.796  0.00  0.00     0.000 A 
ATOM     25  C   UNL d   1      44.885  36.708  51.530  0.00  0.00     0.000 A 
ATOM     26  C   UNL d   1      45.688  36.530  51.607  0.00  0.00     0.000 A 
ENDBRANCH   4  21
TORSDOF 6
ENDMDL
