MODEL 1
REMARK VINA RESULT:      -4.1      0.000      0.000
REMARK  4 active torsions:
REMARK  status: ('A' for Active; 'I' for Inactive)
REMARK    1  A    between atoms: S_9  and  C_3 
REMARK    2  A    between atoms: C_12  and  S_9 
REMARK    3  A    between atoms: C_11  and  C_12 
REMARK    4  A    between atoms: O_16  and  C_11 
ROOT
ATOM      1  C   UNL d   1     -41.300-121.846 -52.436  0.00  0.00     0.155 A 
ATOM      2  C   UNL d   1     -41.385-122.670 -52.438  0.00  0.00     0.107 A 
ATOM      3  C   UNL d   1     -41.295-122.676 -51.014  0.00  0.00     0.182 A 
ATOM      4  N   UNL d   1     -41.210-121.861 -51.010  0.00  0.00    -0.250 N 
ATOM      5  N   UNL d   1     -41.382-123.088 -51.721  0.00  0.00    -0.220 NA
ATOM      6  C   UNL d   1     -41.213-121.443 -51.727  0.00  0.00     0.285 A 
ATOM      7  N   UNL d   1     -41.323-121.584 -53.217  0.00  0.00    -0.239 NA
ATOM      8  C   UNL d   1     -41.461-122.922 -53.216  0.00  0.00     0.037 A 
ATOM      9  C   UNL d   1     -41.423-122.247 -53.705  0.00  0.00     0.083 A 
ATOM     10  O   UNL d   1     -41.127-120.617 -51.717  0.00  0.00    -0.265 OA
ATOM     11  C   UNL d   1     -41.123-121.456 -50.292  0.00  0.00     0.104 C 
ATOM     12  C   UNL d   1     -41.559-123.666 -53.553  0.00  0.00     0.003 A 
ATOM     13  C   UNL d   1     -41.483-122.326 -54.527  0.00  0.00     0.019 A 
ATOM     14  C   UNL d   1     -41.620-123.744 -54.374  0.00  0.00     0.000 A 
ATOM     15  C   UNL d   1     -41.582-123.077 -54.856  0.00  0.00     0.002 A 
ENDROOT
BRANCH   3  16
ATOM     16  S   UNL d   1     -41.291-123.089 -50.299  0.00  0.00    -0.044 SA
BRANCH  16  17
ATOM     17  C   UNL d   1     -41.990-123.410 -50.000  0.00  0.00     0.095 C 
ATOM     18  C   UNL d   1     -42.637-123.523 -50.496  0.00  0.00     0.013 C 
BRANCH  17  19
ATOM     19  C   UNL d   1     -42.033-123.614 -49.202  0.00  0.00     0.302 C 
ATOM     20  O   UNL d   1     -41.363-123.817 -48.794  0.00  0.00    -0.259 OA
BRANCH  19  21
ATOM     21  O   UNL d   1     -42.765-123.614 -48.812  0.00  0.00    -0.295 OA
ATOM     22  C   UNL d   1     -42.798-123.733 -47.991  0.00  0.00     0.185 C 
ENDBRANCH  19  21
ENDBRANCH  17  19
ENDBRANCH  16  17
ENDBRANCH   3  16
TORSDOF 4
ENDMDL
