MODEL 1
REMARK VINA RESULT:      20.7      0.000      0.000
REMARK  2 active torsions:
REMARK  status: ('A' for Active; 'I' for Inactive)
REMARK    1  A    between atoms: C_5  and  N_1 
REMARK    2  A    between atoms: O_14  and  C_11 
ROOT
ATOM      1  C   UNL d   1      14.908  13.830  -0.775  0.00  0.00     0.069 A 
ATOM      2  C   UNL d   1      14.659  14.377  -1.341  0.00  0.00     0.020 A 
ATOM      3  C   UNL d   1      15.325  14.114  -0.101  0.00  0.00     0.020 A 
ATOM      4  C   UNL d   1      15.211  15.454  -0.607  0.00  0.00     0.094 A 
ATOM      5  C   UNL d   1      14.813  15.183  -1.251  0.00  0.00     0.026 A 
ATOM      6  C   UNL d   1      15.477  14.922  -0.016  0.00  0.00     0.026 A 
ENDROOT
BRANCH   1   7
ATOM      7  N   UNL d   1      14.742  13.025  -0.886  0.00  0.00    -0.249 N 
ATOM      8  C   UNL d   1      14.118  12.613  -0.538  0.00  0.00     0.208 A 
ATOM      9  N   UNL d   1      14.182  11.815  -0.821  0.00  0.00    -0.212 NA
ATOM     10  S   UNL d   1      13.544  12.927  -0.014  0.00  0.00    -0.038 SA
ATOM     11  C   UNL d   1      14.837  11.791  -1.320  0.00  0.00     0.162 A 
ATOM     12  C   UNL d   1      15.176  12.541  -1.355  0.00  0.00     0.286 A 
ATOM     13  O   UNL d   1      15.858  12.770  -1.801  0.00  0.00    -0.265 OA
ENDBRANCH   1   7
BRANCH   4  14
ATOM     14  O   UNL d   1      15.351  16.263  -0.544  0.00  0.00    -0.328 OA
ATOM     15  C   UNL d   1      15.308  16.743  -1.212  0.00  0.00     0.181 C 
ENDBRANCH   4  14
TORSDOF 2
ENDMDL
