MODEL 1
REMARK VINA RESULT:      25.1      0.000      0.000
REMARK  3 active torsions:
REMARK  status: ('A' for Active; 'I' for Inactive)
REMARK    1  A    between atoms: C_6  and  C_1 
REMARK    2  A    between atoms: C_8  and  C_4 
REMARK    3  A    between atoms: O_17  and  C_14 
ROOT
ATOM      1  C   UNL d   1     -53.345  24.481  33.410  0.00  0.00     0.122 A 
ATOM      2  C   UNL d   1     -52.590  24.130  33.422  0.00  0.00     0.285 A 
ATOM      3  N   UNL d   1     -51.915  24.602  33.405  0.00  0.00    -0.208 NA
ATOM      4  C   UNL d   1     -51.989  25.421  33.376  0.00  0.00     0.085 A 
ATOM      5  C   UNL d   1     -53.419  25.301  33.381  0.00  0.00     0.013 A 
ATOM      6  C   UNL d   1     -52.737  25.769  33.365  0.00  0.00     0.020 A 
ATOM      7  O   UNL d   1     -52.520  23.302  33.450  0.00  0.00    -0.265 OA
ENDROOT
BRANCH   4   8
ATOM      8  C   UNL d   1     -51.312  25.896  33.359  0.00  0.00     0.018 A 
ATOM      9  C   UNL d   1     -51.392  26.720  33.378  0.00  0.00     0.004 A 
ATOM     10  C   UNL d   1     -50.718  27.192  33.361  0.00  0.00     0.024 A 
ATOM     11  C   UNL d   1     -49.971  26.843  33.326  0.00  0.00     0.094 A 
ATOM     12  C   UNL d   1     -49.900  26.019  33.307  0.00  0.00     0.024 A 
ATOM     13  C   UNL d   1     -50.575  25.548  33.324  0.00  0.00     0.004 A 
BRANCH  11  14
ATOM     14  O   UNL d   1     -49.292  27.322  33.309  0.00  0.00    -0.328 OA
ATOM     15  C   UNL d   1     -49.022  27.686  33.991  0.00  0.00     0.181 C 
ENDBRANCH  11  14
ENDBRANCH   4   8
BRANCH   1  16
ATOM     16  C   UNL d   1     -54.020  24.010  33.427  0.00  0.00     0.216 C 
ATOM     17  O   UNL d   1     -54.767  24.354  33.357  0.00  0.00    -0.644 OA
ATOM     18  O   UNL d   1     -53.956  23.189  33.514  0.00  0.00    -0.644 OA
ENDBRANCH   1  16
TORSDOF 3
ENDMDL
