MODEL 1
REMARK VINA RESULT:      -5.7      0.000      0.000
REMARK  5 active torsions:
REMARK  status: ('A' for Active; 'I' for Inactive)
REMARK    1  A    between atoms: C_4  and  N_1 
REMARK    2  A    between atoms: C_9  and  C_2 
REMARK    3  A    between atoms: C_14  and  C_6 
REMARK    4  A    between atoms: C_7  and  C_9 
REMARK    5  A    between atoms: O_26  and  C_22 
ROOT
ATOM      1  N   UNL d   1     -39.326  14.850  21.351  0.00  0.00    -0.254 N 
ATOM      2  C   UNL d   1     -39.547  15.267  20.099  0.00  0.00     0.101 A 
ATOM      3  C   UNL d   1     -38.641  15.226  21.085  0.00  0.00     0.305 A 
ATOM      4  C   UNL d   1     -38.774  15.486  20.309  0.00  0.00     0.256 A 
ATOM      5  C   UNL d   1     -39.887  14.874  20.741  0.00  0.00     0.081 A 
ATOM      6  O   UNL d   1     -37.941  15.330  21.509  0.00  0.00    -0.263 OA
ATOM      7  O   UNL d   1     -38.230  15.892  19.830  0.00  0.00    -0.281 OA
ENDROOT
BRANCH   2   8
ATOM      8  C   UNL d   1     -39.909  15.417  19.370  0.00  0.00     0.223 C 
ATOM      9  O   UNL d   1     -40.555  15.921  19.328  0.00  0.00    -0.284 OA
BRANCH   8  10
ATOM     10  C   UNL d   1     -39.621  15.060  18.682  0.00  0.00     0.139 A 
ATOM     11  O   UNL d   1     -39.285  14.308  18.633  0.00  0.00    -0.302 OA
ATOM     12  C   UNL d   1     -39.075  14.176  17.842  0.00  0.00     0.122 A 
ATOM     13  C   UNL d   1     -38.724  13.535  17.468  0.00  0.00     0.117 A 
ATOM     14  C   UNL d   1     -39.282  14.845  17.409  0.00  0.00     0.027 A 
ATOM     15  C   UNL d   1     -38.579  13.561  16.659  0.00  0.00     0.026 A 
ATOM     16  C   UNL d   1     -38.788  14.236  16.221  0.00  0.00     0.002 A 
ATOM     17  C   UNL d   1     -39.138  14.874  16.599  0.00  0.00     0.002 A 
ATOM     18  C   UNL d   1     -39.619  15.391  17.926  0.00  0.00     0.030 A 
BRANCH  13  19
ATOM     19  O   UNL d   1     -38.518  12.865  17.901  0.00  0.00    -0.326 OA
ATOM     20  C   UNL d   1     -38.136  12.229  17.529  0.00  0.00     0.181 C 
ENDBRANCH  13  19
ENDBRANCH   8  10
ENDBRANCH   2   8
BRANCH   5  21
ATOM     21  C   UNL d   1     -40.649  14.565  20.766  0.00  0.00     0.046 A 
ATOM     22  S   UNL d   1     -41.334  14.985  20.961  0.00  0.00    -0.085 SA
ATOM     23  C   UNL d   1     -41.976  14.468  20.918  0.00  0.00     0.035 A 
ATOM     24  C   UNL d   1     -41.686  13.722  20.695  0.00  0.00     0.007 A 
ATOM     25  C   UNL d   1     -40.869  13.789  20.603  0.00  0.00     0.009 A 
ENDBRANCH   5  21
BRANCH   1  26
ATOM     26  C   UNL d   1     -39.069  14.644  22.113  0.00  0.00     0.179 A 
ATOM     27  N   UNL d   1     -38.944  15.160  22.747  0.00  0.00    -0.108 NA
ATOM     28  O   UNL d   1     -38.689  14.715  23.400  0.00  0.00    -0.210 OA
ATOM     29  C   UNL d   1     -38.656  13.913  23.168  0.00  0.00     0.128 A 
ATOM     30  C   UNL d   1     -38.890  13.870  22.378  0.00  0.00     0.067 A 
ATOM     31  C   UNL d   1     -38.430  13.283  23.647  0.00  0.00     0.029 C 
ENDBRANCH   1  26
TORSDOF 5
ENDMDL
MODEL 2
REMARK VINA RESULT:      -5.5      6.785      8.770
REMARK  5 active torsions:
REMARK  status: ('A' for Active; 'I' for Inactive)
REMARK    1  A    between atoms: C_4  and  N_1 
REMARK    2  A    between atoms: C_9  and  C_2 
REMARK    3  A    between atoms: C_14  and  C_6 
REMARK    4  A    between atoms: C_7  and  C_9 
REMARK    5  A    between atoms: O_26  and  C_22 
ROOT
ATOM      1  N   UNL d   1     -48.245  12.454  23.060  0.00  0.00    -0.254 N 
ATOM      2  C   UNL d   1     -46.979  12.862  23.210  0.00  0.00     0.101 A 
ATOM      3  C   UNL d   1     -47.803  11.814  23.337  0.00  0.00     0.305 A 
ATOM      4  C   UNL d   1     -47.018  12.063  23.431  0.00  0.00     0.256 A 
ATOM      5  C   UNL d   1     -47.735  13.104  22.982  0.00  0.00     0.081 A 
ATOM      6  O   UNL d   1     -48.085  11.054  23.495  0.00  0.00    -0.263 OA
ATOM      7  O   UNL d   1     -46.386  11.595  23.698  0.00  0.00    -0.281 OA
ENDROOT
BRANCH   2   8
ATOM      8  C   UNL d   1     -46.298  13.333  23.219  0.00  0.00     0.223 C 
ATOM      9  O   UNL d   1     -46.290  14.037  23.639  0.00  0.00    -0.284 OA
BRANCH   8  10
ATOM     10  C   UNL d   1     -45.623  13.093  22.806  0.00  0.00     0.139 A 
ATOM     11  O   UNL d   1     -45.117  12.479  23.023  0.00  0.00    -0.302 OA
ATOM     12  C   UNL d   1     -44.517  12.432  22.453  0.00  0.00     0.122 A 
ATOM     13  C   UNL d   1     -43.868  11.934  22.379  0.00  0.00     0.117 A 
ATOM     14  C   UNL d   1     -44.656  13.015  21.890  0.00  0.00     0.027 A 
ATOM     15  C   UNL d   1     -43.356  12.018  21.742  0.00  0.00     0.026 A 
ATOM     16  C   UNL d   1     -43.495  12.608  21.172  0.00  0.00     0.002 A 
ATOM     17  C   UNL d   1     -44.144  13.103  21.250  0.00  0.00     0.002 A 
ATOM     18  C   UNL d   1     -45.338  13.424  22.106  0.00  0.00     0.030 A 
BRANCH  13  19
ATOM     19  O   UNL d   1     -43.729  11.350  22.943  0.00  0.00    -0.326 OA
ATOM     20  C   UNL d   1     -43.213  10.721  22.775  0.00  0.00     0.181 C 
ENDBRANCH  13  19
ENDBRANCH   8  10
ENDBRANCH   2   8
BRANCH   5  21
ATOM     21  C   UNL d   1     -47.941  13.857  22.723  0.00  0.00     0.046 A 
ATOM     22  S   UNL d   1     -48.059  14.081  21.936  0.00  0.00    -0.085 SA
ATOM     23  C   UNL d   1     -48.257  14.883  21.922  0.00  0.00     0.035 A 
ATOM     24  C   UNL d   1     -48.261  15.157  22.706  0.00  0.00     0.007 A 
ATOM     25  C   UNL d   1     -48.066  14.520  23.193  0.00  0.00     0.009 A 
ENDBRANCH   5  21
BRANCH   1  26
ATOM     26  C   UNL d   1     -48.985  12.085  23.010  0.00  0.00     0.179 A 
ATOM     27  N   UNL d   1     -49.215  11.511  22.459  0.00  0.00    -0.108 NA
ATOM     28  O   UNL d   1     -50.002  11.298  22.615  0.00  0.00    -0.210 OA
ATOM     29  C   UNL d   1     -50.264  11.745  23.271  0.00  0.00     0.128 A 
ATOM     30  C   UNL d   1     -49.640  12.227  23.513  0.00  0.00     0.067 A 
ATOM     31  C   UNL d   1     -51.013  11.705  23.610  0.00  0.00     0.029 C 
ENDBRANCH   1  26
TORSDOF 5
ENDMDL
MODEL 3
REMARK VINA RESULT:      -5.1      6.629      8.703
REMARK  5 active torsions:
REMARK  status: ('A' for Active; 'I' for Inactive)
REMARK    1  A    between atoms: C_4  and  N_1 
REMARK    2  A    between atoms: C_9  and  C_2 
REMARK    3  A    between atoms: C_14  and  C_6 
REMARK    4  A    between atoms: C_7  and  C_9 
REMARK    5  A    between atoms: O_26  and  C_22 
ROOT
ATOM      1  N   UNL d   1     -48.209  13.991  22.778  0.00  0.00    -0.254 N 
ATOM      2  C   UNL d   1     -47.149  13.238  23.094  0.00  0.00     0.101 A 
ATOM      3  C   UNL d   1     -47.618  14.492  23.060  0.00  0.00     0.305 A 
ATOM      4  C   UNL d   1     -46.959  14.030  23.258  0.00  0.00     0.256 A 
ATOM      5  C   UNL d   1     -47.920  13.214  22.798  0.00  0.00     0.081 A 
ATOM      6  O   UNL d   1     -47.664  15.313  23.137  0.00  0.00    -0.263 OA
ATOM      7  O   UNL d   1     -46.239  14.310  23.563  0.00  0.00    -0.281 OA
ENDROOT
BRANCH   2   8
ATOM      8  C   UNL d   1     -46.649  12.589  23.209  0.00  0.00     0.223 C 
ATOM      9  O   UNL d   1     -46.881  11.972  23.698  0.00  0.00    -0.284 OA
BRANCH   8  10
ATOM     10  C   UNL d   1     -45.914  12.559  22.832  0.00  0.00     0.139 A 
ATOM     11  O   UNL d   1     -45.303  12.032  23.005  0.00  0.00    -0.302 OA
ATOM     12  C   UNL d   1     -44.672  12.200  22.495  0.00  0.00     0.122 A 
ATOM     13  C   UNL d   1     -43.928  11.860  22.412  0.00  0.00     0.117 A 
ATOM     14  C   UNL d   1     -44.896  12.827  22.012  0.00  0.00     0.027 A 
ATOM     15  C   UNL d   1     -43.407  12.148  21.846  0.00  0.00     0.026 A 
ATOM     16  C   UNL d   1     -43.632  12.783  21.357  0.00  0.00     0.002 A 
ATOM     17  C   UNL d   1     -44.375  13.118  21.443  0.00  0.00     0.002 A 
ATOM     18  C   UNL d   1     -45.662  13.050  22.219  0.00  0.00     0.030 A 
BRANCH  13  19
ATOM     19  O   UNL d   1     -43.705  11.232  22.896  0.00  0.00    -0.326 OA
ATOM     20  C   UNL d   1     -42.903  11.026  22.968  0.00  0.00     0.181 C 
ENDBRANCH  13  19
ENDBRANCH   8  10
ENDBRANCH   2   8
BRANCH   5  21
ATOM     21  C   UNL d   1     -48.324  12.536  22.567  0.00  0.00     0.046 A 
ATOM     22  S   UNL d   1     -48.722  12.015  23.071  0.00  0.00    -0.085 SA
ATOM     23  C   UNL d   1     -49.050  11.412  22.613  0.00  0.00     0.035 A 
ATOM     24  C   UNL d   1     -48.854  11.560  21.820  0.00  0.00     0.007 A 
ATOM     25  C   UNL d   1     -48.407  12.253  21.799  0.00  0.00     0.009 A 
ENDBRANCH   5  21
BRANCH   1  26
ATOM     26  C   UNL d   1     -48.793  14.559  22.622  0.00  0.00     0.179 A 
ATOM     27  N   UNL d   1     -48.831  15.060  21.964  0.00  0.00    -0.108 NA
ATOM     28  O   UNL d   1     -49.507  15.537  22.036  0.00  0.00    -0.210 OA
ATOM     29  C   UNL d   1     -49.893  15.329  22.748  0.00  0.00     0.128 A 
ATOM     30  C   UNL d   1     -49.455  14.729  23.107  0.00  0.00     0.067 A 
ATOM     31  C   UNL d   1     -50.587  15.667  23.035  0.00  0.00     0.029 C 
ENDBRANCH   1  26
TORSDOF 5
ENDMDL
