MODEL 1
REMARK VINA RESULT:      67.6      0.000      0.000
REMARK  5 active torsions:
REMARK  status: ('A' for Active; 'I' for Inactive)
REMARK    1  A    between atoms: C_3  and  C_1 
REMARK    2  A    between atoms: C_6  and  C_9 
REMARK    3  A    between atoms: C_7  and  C_12 
REMARK    4  A    between atoms: C_9  and  C_11 
REMARK       I    between atoms: C_11  and  N_16 
REMARK    5  A    between atoms: N_16  and  C_18 
ROOT
ATOM      1  N   UNL d   1     -50.020  25.291  33.359  0.00  0.00    -0.207 NA
ATOM      2  C   UNL d   1     -49.529  25.969  33.345  0.00  0.00     0.285 A 
ATOM      3  S   UNL d   1     -50.700  26.809  33.308  0.00  0.00    -0.080 SA
ATOM      4  C   UNL d   1     -49.867  26.724  33.320  0.00  0.00     0.092 A 
ATOM      5  C   UNL d   1     -50.842  25.381  33.347  0.00  0.00     0.090 A 
ATOM      6  C   UNL d   1     -51.184  26.135  33.322  0.00  0.00     0.047 A 
ATOM      7  C   UNL d   1     -52.145  24.798  33.350  0.00  0.00     0.073 A 
ATOM      8  C   UNL d   1     -51.325  24.711  33.361  0.00  0.00     0.024 A 
ATOM      9  O   UNL d   1     -48.711  25.889  33.356  0.00  0.00    -0.265 OA
ATOM     10  C   UNL d   1     -52.001  26.222  33.310  0.00  0.00     0.008 A 
ATOM     11  C   UNL d   1     -52.483  25.553  33.324  0.00  0.00     0.004 A 
ENDROOT
BRANCH   4  12
ATOM     12  C   UNL d   1     -49.397  27.393  33.305  0.00  0.00     0.074 C 
BRANCH  12  13
ATOM     13  C   UNL d   1     -49.115  27.714  34.020  0.00  0.00     0.280 C 
ATOM     14  N   UNL d   1     -48.684  28.421  34.016  0.00  0.00    -0.208 NA
ATOM     15  O   UNL d   1     -49.214  27.458  34.510  0.00  0.00    -0.265 OA
BRANCH  14  16
ATOM     16  C   UNL d   1     -48.409  28.732  34.728  0.00  0.00     0.085 A 
ATOM     17  C   UNL d   1     -48.034  29.463  34.734  0.00  0.00     0.024 A 
ATOM     18  C   UNL d   1     -47.759  29.775  35.446  0.00  0.00     0.084 A 
ATOM     19  C   UNL d   1     -47.859  29.355  36.148  0.00  0.00     0.062 A 
ATOM     20  C   UNL d   1     -48.239  28.618  36.133  0.00  0.00     0.013 A 
ATOM     21 CL   UNL d   1     -47.588  29.662  36.847  0.00  0.00    -0.082 Cl
ATOM     22  C   UNL d   1     -48.512  28.309  35.428  0.00  0.00     0.020 A 
BRANCH  18  23
ATOM     23  C   UNL d   1     -47.388  30.496  35.454  0.00  0.00     0.420 C 
ATOM     24  F   UNL d   1     -47.045  31.158  35.464  0.00  0.00    -0.166 F 
ATOM     25  F   UNL d   1     -46.700  30.740  35.885  0.00  0.00    -0.166 F 
ATOM     26  F   UNL d   1     -47.586  31.204  35.035  0.00  0.00    -0.166 F 
ENDBRANCH  18  23
ENDBRANCH  14  16
ENDBRANCH  12  13
ENDBRANCH   4  12
BRANCH   7  27
ATOM     27  C   UNL d   1     -52.619  24.140  33.363  0.00  0.00     0.419 C 
ATOM     28  F   UNL d   1     -52.403  23.324  33.431  0.00  0.00    -0.166 F 
ATOM     29  F   UNL d   1     -53.470  24.085  33.314  0.00  0.00    -0.166 F 
ATOM     30  F   UNL d   1     -53.052  23.533  33.376  0.00  0.00    -0.166 F 
ENDBRANCH   7  27
TORSDOF 5
ENDMDL
MODEL 2
REMARK VINA RESULT:      68.1      1.718      6.277
REMARK  5 active torsions:
REMARK  status: ('A' for Active; 'I' for Inactive)
REMARK    1  A    between atoms: C_3  and  C_1 
REMARK    2  A    between atoms: C_6  and  C_9 
REMARK    3  A    between atoms: C_7  and  C_12 
REMARK    4  A    between atoms: C_9  and  C_11 
REMARK       I    between atoms: C_11  and  N_16 
REMARK    5  A    between atoms: N_16  and  C_18 
ROOT
ATOM      1  N   UNL d   1     -48.624  27.905  35.289  0.00  0.00    -0.207 NA
ATOM      2  C   UNL d   1     -49.111  27.557  34.704  0.00  0.00     0.285 A 
ATOM      3  S   UNL d   1     -49.126  28.805  33.982  0.00  0.00    -0.080 SA
ATOM      4  C   UNL d   1     -49.361  28.005  34.053  0.00  0.00     0.092 A 
ATOM      5  C   UNL d   1     -48.395  28.697  35.213  0.00  0.00     0.090 A 
ATOM      6  C   UNL d   1     -48.643  29.148  34.564  0.00  0.00     0.047 A 
ATOM      7  C   UNL d   1     -47.684  29.827  35.717  0.00  0.00     0.073 A 
ATOM      8  C   UNL d   1     -47.914  29.038  35.791  0.00  0.00     0.024 A 
ATOM      9  O   UNL d   1     -49.344  26.772  34.771  0.00  0.00    -0.265 OA
ATOM     10  C   UNL d   1     -48.414  29.934  34.490  0.00  0.00     0.008 A 
ATOM     11  C   UNL d   1     -47.934  30.275  35.067  0.00  0.00     0.004 A 
ENDROOT
BRANCH   4  12
ATOM     12  C   UNL d   1     -49.837  27.675  33.477  0.00  0.00     0.074 C 
BRANCH  12  13
ATOM     13  C   UNL d   1     -49.953  26.851  33.459  0.00  0.00     0.280 C 
ATOM     14  N   UNL d   1     -50.717  26.540  33.394  0.00  0.00    -0.208 NA
ATOM     15  O   UNL d   1     -49.517  26.498  33.491  0.00  0.00    -0.265 OA
BRANCH  14  16
ATOM     16  C   UNL d   1     -50.823  25.722  33.377  0.00  0.00     0.085 A 
ATOM     17  C   UNL d   1     -51.583  25.411  33.383  0.00  0.00     0.024 A 
ATOM     18  C   UNL d   1     -51.689  24.593  33.366  0.00  0.00     0.084 A 
ATOM     19  C   UNL d   1     -51.035  24.092  33.343  0.00  0.00     0.062 A 
ATOM     20  C   UNL d   1     -50.271  24.415  33.337  0.00  0.00     0.013 A 
ATOM     21 CL   UNL d   1     -51.141  23.288  33.326  0.00  0.00    -0.082 Cl
ATOM     22  C   UNL d   1     -50.167  25.224  33.354  0.00  0.00     0.020 A 
BRANCH  18  23
ATOM     23  C   UNL d   1     -52.438  24.283  33.372  0.00  0.00     0.420 C 
ATOM     24  F   UNL d   1     -53.125  23.995  33.377  0.00  0.00    -0.166 F 
ATOM     25  F   UNL d   1     -52.683  23.472  33.357  0.00  0.00    -0.166 F 
ATOM     26  F   UNL d   1     -53.183  24.684  33.394  0.00  0.00    -0.166 F 
ENDBRANCH  18  23
ENDBRANCH  14  16
ENDBRANCH  12  13
ENDBRANCH   4  12
BRANCH   7  27
ATOM     27  C   UNL d   1     -47.212  30.162  36.285  0.00  0.00     0.419 C 
ATOM     28  F   UNL d   1     -46.718  29.788  36.862  0.00  0.00    -0.166 F 
ATOM     29  F   UNL d   1     -47.081  30.988  36.461  0.00  0.00    -0.166 F 
ATOM     30  F   UNL d   1     -46.777  30.468  36.808  0.00  0.00    -0.166 F 
ENDBRANCH   7  27
TORSDOF 5
ENDMDL
MODEL 3
REMARK VINA RESULT:      69.9      2.111      6.356
REMARK  5 active torsions:
REMARK  status: ('A' for Active; 'I' for Inactive)
REMARK    1  A    between atoms: C_3  and  C_1 
REMARK    2  A    between atoms: C_6  and  C_9 
REMARK    3  A    between atoms: C_7  and  C_12 
REMARK    4  A    between atoms: C_9  and  C_11 
REMARK       I    between atoms: C_11  and  N_16 
REMARK    5  A    between atoms: N_16  and  C_18 
ROOT
ATOM      1  N   UNL d   1     -47.526  30.234  35.495  0.00  0.00    -0.207 NA
ATOM      2  C   UNL d   1     -47.698  29.421  35.596  0.00  0.00     0.285 A 
ATOM      3  S   UNL d   1     -48.465  29.437  34.375  0.00  0.00    -0.080 SA
ATOM      4  C   UNL d   1     -48.165  29.024  35.039  0.00  0.00     0.092 A 
ATOM      5  C   UNL d   1     -47.825  30.637  34.837  0.00  0.00     0.090 A 
ATOM      6  C   UNL d   1     -48.293  30.243  34.278  0.00  0.00     0.047 A 
ATOM      7  C   UNL d   1     -47.951  31.842  34.084  0.00  0.00     0.073 A 
ATOM      8  C   UNL d   1     -47.654  31.439  34.740  0.00  0.00     0.024 A 
ATOM      9  O   UNL d   1     -47.406  29.012  36.246  0.00  0.00    -0.265 OA
ATOM     10  C   UNL d   1     -48.589  30.645  33.625  0.00  0.00     0.008 A 
ATOM     11  C   UNL d   1     -48.418  31.446  33.527  0.00  0.00     0.004 A 
ENDROOT
BRANCH   4  12
ATOM     12  C   UNL d   1     -48.339  28.231  35.128  0.00  0.00     0.074 C 
BRANCH  12  13
ATOM     13  C   UNL d   1     -49.063  27.932  34.844  0.00  0.00     0.280 C 
ATOM     14  N   UNL d   1     -49.084  27.212  34.436  0.00  0.00    -0.208 NA
ATOM     15  O   UNL d   1     -49.542  28.214  34.925  0.00  0.00    -0.265 OA
BRANCH  14  16
ATOM     16  C   UNL d   1     -49.805  26.924  34.159  0.00  0.00     0.085 A 
ATOM     17  C   UNL d   1     -49.880  26.127  33.975  0.00  0.00     0.024 A 
ATOM     18  C   UNL d   1     -50.601  25.838  33.698  0.00  0.00     0.084 A 
ATOM     19  C   UNL d   1     -51.242  26.347  33.606  0.00  0.00     0.062 A 
ATOM     20  C   UNL d   1     -51.158  27.151  33.794  0.00  0.00     0.013 A 
ATOM     21 CL   UNL d   1     -51.951  26.063  33.333  0.00  0.00    -0.082 Cl
ATOM     22  C   UNL d   1     -50.444  27.436  34.068  0.00  0.00     0.020 A 
BRANCH  18  23
ATOM     23  C   UNL d   1     -50.677  25.052  33.515  0.00  0.00     0.420 C 
ATOM     24  F   UNL d   1     -50.743  24.329  33.347  0.00  0.00    -0.166 F 
ATOM     25  F   UNL d   1     -50.078  24.489  33.306  0.00  0.00    -0.166 F 
ATOM     26  F   UNL d   1     -51.375  24.575  33.483  0.00  0.00    -0.166 F 
ENDBRANCH  18  23
ENDBRANCH  14  16
ENDBRANCH  12  13
ENDBRANCH   4  12
BRANCH   7  27
ATOM     27  C   UNL d   1     -47.784  32.630  33.988  0.00  0.00     0.419 C 
ATOM     28  F   UNL d   1     -48.246  33.237  33.622  0.00  0.00    -0.166 F 
ATOM     29  F   UNL d   1     -47.092  33.069  34.231  0.00  0.00    -0.166 F 
ATOM     30  F   UNL d   1     -47.632  33.355  33.899  0.00  0.00    -0.166 F 
ENDBRANCH   7  27
TORSDOF 5
ENDMDL
