MODEL 1
REMARK VINA RESULT:      -4.6      0.000      0.000
REMARK  1 active torsions:
REMARK  status: ('A' for Active; 'I' for Inactive)
REMARK    1  A    between atoms: C_5  and  C_1 
ROOT
ATOM      1  C   UNL d   1      56.509  -0.796  32.153  0.00  0.00     0.169 A 
ATOM      2  N   UNL d   1      56.267  -1.500  32.510  0.00  0.00    -0.142 NA
ATOM      3  C   UNL d   1      56.127  -0.169  32.533  0.00  0.00     0.048 A 
ATOM      4  N   UNL d   1      55.738  -1.298  33.107  0.00  0.00    -0.148 NA
ATOM      5  C   UNL d   1      55.659  -0.476  33.113  0.00  0.00     0.105 A 
ATOM      6  C   UNL d   1      55.180  -0.039  33.626  0.00  0.00     0.023 C 
ENDROOT
BRANCH   1   7
ATOM      7  C   UNL d   1      57.039  -0.735  31.527  0.00  0.00     0.231 C 
ATOM      8  O   UNL d   1      57.442  -0.030  31.390  0.00  0.00    -0.643 OA
ATOM      9  O   UNL d   1      57.167  -1.384  31.034  0.00  0.00    -0.643 OA
ENDBRANCH   1   7
TORSDOF 1
ENDMDL
MODEL 2
REMARK VINA RESULT:      -4.4      1.702      2.345
REMARK  1 active torsions:
REMARK  status: ('A' for Active; 'I' for Inactive)
REMARK    1  A    between atoms: C_5  and  C_1 
ROOT
ATOM      1  C   UNL d   1      55.861  -0.443  33.075  0.00  0.00     0.169 A 
ATOM      2  N   UNL d   1      55.859  -1.267  33.025  0.00  0.00    -0.142 NA
ATOM      3  C   UNL d   1      56.335  -0.148  32.464  0.00  0.00     0.048 A 
ATOM      4  N   UNL d   1      56.333  -1.471  32.383  0.00  0.00    -0.148 NA
ATOM      5  C   UNL d   1      56.621  -0.775  32.045  0.00  0.00     0.105 A 
ATOM      6  C   UNL d   1      57.119  -0.726  31.387  0.00  0.00     0.023 C 
ENDROOT
BRANCH   1   7
ATOM      7  C   UNL d   1      55.459   0.003  33.637  0.00  0.00     0.231 C 
ATOM      8  O   UNL d   1      54.640   0.084  33.595  0.00  0.00    -0.643 OA
ATOM      9  O   UNL d   1      55.878   0.371  34.244  0.00  0.00    -0.643 OA
ENDBRANCH   1   7
TORSDOF 1
ENDMDL
MODEL 3
REMARK VINA RESULT:      -4.4      1.276      1.522
REMARK  1 active torsions:
REMARK  status: ('A' for Active; 'I' for Inactive)
REMARK    1  A    between atoms: C_5  and  C_1 
ROOT
ATOM      1  C   UNL d   1      56.024  -0.523  33.001  0.00  0.00     0.169 A 
ATOM      2  N   UNL d   1      56.496   0.135  33.160  0.00  0.00    -0.142 NA
ATOM      3  C   UNL d   1      55.277  -0.390  33.331  0.00  0.00     0.048 A 
ATOM      4  N   UNL d   1      56.035   0.667  33.586  0.00  0.00    -0.148 NA
ATOM      5  C   UNL d   1      55.285   0.334  33.686  0.00  0.00     0.105 A 
ATOM      6  C   UNL d   1      54.650   0.682  34.083  0.00  0.00     0.023 C 
ENDROOT
BRANCH   1   7
ATOM      7  C   UNL d   1      56.260  -1.193  32.586  0.00  0.00     0.231 C 
ATOM      8  O   UNL d   1      56.586  -1.121  31.833  0.00  0.00    -0.643 OA
ATOM      9  O   UNL d   1      56.169  -1.939  32.925  0.00  0.00    -0.643 OA
ENDBRANCH   1   7
TORSDOF 1
ENDMDL
MODEL 4
REMARK VINA RESULT:      -4.4      1.566      2.224
REMARK  1 active torsions:
REMARK  status: ('A' for Active; 'I' for Inactive)
REMARK    1  A    between atoms: C_5  and  C_1 
ROOT
ATOM      1  C   UNL d   1      56.451  -0.794  32.294  0.00  0.00     0.169 A 
ATOM      2  N   UNL d   1      56.766  -1.258  31.687  0.00  0.00    -0.142 NA
ATOM      3  C   UNL d   1      56.702  -0.014  32.179  0.00  0.00     0.048 A 
ATOM      4  N   UNL d   1      57.208  -0.757  31.206  0.00  0.00    -0.148 NA
ATOM      5  C   UNL d   1      57.162   0.007  31.518  0.00  0.00     0.105 A 
ATOM      6  C   UNL d   1      57.525   0.680  31.206  0.00  0.00     0.023 C 
ENDROOT
BRANCH   1   7
ATOM      7  C   UNL d   1      55.971  -1.067  32.904  0.00  0.00     0.231 C 
ATOM      8  O   UNL d   1      56.103  -1.809  33.236  0.00  0.00    -0.643 OA
ATOM      9  O   UNL d   1      55.355  -0.595  33.183  0.00  0.00    -0.643 OA
ENDBRANCH   1   7
TORSDOF 1
ENDMDL
MODEL 5
REMARK VINA RESULT:      -3.9      8.017      8.297
REMARK  1 active torsions:
REMARK  status: ('A' for Active; 'I' for Inactive)
REMARK    1  A    between atoms: C_5  and  C_1 
ROOT
ATOM      1  C   UNL d   1      59.679  -7.202  35.938  0.00  0.00     0.169 A 
ATOM      2  N   UNL d   1      59.277  -6.551  35.627  0.00  0.00    -0.142 NA
ATOM      3  C   UNL d   1      60.405  -6.939  36.236  0.00  0.00     0.048 A 
ATOM      4  N   UNL d   1      59.761  -5.894  35.736  0.00  0.00    -0.148 NA
ATOM      5  C   UNL d   1      60.453  -6.144  36.112  0.00  0.00     0.105 A 
ATOM      6  C   UNL d   1      61.088  -5.662  36.327  0.00  0.00     0.023 C 
ENDROOT
BRANCH   1   7
ATOM      7  C   UNL d   1      59.400  -7.976  35.948  0.00  0.00     0.231 C 
ATOM      8  O   UNL d   1      59.826  -8.575  35.577  0.00  0.00    -0.643 OA
ATOM      9  O   UNL d   1      58.691  -8.151  36.330  0.00  0.00    -0.643 OA
ENDBRANCH   1   7
TORSDOF 1
ENDMDL
MODEL 6
REMARK VINA RESULT:      -3.6      8.226      8.482
REMARK  1 active torsions:
REMARK  status: ('A' for Active; 'I' for Inactive)
REMARK    1  A    between atoms: C_5  and  C_1 
ROOT
ATOM      1  C   UNL d   1      60.175  -6.951  35.971  0.00  0.00     0.169 A 
ATOM      2  N   UNL d   1      60.760  -7.455  35.678  0.00  0.00    -0.142 NA
ATOM      3  C   UNL d   1      59.549  -7.416  36.248  0.00  0.00     0.048 A 
ATOM      4  N   UNL d   1      60.488  -8.225  35.778  0.00  0.00    -0.148 NA
ATOM      5  C   UNL d   1      59.741  -8.190  36.131  0.00  0.00     0.105 A 
ATOM      6  C   UNL d   1      59.269  -8.838  36.330  0.00  0.00     0.023 C 
ENDROOT
BRANCH   1   7
ATOM      7  C   UNL d   1      60.213  -6.129  35.982  0.00  0.00     0.231 C 
ATOM      8  O   UNL d   1      60.855  -5.748  36.330  0.00  0.00    -0.643 OA
ATOM      9  O   UNL d   1      59.606  -5.686  35.643  0.00  0.00    -0.643 OA
ENDBRANCH   1   7
TORSDOF 1
ENDMDL
MODEL 7
REMARK VINA RESULT:      -2.9      1.951      2.941
REMARK  1 active torsions:
REMARK  status: ('A' for Active; 'I' for Inactive)
REMARK    1  A    between atoms: C_5  and  C_1 
ROOT
ATOM      1  C   UNL d   1      57.262  -0.218  31.133  0.00  0.00     0.169 A 
ATOM      2  N   UNL d   1      57.024   0.512  30.831  0.00  0.00    -0.142 NA
ATOM      3  C   UNL d   1      57.892  -0.495  30.673  0.00  0.00     0.048 A 
ATOM      4  N   UNL d   1      57.510   0.677  30.187  0.00  0.00    -0.148 NA
ATOM      5  C   UNL d   1      58.041   0.050  30.099  0.00  0.00     0.105 A 
ATOM      6  C   UNL d   1      58.627  -0.010  29.520  0.00  0.00     0.023 C 
ENDROOT
BRANCH   1   7
ATOM      7  C   UNL d   1      56.927  -0.600  31.780  0.00  0.00     0.231 C 
ATOM      8  O   UNL d   1      56.905  -0.229  32.515  0.00  0.00    -0.643 OA
ATOM      9  O   UNL d   1      56.613  -1.357  31.692  0.00  0.00    -0.643 OA
ENDBRANCH   1   7
TORSDOF 1
ENDMDL
MODEL 8
REMARK VINA RESULT:      -2.3      4.161      4.379
REMARK  1 active torsions:
REMARK  status: ('A' for Active; 'I' for Inactive)
REMARK    1  A    between atoms: C_5  and  C_1 
ROOT
ATOM      1  C   UNL d   1      58.767  -2.178  29.261  0.00  0.00     0.169 A 
ATOM      2  N   UNL d   1      58.174  -1.938  29.783  0.00  0.00    -0.142 NA
ATOM      3  C   UNL d   1      59.086  -1.503  28.904  0.00  0.00     0.048 A 
ATOM      4  N   UNL d   1      58.134  -1.116  29.741  0.00  0.00    -0.148 NA
ATOM      5  C   UNL d   1      58.700  -0.859  29.197  0.00  0.00     0.105 A 
ATOM      6  C   UNL d   1      58.848  -0.074  28.987  0.00  0.00     0.023 C 
ENDROOT
BRANCH   1   7
ATOM      7  C   UNL d   1      58.997  -2.956  29.124  0.00  0.00     0.231 C 
ATOM      8  O   UNL d   1      59.784  -3.179  29.215  0.00  0.00    -0.643 OA
ATOM      9  O   UNL d   1      58.436  -3.515  28.894  0.00  0.00    -0.643 OA
ENDBRANCH   1   7
TORSDOF 1
ENDMDL
MODEL 9
REMARK VINA RESULT:      -2.1      3.878      4.385
REMARK  1 active torsions:
REMARK  status: ('A' for Active; 'I' for Inactive)
REMARK    1  A    between atoms: C_5  and  C_1 
ROOT
ATOM      1  C   UNL d   1      58.762  -0.735  29.426  0.00  0.00     0.169 A 
ATOM      2  N   UNL d   1      59.427  -0.729  28.936  0.00  0.00    -0.142 NA
ATOM      3  C   UNL d   1      58.513  -1.520  29.513  0.00  0.00     0.048 A 
ATOM      4  N   UNL d   1      59.580  -1.510  28.727  0.00  0.00    -0.148 NA
ATOM      5  C   UNL d   1      59.011  -1.989  29.087  0.00  0.00     0.105 A 
ATOM      6  C   UNL d   1      58.959  -2.811  29.023  0.00  0.00     0.023 C 
ENDROOT
BRANCH   1   7
ATOM      7  C   UNL d   1      58.412  -0.073  29.766  0.00  0.00     0.231 C 
ATOM      8  O   UNL d   1      58.741   0.272  30.438  0.00  0.00    -0.643 OA
ATOM      9  O   UNL d   1      57.729   0.247  29.433  0.00  0.00    -0.643 OA
ENDBRANCH   1   7
TORSDOF 1
ENDMDL
