MODEL 1
REMARK VINA RESULT:      24.3      0.000      0.000
REMARK  1 active torsions:
REMARK  status: ('A' for Active; 'I' for Inactive)
REMARK    1  A    between atoms: C_7  and  C_4 
ROOT
ATOM      1  N   UNL d   1      58.394  49.688  50.987  0.00  0.00    -0.242 NA
ATOM      2  C   UNL d   1      59.111  49.665  49.742  0.00  0.00     0.156 A 
ATOM      3  N   UNL d   1      58.393  49.663  49.332  0.00  0.00    -0.231 NA
ATOM      4  C   UNL d   1      59.110  49.677  50.575  0.00  0.00     0.110 A 
ATOM      5  C   UNL d   1      57.681  49.687  50.570  0.00  0.00     0.099 A 
ATOM      6  C   UNL d   1      57.687  49.674  49.745  0.00  0.00     0.100 A 
ATOM      7 CL   UNL d   1      59.826  49.654  49.334  0.00  0.00    -0.060 Cl
ATOM      8  C   UNL d   1      56.957  49.698  50.978  0.00  0.00     0.021 A 
ATOM      9  C   UNL d   1      56.968  49.673  49.328  0.00  0.00     0.021 A 
ATOM     10  C   UNL d   1      56.253  49.684  49.735  0.00  0.00     0.002 A 
ATOM     11  C   UNL d   1      56.247  49.696  50.560  0.00  0.00     0.002 A 
ENDROOT
BRANCH   4  12
ATOM     12  C   UNL d   1      59.819  49.678  50.984  0.00  0.00     0.020 A 
ATOM     13  C   UNL d   1      60.530  49.673  50.577  0.00  0.00     0.002 A 
ATOM     14  C   UNL d   1      61.244  49.674  50.981  0.00  0.00     0.000 A 
ATOM     15  C   UNL d   1      61.248  49.681  51.814  0.00  0.00     0.000 A 
ATOM     16  C   UNL d   1      60.524  49.687  52.227  0.00  0.00     0.000 A 
ATOM     17  C   UNL d   1      61.961  49.682  52.231  0.00  0.00     0.000 C 
ATOM     18  C   UNL d   1      59.814  49.686  51.809  0.00  0.00     0.002 A 
ENDBRANCH   4  12
TORSDOF 1
ENDMDL
