MODEL 1
REMARK VINA RESULT:       0.0      0.000      0.000
REMARK  6 active torsions:
REMARK  status: ('A' for Active; 'I' for Inactive)
REMARK    1  A    between atoms: C_9  and  N_1 
REMARK    2  A    between atoms: C_3  and  C_2 
REMARK    3  A    between atoms: C_12  and  C_9 
REMARK    4  A    between atoms: C_15  and  C_9 
REMARK    5  A    between atoms: C_20  and  C_15 
REMARK    6  A    between atoms: C_17  and  C_20 
ROOT
ATOM      1  N   UNL d   1      32.716  18.568 -23.358  0.00  0.00    -0.254 N 
ATOM      2  C   UNL d   1      32.964  19.618 -22.680  0.00  0.00     0.093 A 
ATOM      3  C   UNL d   1      33.073  18.308 -22.736  0.00  0.00     0.153 A 
ATOM      4  C   UNL d   1      32.629  19.369 -23.361  0.00  0.00     0.272 A 
ATOM      5  S   UNL d   1      33.237  18.963 -22.296  0.00  0.00    -0.053 SA
ATOM      6  S   UNL d   1      33.237  17.508 -22.585  0.00  0.00    -0.052 SA
ATOM      7  O   UNL d   1      32.282  19.840 -23.923  0.00  0.00    -0.266 OA
ENDROOT
BRANCH   2   8
ATOM      8  C   UNL d   1      33.017  20.400 -22.425  0.00  0.00     0.070 A 
ATOM      9  C   UNL d   1      33.152  20.961 -22.995  0.00  0.00     0.280 A 
ATOM     10  N   UNL d   1      33.188  21.716 -22.638  0.00  0.00    -0.208 NA
ATOM     11  O   UNL d   1      33.241  20.814 -23.804  0.00  0.00    -0.265 OA
ATOM     12  C   UNL d   1      33.072  21.607 -21.831  0.00  0.00     0.085 A 
ATOM     13  C   UNL d   1      32.965  20.800 -21.687  0.00  0.00     0.023 A 
ATOM     14  C   UNL d   1      33.048  22.146 -21.191  0.00  0.00     0.019 A 
ATOM     15  C   UNL d   1      32.840  20.534 -20.951  0.00  0.00     0.002 A 
ATOM     16  C   UNL d   1      32.815  21.037 -20.332  0.00  0.00     0.000 A 
ATOM     17  C   UNL d   1      32.920  21.879 -20.432  0.00  0.00     0.002 A 
ENDBRANCH   2   8
BRANCH   1  18
ATOM     18  C   UNL d   1      32.453  18.012 -23.965  0.00  0.00     0.133 C 
BRANCH  18  19
ATOM     19  C   UNL d   1      32.981  17.868 -24.597  0.00  0.00     0.228 C 
ATOM     20  O   UNL d   1      33.234  18.449 -25.079  0.00  0.00    -0.643 OA
ATOM     21  O   UNL d   1      33.234  17.070 -24.696  0.00  0.00    -0.643 OA
ENDBRANCH  18  19
BRANCH  18  22
ATOM     22  C   UNL d   1      31.735  17.654 -23.918  0.00  0.00     0.030 C 
BRANCH  22  23
ATOM     23  C   UNL d   1      31.297  17.608 -24.616  0.00  0.00     0.072 C 
BRANCH  23  24
ATOM     24  C   UNL d   1      30.545  17.203 -24.545  0.00  0.00     0.211 C 
ATOM     25  O   UNL d   1      29.838  17.613 -24.584  0.00  0.00    -0.644 OA
ATOM     26  O   UNL d   1      30.577  16.400 -24.437  0.00  0.00    -0.644 OA
ENDBRANCH  23  24
ENDBRANCH  22  23
ENDBRANCH  18  22
ENDBRANCH   1  18
TORSDOF 6
ENDMDL
MODEL 2
REMARK VINA RESULT:       2.2      2.227      3.274
REMARK  6 active torsions:
REMARK  status: ('A' for Active; 'I' for Inactive)
REMARK    1  A    between atoms: C_9  and  N_1 
REMARK    2  A    between atoms: C_3  and  C_2 
REMARK    3  A    between atoms: C_12  and  C_9 
REMARK    4  A    between atoms: C_15  and  C_9 
REMARK    5  A    between atoms: C_20  and  C_15 
REMARK    6  A    between atoms: C_17  and  C_20 
ROOT
ATOM      1  N   UNL d   1      30.789  16.723 -23.794  0.00  0.00    -0.254 N 
ATOM      2  C   UNL d   1      31.780  17.502 -23.606  0.00  0.00     0.093 A 
ATOM      3  C   UNL d   1      31.334  16.268 -23.513  0.00  0.00     0.153 A 
ATOM      4  C   UNL d   1      31.025  17.490 -23.866  0.00  0.00     0.272 A 
ATOM      5  S   UNL d   1      31.969  16.748 -23.388  0.00  0.00    -0.053 SA
ATOM      6  S   UNL d   1      31.245  15.453 -23.380  0.00  0.00    -0.052 SA
ATOM      7  O   UNL d   1      30.604  18.127 -24.141  0.00  0.00    -0.266 OA
ENDROOT
BRANCH   2   8
ATOM      8  C   UNL d   1      32.269  18.165 -23.569  0.00  0.00     0.070 A 
ATOM      9  C   UNL d   1      32.753  18.226 -22.921  0.00  0.00     0.280 A 
ATOM     10  N   UNL d   1      33.204  18.927 -22.977  0.00  0.00    -0.208 NA
ATOM     11  O   UNL d   1      32.796  17.681 -22.299  0.00  0.00    -0.265 OA
ATOM     12  C   UNL d   1      32.987  19.298 -23.678  0.00  0.00     0.085 A 
ATOM     13  C   UNL d   1      32.410  18.839 -24.052  0.00  0.00     0.023 A 
ATOM     14  C   UNL d   1      33.241  20.011 -24.036  0.00  0.00     0.019 A 
ATOM     15  C   UNL d   1      32.098  19.066 -24.743  0.00  0.00     0.002 A 
ATOM     16  C   UNL d   1      32.331  19.743 -25.096  0.00  0.00     0.000 A 
ATOM     17  C   UNL d   1      32.924  20.251 -24.747  0.00  0.00     0.002 A 
ENDBRANCH   2   8
BRANCH   1  18
ATOM     18  C   UNL d   1      30.017  16.393 -23.997  0.00  0.00     0.133 C 
BRANCH  18  19
ATOM     19  C   UNL d   1      29.953  16.015 -24.740  0.00  0.00     0.228 C 
ATOM     20  O   UNL d   1      30.577  15.671 -25.096  0.00  0.00    -0.643 OA
ATOM     21  O   UNL d   1      29.188  16.018 -25.095  0.00  0.00    -0.643 OA
ENDBRANCH  18  19
BRANCH  18  22
ATOM     22  C   UNL d   1      29.395  16.450 -23.492  0.00  0.00     0.030 C 
BRANCH  22  23
ATOM     23  C   UNL d   1      28.643  16.356 -23.816  0.00  0.00     0.072 C 
BRANCH  23  24
ATOM     24  C   UNL d   1      28.022  16.189 -23.249  0.00  0.00     0.211 C 
ATOM     25  O   UNL d   1      28.084  16.432 -22.471  0.00  0.00    -0.644 OA
ATOM     26  O   UNL d   1      27.379  15.782 -23.528  0.00  0.00    -0.644 OA
ENDBRANCH  23  24
ENDBRANCH  22  23
ENDBRANCH  18  22
ENDBRANCH   1  18
TORSDOF 6
ENDMDL
