MODEL 1
REMARK VINA RESULT:      63.3      0.000      0.000
REMARK  2 active torsions:
REMARK  status: ('A' for Active; 'I' for Inactive)
REMARK    1  A    between atoms: C_4  and  C_1 
REMARK       I    between atoms: N_7  and  C_4 
REMARK    2  A    between atoms: C_17  and  N_8 
ROOT
ATOM      1  C   UNL d   1     -56.401-102.724 -38.179  0.00  0.00     0.248 C 
ATOM      2  N   UNL d   1     -56.120-102.596 -38.982  0.00  0.00    -0.272 N 
ATOM      3  N   UNL d   1     -55.562-102.341 -40.585  0.00  0.00    -0.301 N 
ATOM      4  O   UNL d   1     -57.188-102.874 -38.042  0.00  0.00    -0.271 OA
ATOM      5  C   UNL d   1     -56.672-102.627 -39.643  0.00  0.00     0.102 A 
ATOM      6  C   UNL d   1     -55.288-102.440 -39.106  0.00  0.00     0.102 A 
ATOM      7  C   UNL d   1     -56.399-102.501 -40.434  0.00  0.00     0.100 A 
ATOM      8  C   UNL d   1     -55.009-102.311 -39.924  0.00  0.00     0.100 A 
ENDROOT
BRANCH   1   9
ATOM      9  C   UNL d   1     -55.885-102.697 -37.555  0.00  0.00     0.112 A 
ATOM     10  C   UNL d   1     -55.441-102.730 -36.103  0.00  0.00     0.025 A 
ATOM     11  C   UNL d   1     -55.373-102.670 -36.923  0.00  0.00     0.074 A 
ATOM     12  C   UNL d   1     -54.780-102.674 -35.635  0.00  0.00     0.002 C 
ATOM     13  C   UNL d   1     -56.053-102.840 -35.586  0.00  0.00     0.002 C 
ATOM     14  C   UNL d   1     -54.713-102.616 -36.444  0.00  0.00     0.012 C 
ATOM     15  C   UNL d   1     -54.757-102.559 -37.443  0.00  0.00    -0.023 A 
ATOM     16  C   UNL d   1     -56.163-102.780 -36.785  0.00  0.00     0.172 A 
ATOM     17  C   UNL d   1     -55.269-102.586 -38.070  0.00  0.00    -0.018 A 
ATOM     18  C   UNL d   1     -56.678-102.807 -37.415  0.00  0.00     0.024 A 
ATOM     19  O   UNL d   1     -56.625-102.880 -36.128  0.00  0.00    -0.291 OA
ENDBRANCH   1   9
BRANCH   3  20
ATOM     20  C   UNL d   1     -55.278-102.212 -41.391  0.00  0.00     0.064 A 
ATOM     21  C   UNL d   1     -55.022-101.432 -41.633  0.00  0.00     0.018 A 
ATOM     22  C   UNL d   1     -54.739-101.302 -42.433  0.00  0.00     0.002 A 
ATOM     23  C   UNL d   1     -54.712-101.960 -42.996  0.00  0.00     0.000 A 
ATOM     24  C   UNL d   1     -54.971-102.746 -42.747  0.00  0.00     0.002 A 
ATOM     25  C   UNL d   1     -55.254-102.872 -41.945  0.00  0.00     0.018 A 
ENDBRANCH   3  20
TORSDOF 2
ENDMDL
