MODEL 1
REMARK VINA RESULT:      -2.9      0.000      0.000
REMARK  3 active torsions:
REMARK  status: ('A' for Active; 'I' for Inactive)
REMARK    1  A    between atoms: C_2  and  C_4 
REMARK    2  A    between atoms: N_3  and  C_2 
REMARK    3  A    between atoms: C_5  and  N_3 
ROOT
ATOM      1  C   UNL d   1      32.980  18.963 -23.336  0.00  0.00     0.153 C 
ATOM      2  S   UNL d   1      33.241  19.364 -24.006  0.00  0.00    -0.056 SA
ENDROOT
BRANCH   1   3
ATOM      3  C   UNL d   1      32.674  18.201 -23.407  0.00  0.00     0.109 A 
ATOM      4  N   UNL d   1      31.914  18.085 -23.735  0.00  0.00    -0.243 NA
ATOM      5  C   UNL d   1      31.609  17.318 -23.805  0.00  0.00     0.081 A 
ATOM      6  C   UNL d   1      32.059  16.670 -23.551  0.00  0.00     0.018 A 
ATOM      7  C   UNL d   1      30.860  17.201 -24.127  0.00  0.00     0.019 A 
ATOM      8  C   UNL d   1      32.812  16.785 -23.228  0.00  0.00     0.003 A 
ATOM      9  C   UNL d   1      31.753  15.911 -23.623  0.00  0.00     0.002 A 
ATOM     10  C   UNL d   1      33.117  17.547 -23.156  0.00  0.00     0.021 A 
ATOM     11  C   UNL d   1      31.008  15.790 -23.943  0.00  0.00     0.000 A 
ATOM     12  C   UNL d   1      30.563  16.434 -24.194  0.00  0.00     0.002 A 
ENDBRANCH   1   3
BRANCH   1  13
ATOM     13  N   UNL d   1      33.022  19.321 -22.595  0.00  0.00    -0.233 NA
BRANCH  13  14
ATOM     14  C   UNL d   1      33.076  20.146 -22.540  0.00  0.00     0.082 A 
ATOM     15  C   UNL d   1      33.119  20.500 -21.789  0.00  0.00     0.018 A 
ATOM     16  C   UNL d   1      33.173  21.325 -21.741  0.00  0.00     0.002 A 
ATOM     17  C   UNL d   1      33.108  20.040 -21.108  0.00  0.00     0.002 C 
ATOM     18  C   UNL d   1      33.184  21.785 -22.422  0.00  0.00     0.000 A 
ATOM     19  C   UNL d   1      33.141  21.425 -23.166  0.00  0.00     0.002 A 
ATOM     20  C   UNL d   1      33.239  22.610 -22.366  0.00  0.00     0.000 C 
ATOM     21  C   UNL d   1      33.087  20.604 -23.224  0.00  0.00     0.019 A 
ENDBRANCH  13  14
ENDBRANCH   1  13
TORSDOF 3
ENDMDL
MODEL 2
REMARK VINA RESULT:      -2.8      1.599      4.805
REMARK  3 active torsions:
REMARK  status: ('A' for Active; 'I' for Inactive)
REMARK    1  A    between atoms: C_2  and  C_4 
REMARK    2  A    between atoms: N_3  and  C_2 
REMARK    3  A    between atoms: C_5  and  N_3 
ROOT
ATOM      1  C   UNL d   1      33.122  20.156 -22.091  0.00  0.00     0.153 C 
ATOM      2  S   UNL d   1      33.218  19.473 -21.641  0.00  0.00    -0.056 SA
ENDROOT
BRANCH   1   3
ATOM      3  C   UNL d   1      32.907  20.862 -21.722  0.00  0.00     0.109 A 
ATOM      4  N   UNL d   1      32.919  21.578 -22.154  0.00  0.00    -0.243 NA
ATOM      5  C   UNL d   1      32.703  22.286 -21.783  0.00  0.00     0.081 A 
ATOM      6  C   UNL d   1      32.475  22.280 -20.986  0.00  0.00     0.018 A 
ATOM      7  C   UNL d   1      32.714  22.992 -22.205  0.00  0.00     0.019 A 
ATOM      8  C   UNL d   1      32.462  21.572 -20.559  0.00  0.00     0.003 A 
ATOM      9  C   UNL d   1      32.261  22.985 -20.621  0.00  0.00     0.002 A 
ATOM     10  C   UNL d   1      32.678  20.866 -20.927  0.00  0.00     0.021 A 
ATOM     11  C   UNL d   1      32.270  23.690 -21.038  0.00  0.00     0.000 A 
ATOM     12  C   UNL d   1      32.497  23.694 -21.829  0.00  0.00     0.002 A 
ENDBRANCH   1   3
BRANCH   1  13
ATOM     13  N   UNL d   1      33.240  20.138 -22.906  0.00  0.00    -0.233 NA
BRANCH  13  14
ATOM     14  C   UNL d   1      33.236  19.412 -23.305  0.00  0.00     0.082 A 
ATOM     15  C   UNL d   1      33.233  19.407 -24.136  0.00  0.00     0.018 A 
ATOM     16  C   UNL d   1      33.228  18.678 -24.529  0.00  0.00     0.002 A 
ATOM     17  C   UNL d   1      33.234  20.111 -24.560  0.00  0.00     0.002 C 
ATOM     18  C   UNL d   1      33.226  17.973 -24.105  0.00  0.00     0.000 A 
ATOM     19  C   UNL d   1      33.229  17.987 -23.279  0.00  0.00     0.002 A 
ATOM     20  C   UNL d   1      33.221  17.248 -24.506  0.00  0.00     0.000 C 
ATOM     21  C   UNL d   1      33.234  18.708 -22.878  0.00  0.00     0.019 A 
ENDBRANCH  13  14
ENDBRANCH   1  13
TORSDOF 3
ENDMDL
MODEL 3
REMARK VINA RESULT:      -2.8      1.185      1.985
REMARK  3 active torsions:
REMARK  status: ('A' for Active; 'I' for Inactive)
REMARK    1  A    between atoms: C_2  and  C_4 
REMARK    2  A    between atoms: N_3  and  C_2 
REMARK    3  A    between atoms: C_5  and  N_3 
ROOT
ATOM      1  C   UNL d   1      33.139  19.949 -22.424  0.00  0.00     0.153 C 
ATOM      2  S   UNL d   1      33.241  19.651 -21.664  0.00  0.00    -0.056 SA
ENDROOT
BRANCH   1   3
ATOM      3  C   UNL d   1      33.031  19.431 -23.057  0.00  0.00     0.109 A 
ATOM      4  N   UNL d   1      32.711  18.670 -22.923  0.00  0.00    -0.243 NA
ATOM      5  C   UNL d   1      32.603  18.151 -23.559  0.00  0.00     0.081 A 
ATOM      6  C   UNL d   1      32.813  18.389 -24.325  0.00  0.00     0.018 A 
ATOM      7  C   UNL d   1      32.288  17.402 -23.431  0.00  0.00     0.019 A 
ATOM      8  C   UNL d   1      33.130  19.141 -24.458  0.00  0.00     0.003 A 
ATOM      9  C   UNL d   1      32.705  17.871 -24.954  0.00  0.00     0.002 A 
ATOM     10  C   UNL d   1      33.238  19.659 -23.826  0.00  0.00     0.021 A 
ATOM     11  C   UNL d   1      32.391  17.124 -24.830  0.00  0.00     0.000 A 
ATOM     12  C   UNL d   1      32.183  16.890 -24.069  0.00  0.00     0.002 A 
ENDBRANCH   1   3
BRANCH   1  13
ATOM     13  N   UNL d   1      33.145  20.762 -22.556  0.00  0.00    -0.233 NA
BRANCH  13  14
ATOM     14  C   UNL d   1      32.880  21.276 -21.964  0.00  0.00     0.082 A 
ATOM     15  C   UNL d   1      32.931  22.097 -22.086  0.00  0.00     0.018 A 
ATOM     16  C   UNL d   1      32.664  22.605 -21.489  0.00  0.00     0.002 A 
ATOM     17  C   UNL d   1      33.241  22.397 -22.786  0.00  0.00     0.002 C 
ATOM     18  C   UNL d   1      32.355  22.304 -20.790  0.00  0.00     0.000 A 
ATOM     19  C   UNL d   1      32.307  21.487 -20.675  0.00  0.00     0.002 A 
ATOM     20  C   UNL d   1      32.090  22.820 -20.198  0.00  0.00     0.000 C 
ATOM     21  C   UNL d   1      32.571  20.972 -21.264  0.00  0.00     0.019 A 
ENDBRANCH  13  14
ENDBRANCH   1  13
TORSDOF 3
ENDMDL
MODEL 4
REMARK VINA RESULT:      -2.6      1.682      2.673
REMARK  3 active torsions:
REMARK  status: ('A' for Active; 'I' for Inactive)
REMARK    1  A    between atoms: C_2  and  C_4 
REMARK    2  A    between atoms: N_3  and  C_2 
REMARK    3  A    between atoms: C_5  and  N_3 
ROOT
ATOM      1  C   UNL d   1      31.431  17.062 -24.282  0.00  0.00     0.153 C 
ATOM      2  S   UNL d   1      31.432  17.180 -25.097  0.00  0.00    -0.056 SA
ENDROOT
BRANCH   1   3
ATOM      3  C   UNL d   1      30.802  16.664 -23.926  0.00  0.00     0.109 A 
ATOM      4  N   UNL d   1      30.021  16.943 -24.027  0.00  0.00    -0.243 NA
ATOM      5  C   UNL d   1      29.391  16.542 -23.669  0.00  0.00     0.081 A 
ATOM      6  C   UNL d   1      29.540  15.866 -23.212  0.00  0.00     0.018 A 
ATOM      7  C   UNL d   1      28.621  16.814 -23.767  0.00  0.00     0.019 A 
ATOM      8  C   UNL d   1      30.312  15.590 -23.112  0.00  0.00     0.003 A 
ATOM      9  C   UNL d   1      28.912  15.472 -22.858  0.00  0.00     0.002 A 
ATOM     10  C   UNL d   1      30.941  15.988 -23.468  0.00  0.00     0.021 A 
ATOM     11  C   UNL d   1      28.143  15.739 -22.953  0.00  0.00     0.000 A 
ATOM     12  C   UNL d   1      27.998  16.410 -23.407  0.00  0.00     0.002 A 
ENDBRANCH   1   3
BRANCH   1  13
ATOM     13  N   UNL d   1      32.055  17.340 -23.822  0.00  0.00    -0.233 NA
BRANCH  13  14
ATOM     14  C   UNL d   1      32.351  18.102 -23.948  0.00  0.00     0.082 A 
ATOM     15  C   UNL d   1      32.738  18.496 -23.326  0.00  0.00     0.018 A 
ATOM     16  C   UNL d   1      33.032  19.258 -23.461  0.00  0.00     0.002 A 
ATOM     17  C   UNL d   1      32.826  18.135 -22.593  0.00  0.00     0.002 C 
ATOM     18  C   UNL d   1      32.943  19.619 -24.194  0.00  0.00     0.000 A 
ATOM     19  C   UNL d   1      32.558  19.221 -24.808  0.00  0.00     0.002 A 
ATOM     20  C   UNL d   1      33.241  20.382 -24.320  0.00  0.00     0.000 C 
ATOM     21  C   UNL d   1      32.261  18.461 -24.684  0.00  0.00     0.019 A 
ENDBRANCH  13  14
ENDBRANCH   1  13
TORSDOF 3
ENDMDL
MODEL 5
REMARK VINA RESULT:      -1.5      0.696      4.475
REMARK  3 active torsions:
REMARK  status: ('A' for Active; 'I' for Inactive)
REMARK    1  A    between atoms: C_2  and  C_4 
REMARK    2  A    between atoms: N_3  and  C_2 
REMARK    3  A    between atoms: C_5  and  N_3 
ROOT
ATOM      1  C   UNL d   1      32.626  18.293 -23.900  0.00  0.00     0.153 C 
ATOM      2  S   UNL d   1      32.661  18.439 -24.709  0.00  0.00    -0.056 SA
ENDROOT
BRANCH   1   3
ATOM      3  C   UNL d   1      32.768  18.906 -23.366  0.00  0.00     0.109 A 
ATOM      4  N   UNL d   1      32.815  19.694 -23.640  0.00  0.00    -0.243 NA
ATOM      5  C   UNL d   1      32.957  20.308 -23.102  0.00  0.00     0.081 A 
ATOM      6  C   UNL d   1      33.052  20.137 -22.297  0.00  0.00     0.018 A 
ATOM      7  C   UNL d   1      33.004  21.085 -23.368  0.00  0.00     0.019 A 
ATOM      8  C   UNL d   1      33.006  19.357 -22.026  0.00  0.00     0.003 A 
ATOM      9  C   UNL d   1      33.194  20.749 -21.767  0.00  0.00     0.002 A 
ATOM     10  C   UNL d   1      32.864  18.744 -22.559  0.00  0.00     0.021 A 
ATOM     11  C   UNL d   1      33.241  21.524 -22.028  0.00  0.00     0.000 A 
ATOM     12  C   UNL d   1      33.147  21.692 -22.827  0.00  0.00     0.002 A 
ENDBRANCH   1   3
BRANCH   1  13
ATOM     13  N   UNL d   1      32.450  17.538 -23.620  0.00  0.00    -0.233 NA
BRANCH  13  14
ATOM     14  C   UNL d   1      31.824  17.112 -23.955  0.00  0.00     0.082 A 
ATOM     15  C   UNL d   1      31.786  16.289 -23.840  0.00  0.00     0.018 A 
ATOM     16  C   UNL d   1      31.157  15.870 -24.179  0.00  0.00     0.002 A 
ATOM     17  C   UNL d   1      32.361  15.901 -23.400  0.00  0.00     0.002 C 
ATOM     18  C   UNL d   1      30.582  16.258 -24.619  0.00  0.00     0.000 A 
ATOM     19  C   UNL d   1      30.626  17.077 -24.729  0.00  0.00     0.002 A 
ATOM     20  C   UNL d   1      29.956  15.831 -24.954  0.00  0.00     0.000 C 
ATOM     21  C   UNL d   1      31.249  17.504 -24.396  0.00  0.00     0.019 A 
ENDBRANCH  13  14
ENDBRANCH   1  13
TORSDOF 3
ENDMDL
MODEL 6
REMARK VINA RESULT:      -1.2      1.982      4.996
REMARK  3 active torsions:
REMARK  status: ('A' for Active; 'I' for Inactive)
REMARK    1  A    between atoms: C_2  and  C_4 
REMARK    2  A    between atoms: N_3  and  C_2 
REMARK    3  A    between atoms: C_5  and  N_3 
ROOT
ATOM      1  C   UNL d   1      30.570  16.476 -24.194  0.00  0.00     0.153 C 
ATOM      2  S   UNL d   1      30.200  16.517 -24.929  0.00  0.00    -0.056 SA
ENDROOT
BRANCH   1   3
ATOM      3  C   UNL d   1      31.238  16.936 -24.045  0.00  0.00     0.109 A 
ATOM      4  N   UNL d   1      31.193  17.768 -24.111  0.00  0.00    -0.243 NA
ATOM      5  C   UNL d   1      31.865  18.228 -23.961  0.00  0.00     0.081 A 
ATOM      6  C   UNL d   1      32.577  17.861 -23.746  0.00  0.00     0.018 A 
ATOM      7  C   UNL d   1      31.826  19.048 -24.025  0.00  0.00     0.019 A 
ATOM      8  C   UNL d   1      32.621  17.038 -23.680  0.00  0.00     0.003 A 
ATOM      9  C   UNL d   1      33.241  18.322 -23.597  0.00  0.00     0.002 A 
ATOM     10  C   UNL d   1      31.953  16.578 -23.830  0.00  0.00     0.021 A 
ATOM     11  C   UNL d   1      33.205  19.138 -23.660  0.00  0.00     0.000 A 
ATOM     12  C   UNL d   1      32.499  19.500 -23.873  0.00  0.00     0.002 A 
ENDBRANCH   1   3
BRANCH   1  13
ATOM     13  N   UNL d   1      30.275  15.977 -23.608  0.00  0.00    -0.233 NA
BRANCH  13  14
ATOM     14  C   UNL d   1      29.459  15.851 -23.548  0.00  0.00     0.082 A 
ATOM     15  C   UNL d   1      29.142  15.587 -22.826  0.00  0.00     0.018 A 
ATOM     16  C   UNL d   1      28.325  15.464 -22.773  0.00  0.00     0.002 A 
ATOM     17  C   UNL d   1      29.630  15.453 -22.179  0.00  0.00     0.002 C 
ATOM     18  C   UNL d   1      27.837  15.598 -23.421  0.00  0.00     0.000 A 
ATOM     19  C   UNL d   1      28.160  15.860 -24.136  0.00  0.00     0.002 A 
ATOM     20  C   UNL d   1      27.020  15.472 -23.359  0.00  0.00     0.000 C 
ATOM     21  C   UNL d   1      28.973  15.987 -24.199  0.00  0.00     0.019 A 
ENDBRANCH  13  14
ENDBRANCH   1  13
TORSDOF 3
ENDMDL
MODEL 7
REMARK VINA RESULT:      -0.9      2.511      3.921
REMARK  3 active torsions:
REMARK  status: ('A' for Active; 'I' for Inactive)
REMARK    1  A    between atoms: C_2  and  C_4 
REMARK    2  A    between atoms: N_3  and  C_2 
REMARK    3  A    between atoms: C_5  and  N_3 
ROOT
ATOM      1  C   UNL d   1      33.091  21.242 -20.452  0.00  0.00     0.153 C 
ATOM      2  S   UNL d   1      33.220  20.826 -19.754  0.00  0.00    -0.056 SA
ENDROOT
BRANCH   1   3
ATOM      3  C   UNL d   1      33.073  20.840 -21.172  0.00  0.00     0.109 A 
ATOM      4  N   UNL d   1      33.166  20.010 -21.188  0.00  0.00    -0.243 NA
ATOM      5  C   UNL d   1      33.148  19.608 -21.912  0.00  0.00     0.081 A 
ATOM      6  C   UNL d   1      33.037  20.032 -22.616  0.00  0.00     0.018 A 
ATOM      7  C   UNL d   1      33.240  18.790 -21.932  0.00  0.00     0.019 A 
ATOM      8  C   UNL d   1      32.944  20.853 -22.600  0.00  0.00     0.003 A 
ATOM      9  C   UNL d   1      33.019  19.629 -23.332  0.00  0.00     0.002 A 
ATOM     10  C   UNL d   1      32.962  21.255 -21.880  0.00  0.00     0.021 A 
ATOM     11  C   UNL d   1      33.110  18.815 -23.356  0.00  0.00     0.000 A 
ATOM     12  C   UNL d   1      33.220  18.396 -22.656  0.00  0.00     0.002 A 
ENDBRANCH   1   3
BRANCH   1  13
ATOM     13  N   UNL d   1      32.980  22.058 -20.434  0.00  0.00    -0.233 NA
BRANCH  13  14
ATOM     14  C   UNL d   1      33.036  22.465 -19.715  0.00  0.00     0.082 A 
ATOM     15  C   UNL d   1      32.942  23.291 -19.708  0.00  0.00     0.018 A 
ATOM     16  C   UNL d   1      32.999  23.691 -18.985  0.00  0.00     0.002 A 
ATOM     17  C   UNL d   1      32.794  23.702 -20.405  0.00  0.00     0.002 C 
ATOM     18  C   UNL d   1      33.147  23.281 -18.289  0.00  0.00     0.000 A 
ATOM     19  C   UNL d   1      33.240  22.459 -18.304  0.00  0.00     0.002 A 
ATOM     20  C   UNL d   1      33.203  23.689 -17.570  0.00  0.00     0.000 C 
ATOM     21  C   UNL d   1      33.184  22.051 -19.019  0.00  0.00     0.019 A 
ENDBRANCH  13  14
ENDBRANCH   1  13
TORSDOF 3
ENDMDL
MODEL 8
REMARK VINA RESULT:      -0.4      2.300      5.424
REMARK  3 active torsions:
REMARK  status: ('A' for Active; 'I' for Inactive)
REMARK    1  A    between atoms: C_2  and  C_4 
REMARK    2  A    between atoms: N_3  and  C_2 
REMARK    3  A    between atoms: C_5  and  N_3 
ROOT
ATOM      1  C   UNL d   1      32.569  21.036 -21.055  0.00  0.00     0.153 C 
ATOM      2  S   UNL d   1      31.813  20.881 -21.341  0.00  0.00    -0.056 SA
ENDROOT
BRANCH   1   3
ATOM      3  C   UNL d   1      32.703  21.702 -20.588  0.00  0.00     0.109 A 
ATOM      4  N   UNL d   1      32.834  21.617 -19.767  0.00  0.00    -0.243 NA
ATOM      5  C   UNL d   1      32.969  22.288 -19.300  0.00  0.00     0.081 A 
ATOM      6  C   UNL d   1      32.972  23.039 -19.650  0.00  0.00     0.018 A 
ATOM      7  C   UNL d   1      33.098  22.207 -18.491  0.00  0.00     0.019 A 
ATOM      8  C   UNL d   1      32.843  23.124 -20.462  0.00  0.00     0.003 A 
ATOM      9  C   UNL d   1      33.106  23.702 -19.183  0.00  0.00     0.002 A 
ATOM     10  C   UNL d   1      32.709  22.457 -20.929  0.00  0.00     0.021 A 
ATOM     11  C   UNL d   1      33.235  23.626 -18.378  0.00  0.00     0.000 A 
ATOM     12  C   UNL d   1      33.231  22.880 -18.032  0.00  0.00     0.002 A 
ENDBRANCH   1   3
BRANCH   1  13
ATOM     13  N   UNL d   1      33.192  20.527 -21.232  0.00  0.00    -0.233 NA
BRANCH  13  14
ATOM     14  C   UNL d   1      33.204  20.128 -21.958  0.00  0.00     0.082 A 
ATOM     15  C   UNL d   1      33.228  19.298 -21.964  0.00  0.00     0.018 A 
ATOM     16  C   UNL d   1      33.239  18.906 -22.694  0.00  0.00     0.002 A 
ATOM     17  C   UNL d   1      33.241  18.874 -21.260  0.00  0.00     0.002 C 
ATOM     18  C   UNL d   1      33.227  19.330 -23.398  0.00  0.00     0.000 A 
ATOM     19  C   UNL d   1      33.202  20.157 -23.384  0.00  0.00     0.002 A 
ATOM     20  C   UNL d   1      33.238  18.931 -24.124  0.00  0.00     0.000 C 
ATOM     21  C   UNL d   1      33.191  20.556 -22.662  0.00  0.00     0.019 A 
ENDBRANCH  13  14
ENDBRANCH   1  13
TORSDOF 3
ENDMDL
