MODEL 1
REMARK VINA RESULT:      -2.7      0.000      0.000
REMARK  1 active torsions:
REMARK  status: ('A' for Active; 'I' for Inactive)
REMARK    1  A    between atoms: C_6  and  C_3 
ROOT
ATOM      1  C   UNL d   1      30.287  16.031 -23.568  0.00  0.00     0.018 A 
ATOM      2  C   UNL d   1      29.856  16.461 -24.096  0.00  0.00     0.005 A 
ATOM      3  C   UNL d   1      29.915  15.561 -22.994  0.00  0.00     0.005 A 
ATOM      4  C   UNL d   1      28.656  15.972 -23.503  0.00  0.00     0.196 A 
ATOM      5  C   UNL d   1      29.028  16.443 -24.078  0.00  0.00     0.042 A 
ATOM      6  C   UNL d   1      29.089  15.545 -22.977  0.00  0.00     0.042 A 
ATOM      7  O   UNL d   1      27.834  15.957 -23.489  0.00  0.00    -0.287 OA
ENDROOT
BRANCH   1   8
ATOM      8  C   UNL d   1      31.108  16.046 -23.582  0.00  0.00     0.090 A 
ATOM      9  N   UNL d   1      31.526  16.737 -23.463  0.00  0.00    -0.219 NA
ATOM     10  C   UNL d   1      32.327  16.577 -23.509  0.00  0.00     0.215 A 
ATOM     11  S   UNL d   1      32.422  15.806 -23.654  0.00  0.00    -0.045 SA
ATOM     12  N   UNL d   1      32.968  17.104 -23.425  0.00  0.00    -0.120 N 
ATOM     13  C   UNL d   1      31.668  15.453 -23.704  0.00  0.00     0.058 A 
ENDBRANCH   1   8
TORSDOF 1
ENDMDL
MODEL 2
REMARK VINA RESULT:      -2.5      2.278      3.254
REMARK  1 active torsions:
REMARK  status: ('A' for Active; 'I' for Inactive)
REMARK    1  A    between atoms: C_6  and  C_3 
ROOT
ATOM      1  C   UNL d   1      30.706  16.623 -24.077  0.00  0.00     0.018 A 
ATOM      2  C   UNL d   1      31.285  16.316 -23.608  0.00  0.00     0.005 A 
ATOM      3  C   UNL d   1      30.796  17.365 -24.439  0.00  0.00     0.005 A 
ATOM      4  C   UNL d   1      32.077  17.479 -23.838  0.00  0.00     0.196 A 
ATOM      5  C   UNL d   1      31.987  16.737 -23.476  0.00  0.00     0.042 A 
ATOM      6  C   UNL d   1      31.496  17.782 -24.306  0.00  0.00     0.042 A 
ATOM      7  O   UNL d   1      32.774  17.893 -23.704  0.00  0.00    -0.287 OA
ENDROOT
BRANCH   1   8
ATOM      8  C   UNL d   1      30.008  16.210 -24.211  0.00  0.00     0.090 A 
ATOM      9  N   UNL d   1      29.384  16.244 -23.687  0.00  0.00    -0.219 NA
ATOM     10  C   UNL d   1      28.772  15.778 -23.969  0.00  0.00     0.215 A 
ATOM     11  S   UNL d   1      28.998  15.454 -24.654  0.00  0.00    -0.045 SA
ATOM     12  N   UNL d   1      28.024  15.640 -23.627  0.00  0.00    -0.120 N 
ATOM     13  C   UNL d   1      29.772  15.712 -24.825  0.00  0.00     0.058 A 
ENDBRANCH   1   8
TORSDOF 1
ENDMDL
MODEL 3
REMARK VINA RESULT:      -2.5      2.319      3.393
REMARK  1 active torsions:
REMARK  status: ('A' for Active; 'I' for Inactive)
REMARK    1  A    between atoms: C_6  and  C_3 
ROOT
ATOM      1  C   UNL d   1      32.034  17.415 -23.931  0.00  0.00     0.018 A 
ATOM      2  C   UNL d   1      32.004  17.764 -24.656  0.00  0.00     0.005 A 
ATOM      3  C   UNL d   1      32.468  17.755 -23.310  0.00  0.00     0.005 A 
ATOM      4  C   UNL d   1      32.842  18.813 -24.178  0.00  0.00     0.196 A 
ATOM      5  C   UNL d   1      32.407  18.474 -24.799  0.00  0.00     0.042 A 
ATOM      6  C   UNL d   1      32.869  18.461 -23.455  0.00  0.00     0.042 A 
ATOM      7  O   UNL d   1      33.240  19.517 -24.324  0.00  0.00    -0.287 OA
ENDROOT
BRANCH   1   8
ATOM      8  C   UNL d   1      31.635  16.712 -23.785  0.00  0.00     0.090 A 
ATOM      9  N   UNL d   1      30.822  16.684 -23.730  0.00  0.00    -0.219 NA
ATOM     10  C   UNL d   1      30.589  15.913 -23.583  0.00  0.00     0.215 A 
ATOM     11  S   UNL d   1      31.234  15.459 -23.543  0.00  0.00    -0.045 SA
ATOM     12  N   UNL d   1      29.817  15.613 -23.483  0.00  0.00    -0.120 N 
ATOM     13  C   UNL d   1      31.903  15.940 -23.668  0.00  0.00     0.058 A 
ENDBRANCH   1   8
TORSDOF 1
ENDMDL
MODEL 4
REMARK VINA RESULT:      -2.4      5.206      6.107
REMARK  1 active torsions:
REMARK  status: ('A' for Active; 'I' for Inactive)
REMARK    1  A    between atoms: C_6  and  C_3 
ROOT
ATOM      1  C   UNL d   1      32.880  21.105 -21.666  0.00  0.00     0.018 A 
ATOM      2  C   UNL d   1      32.459  21.134 -20.980  0.00  0.00     0.005 A 
ATOM      3  C   UNL d   1      33.196  21.793 -22.005  0.00  0.00     0.005 A 
ATOM      4  C   UNL d   1      32.648  22.546 -20.933  0.00  0.00     0.196 A 
ATOM      5  C   UNL d   1      32.332  21.856 -20.595  0.00  0.00     0.042 A 
ATOM      6  C   UNL d   1      33.068  22.512 -21.619  0.00  0.00     0.042 A 
ATOM      7  O   UNL d   1      32.520  23.261 -20.548  0.00  0.00    -0.287 OA
ENDROOT
BRANCH   1   8
ATOM      8  C   UNL d   1      33.008  20.390 -22.052  0.00  0.00     0.090 A 
ATOM      9  N   UNL d   1      33.035  20.342 -22.866  0.00  0.00    -0.219 NA
ATOM     10  C   UNL d   1      33.170  19.564 -23.084  0.00  0.00     0.215 A 
ATOM     11  S   UNL d   1      33.229  19.126 -22.428  0.00  0.00    -0.045 SA
ATOM     12  N   UNL d   1      33.241  19.244 -23.850  0.00  0.00    -0.120 N 
ATOM     13  C   UNL d   1      33.130  19.625 -21.768  0.00  0.00     0.058 A 
ENDBRANCH   1   8
TORSDOF 1
ENDMDL
MODEL 5
REMARK VINA RESULT:      -2.4      6.697      7.451
REMARK  1 active torsions:
REMARK  status: ('A' for Active; 'I' for Inactive)
REMARK    1  A    between atoms: C_6  and  C_3 
ROOT
ATOM      1  C   UNL d   1      32.887  21.860 -20.484  0.00  0.00     0.018 A 
ATOM      2  C   UNL d   1      32.549  21.912 -21.214  0.00  0.00     0.005 A 
ATOM      3  C   UNL d   1      33.241  21.156 -20.225  0.00  0.00     0.005 A 
ATOM      4  C   UNL d   1      32.900  20.553 -21.464  0.00  0.00     0.196 A 
ATOM      5  C   UNL d   1      32.546  21.259 -21.724  0.00  0.00     0.042 A 
ATOM      6  C   UNL d   1      33.237  20.506 -20.735  0.00  0.00     0.042 A 
ATOM      7  O   UNL d   1      32.896  19.908 -21.973  0.00  0.00    -0.287 OA
ENDROOT
BRANCH   1   8
ATOM      8  C   UNL d   1      32.892  22.506 -19.975  0.00  0.00     0.090 A 
ATOM      9  N   UNL d   1      32.888  22.412 -19.165  0.00  0.00    -0.219 NA
ATOM     10  C   UNL d   1      32.894  23.149 -18.810  0.00  0.00     0.215 A 
ATOM     11  S   UNL d   1      32.902  23.701 -19.376  0.00  0.00    -0.045 SA
ATOM     12  N   UNL d   1      32.893  23.334 -17.997  0.00  0.00    -0.120 N 
ATOM     13  C   UNL d   1      32.901  23.319 -20.116  0.00  0.00     0.058 A 
ENDBRANCH   1   8
TORSDOF 1
ENDMDL
