MODEL 1
REMARK VINA RESULT:     109.8      0.000      0.000
REMARK  3 active torsions:
REMARK  status: ('A' for Active; 'I' for Inactive)
REMARK    1  A    between atoms: C_2  and  C_1 
REMARK    2  A    between atoms: C_13  and  C_8 
REMARK    3  A    between atoms: O_23  and  C_20 
ROOT
ATOM      1  C   UNL d   1      58.628  49.317  51.499  0.00  0.00     0.106 A 
ATOM      2  C   UNL d   1      58.032  49.370  50.896  0.00  0.00     0.304 A 
ATOM      3  C   UNL d   1      58.412  49.375  52.292  0.00  0.00     0.011 A 
ATOM      4  C   UNL d   1      57.638  49.482  52.492  0.00  0.00     0.023 A 
ATOM      5  O   UNL d   1      57.241  49.480  51.106  0.00  0.00    -0.273 OA
ATOM      6  C   UNL d   1      57.041  49.536  51.889  0.00  0.00     0.103 A 
ATOM      7  C   UNL d   1      57.422  49.540  53.285  0.00  0.00     0.002 A 
ATOM      8  O   UNL d   1      58.260  49.310  50.085  0.00  0.00    -0.259 OA
ATOM      9  C   UNL d   1      56.251  49.645  52.099  0.00  0.00     0.025 A 
ATOM     10  C   UNL d   1      56.632  49.650  53.500  0.00  0.00     0.000 A 
ATOM     11  C   UNL d   1      56.036  49.703  52.897  0.00  0.00     0.002 A 
ATOM     12  C   UNL d   1      58.019  49.485  53.856  0.00  0.00     0.000 A 
ATOM     13  C   UNL d   1      56.432  49.706  54.277  0.00  0.00     0.000 A 
ATOM     14  C   UNL d   1      57.802  49.544  54.654  0.00  0.00     0.000 A 
ATOM     15  C   UNL d   1      57.013  49.653  54.865  0.00  0.00     0.000 A 
ENDROOT
BRANCH   1  16
ATOM     16  C   UNL d   1      59.418  49.207  51.283  0.00  0.00     0.210 A 
ATOM     17  O   UNL d   1      59.662  48.505  50.938  0.00  0.00    -0.268 OA
ATOM     18  C   UNL d   1      60.463  48.556  50.786  0.00  0.00     0.204 A 
ATOM     19  N   UNL d   1      60.700  49.287  51.041  0.00  0.00    -0.121 NA
ATOM     20  N   UNL d   1      60.060  49.687  51.346  0.00  0.00    -0.121 NA
BRANCH  18  21
ATOM     21  C   UNL d   1      61.017  48.036  50.450  0.00  0.00     0.043 A 
ATOM     22  C   UNL d   1      61.437  47.520  50.930  0.00  0.00     0.006 A 
ATOM     23  C   UNL d   1      61.978  47.009  50.622  0.00  0.00     0.024 A 
ATOM     24  C   UNL d   1      62.106  47.014  49.786  0.00  0.00     0.094 A 
ATOM     25  C   UNL d   1      61.684  47.533  49.308  0.00  0.00     0.024 A 
ATOM     26  C   UNL d   1      61.138  48.043  49.648  0.00  0.00     0.006 A 
BRANCH  24  27
ATOM     27  O   UNL d   1      62.652  46.507  49.431  0.00  0.00    -0.328 OA
ATOM     28  C   UNL d   1      62.446  45.739  49.250  0.00  0.00     0.181 C 
ENDBRANCH  24  27
ENDBRANCH  18  21
ENDBRANCH   1  16
TORSDOF 3
ENDMDL
