MODEL 1
REMARK VINA RESULT:      21.7      0.000      0.000
REMARK  1 active torsions:
REMARK  status: ('A' for Active; 'I' for Inactive)
REMARK    1  A    between atoms: C_5  and  N_1 
ROOT
ATOM      1  N   UNL d   1      46.183 -18.116  43.577  0.00  0.00    -0.226 N 
ATOM      2  C   UNL d   1      46.184 -18.198  42.758  0.00  0.00     0.359 A 
ATOM      3  C   UNL d   1      46.337 -18.773  44.058  0.00  0.00     0.273 A 
ATOM      4  N   UNL d   1      46.337 -18.933  42.413  0.00  0.00    -0.153 NA
ATOM      5  C   UNL d   1      46.491 -19.590  42.894  0.00  0.00     0.288 A 
ATOM      6  C   UNL d   1      46.491 -19.509  43.718  0.00  0.00     0.124 A 
ATOM      7  O   UNL d   1      46.032 -17.551  42.274  0.00  0.00    -0.244 OA
ATOM      8  O   UNL d   1      46.338 -18.698  44.876  0.00  0.00    -0.266 OA
ATOM      9  O   UNL d   1      46.645 -20.324  42.558  0.00  0.00    -0.265 OA
ENDROOT
BRANCH   1  10
ATOM     10  C   UNL d   1      46.031 -17.386  43.915  0.00  0.00     0.072 A 
ATOM     11  C   UNL d   1      46.303 -16.691  43.537  0.00  0.00     0.029 A 
ATOM     12  C   UNL d   1      46.151 -15.960  43.874  0.00  0.00     0.059 A 
ATOM     13 CL   UNL d   1      46.423 -15.278  43.496  0.00  0.00    -0.082 Cl
ATOM     14  C   UNL d   1      45.734 -15.904  44.579  0.00  0.00     0.011 A 
ATOM     15  C   UNL d   1      45.466 -16.595  44.951  0.00  0.00     0.002 A 
ATOM     16  C   UNL d   1      45.580 -15.170  44.921  0.00  0.00     0.001 C 
ATOM     17  C   UNL d   1      45.617 -17.338  44.612  0.00  0.00     0.018 A 
ENDBRANCH   1  10
TORSDOF 1
ENDMDL
MODEL 2
REMARK VINA RESULT:      23.3      1.930      3.079
REMARK  1 active torsions:
REMARK  status: ('A' for Active; 'I' for Inactive)
REMARK    1  A    between atoms: C_5  and  N_1 
ROOT
ATOM      1  N   UNL d   1      46.186 -18.838  42.672  0.00  0.00    -0.226 N 
ATOM      2  C   UNL d   1      46.070 -18.363  43.333  0.00  0.00     0.359 A 
ATOM      3  C   UNL d   1      46.458 -19.616  42.763  0.00  0.00     0.273 A 
ATOM      4  N   UNL d   1      46.222 -18.659  44.090  0.00  0.00    -0.153 NA
ATOM      5  C   UNL d   1      46.493 -19.437  44.181  0.00  0.00     0.288 A 
ATOM      6  C   UNL d   1      46.611 -19.916  43.516  0.00  0.00     0.124 A 
ATOM      7  O   UNL d   1      45.801 -17.592  43.250  0.00  0.00    -0.244 OA
ATOM      8  O   UNL d   1      46.576 -20.095  42.106  0.00  0.00    -0.266 OA
ATOM      9  O   UNL d   1      46.647 -19.737  44.931  0.00  0.00    -0.265 OA
ENDROOT
BRANCH   1  10
ATOM     10  C   UNL d   1      46.034 -18.542  41.923  0.00  0.00     0.072 A 
ATOM     11  C   UNL d   1      45.245 -18.384  41.694  0.00  0.00     0.029 A 
ATOM     12  C   UNL d   1      45.092 -18.088  40.946  0.00  0.00     0.059 A 
ATOM     13 CL   UNL d   1      44.311 -17.934  40.727  0.00  0.00    -0.082 Cl
ATOM     14  C   UNL d   1      45.706 -17.944  40.420  0.00  0.00     0.011 A 
ATOM     15  C   UNL d   1      46.486 -18.102  40.650  0.00  0.00     0.002 A 
ATOM     16  C   UNL d   1      45.554 -17.646  39.666  0.00  0.00     0.001 C 
ATOM     17  C   UNL d   1      46.646 -18.403  41.408  0.00  0.00     0.018 A 
ENDBRANCH   1  10
TORSDOF 1
ENDMDL
