MODEL 1
REMARK VINA RESULT:      -8.7      0.000      0.000
REMARK  3 active torsions:
REMARK  status: ('A' for Active; 'I' for Inactive)
REMARK    1  A    between atoms: C_8  and  C_6 
REMARK    2  A    between atoms: C_9  and  C_8 
REMARK       I    between atoms: N_10  and  C_9 
REMARK    3  A    between atoms: C_14  and  N_10 
ROOT
ATOM      1  N   UNL d   1     -47.715  11.465  23.407  0.00  0.00    -0.207 NA
ATOM      2  N   UNL d   1     -47.685  12.914  22.564  0.00  0.00    -0.240 NA
ATOM      3  C   UNL d   1     -48.307  11.953  23.137  0.00  0.00     0.297 A 
ATOM      4  C   UNL d   1     -46.897  11.542  23.343  0.00  0.00     0.086 A 
ATOM      5  C   UNL d   1     -46.878  12.785  22.620  0.00  0.00     0.083 A 
ATOM      6  C   UNL d   1     -48.294  12.443  22.852  0.00  0.00     0.144 A 
ATOM      7  C   UNL d   1     -46.470  12.158  22.975  0.00  0.00     0.035 A 
ATOM      8  O   UNL d   1     -49.072  11.702  23.301  0.00  0.00    -0.264 OA
ATOM      9  C   UNL d   1     -45.645  12.132  22.971  0.00  0.00     0.003 A 
ATOM     10  C   UNL d   1     -46.456  13.394  22.256  0.00  0.00     0.019 A 
ATOM     11  C   UNL d   1     -46.493  10.915  23.698  0.00  0.00     0.019 A 
ATOM     12  C   UNL d   1     -45.668  10.896  23.689  0.00  0.00     0.002 A 
ATOM     13  C   UNL d   1     -45.618  13.374  22.248  0.00  0.00     0.002 A 
ATOM     14  C   UNL d   1     -45.246  11.504  23.326  0.00  0.00     0.000 A 
ATOM     15  C   UNL d   1     -45.219  12.747  22.603  0.00  0.00     0.000 A 
ENDROOT
BRANCH   6  16
ATOM     16  C   UNL d   1     -49.043  12.746  22.694  0.00  0.00     0.086 C 
BRANCH  16  17
ATOM     17  C   UNL d   1     -49.346  12.699  21.920  0.00  0.00     0.281 C 
ATOM     18  N   UNL d   1     -49.913  13.245  21.667  0.00  0.00    -0.208 NA
ATOM     19  O   UNL d   1     -49.084  12.110  21.405  0.00  0.00    -0.265 OA
BRANCH  18  20
ATOM     20  C   UNL d   1     -50.179  13.836  22.179  0.00  0.00     0.085 A 
ATOM     21  C   UNL d   1     -50.793  13.681  22.705  0.00  0.00     0.019 A 
ATOM     22  C   UNL d   1     -51.056  14.272  23.214  0.00  0.00     0.002 A 
ATOM     23  C   UNL d   1     -50.705  15.018  23.198  0.00  0.00     0.000 A 
ATOM     24  C   UNL d   1     -50.086  15.171  22.666  0.00  0.00     0.002 A 
ATOM     25  C   UNL d   1     -50.962  15.598  23.697  0.00  0.00     0.000 C 
ATOM     26  C   UNL d   1     -49.827  14.577  22.159  0.00  0.00     0.019 A 
ENDBRANCH  18  20
ENDBRANCH  16  17
ENDBRANCH   6  16
TORSDOF 3
ENDMDL
MODEL 2
REMARK VINA RESULT:      -8.0      8.353     10.240
REMARK  3 active torsions:
REMARK  status: ('A' for Active; 'I' for Inactive)
REMARK    1  A    between atoms: C_8  and  C_6 
REMARK    2  A    between atoms: C_9  and  C_8 
REMARK       I    between atoms: N_10  and  C_9 
REMARK    3  A    between atoms: C_14  and  N_10 
ROOT
ATOM      1  N   UNL d   1     -39.316  15.199  17.138  0.00  0.00    -0.207 NA
ATOM      2  N   UNL d   1     -39.365  13.937  18.240  0.00  0.00    -0.240 NA
ATOM      3  C   UNL d   1     -39.668  15.124  17.866  0.00  0.00     0.297 A 
ATOM      4  C   UNL d   1     -38.863  14.659  16.711  0.00  0.00     0.086 A 
ATOM      5  C   UNL d   1     -38.909  13.579  17.661  0.00  0.00     0.083 A 
ATOM      6  C   UNL d   1     -39.683  14.695  18.237  0.00  0.00     0.144 A 
ATOM      7  C   UNL d   1     -38.653  13.882  16.934  0.00  0.00     0.035 A 
ATOM      8  O   UNL d   1     -40.084  15.783  18.126  0.00  0.00    -0.264 OA
ATOM      9  C   UNL d   1     -38.191  13.426  16.423  0.00  0.00     0.003 A 
ATOM     10  C   UNL d   1     -38.701  12.812  17.881  0.00  0.00     0.019 A 
ATOM     11  C   UNL d   1     -38.609  14.963  15.986  0.00  0.00     0.019 A 
ATOM     12  C   UNL d   1     -38.147  14.501  15.482  0.00  0.00     0.002 A 
ATOM     13  C   UNL d   1     -38.233  12.343  17.368  0.00  0.00     0.002 A 
ATOM     14  C   UNL d   1     -37.940  13.733  15.702  0.00  0.00     0.000 A 
ATOM     15  C   UNL d   1     -37.981  12.650  16.646  0.00  0.00     0.000 A 
ENDROOT
BRANCH   6  16
ATOM     16  C   UNL d   1     -40.115  14.869  18.916  0.00  0.00     0.086 C 
BRANCH  16  17
ATOM     17  C   UNL d   1     -40.777  14.403  19.109  0.00  0.00     0.281 C 
ATOM     18  N   UNL d   1     -41.022  14.342  19.896  0.00  0.00    -0.208 NA
ATOM     19  O   UNL d   1     -41.191  14.002  18.518  0.00  0.00    -0.265 OA
BRANCH  18  20
ATOM     20  C   UNL d   1     -40.611  14.742  20.492  0.00  0.00     0.085 A 
ATOM     21  C   UNL d   1     -40.819  15.514  20.689  0.00  0.00     0.019 A 
ATOM     22  C   UNL d   1     -40.408  15.910  21.282  0.00  0.00     0.002 A 
ATOM     23  C   UNL d   1     -39.791  15.534  21.678  0.00  0.00     0.000 A 
ATOM     24  C   UNL d   1     -39.584  14.756  21.477  0.00  0.00     0.002 A 
ATOM     25  C   UNL d   1     -39.387  15.922  22.261  0.00  0.00     0.000 C 
ATOM     26  C   UNL d   1     -39.997  14.364  20.883  0.00  0.00     0.019 A 
ENDBRANCH  18  20
ENDBRANCH  16  17
ENDBRANCH   6  16
TORSDOF 3
ENDMDL
MODEL 3
REMARK VINA RESULT:      -7.1      1.541      2.245
REMARK  3 active torsions:
REMARK  status: ('A' for Active; 'I' for Inactive)
REMARK    1  A    between atoms: C_8  and  C_6 
REMARK    2  A    between atoms: C_9  and  C_8 
REMARK       I    between atoms: N_10  and  C_9 
REMARK    3  A    between atoms: C_14  and  N_10 
ROOT
ATOM      1  N   UNL d   1     -45.879  11.261  23.577  0.00  0.00    -0.207 NA
ATOM      2  N   UNL d   1     -45.735  12.600  22.578  0.00  0.00    -0.240 NA
ATOM      3  C   UNL d   1     -46.404  11.844  23.366  0.00  0.00     0.297 A 
ATOM      4  C   UNL d   1     -45.094  11.151  23.353  0.00  0.00     0.086 A 
ATOM      5  C   UNL d   1     -44.976  12.301  22.497  0.00  0.00     0.083 A 
ATOM      6  C   UNL d   1     -46.352  12.297  23.028  0.00  0.00     0.144 A 
ATOM      7  C   UNL d   1     -44.637  11.628  22.842  0.00  0.00     0.035 A 
ATOM      8  O   UNL d   1     -47.153  11.781  23.698  0.00  0.00    -0.264 OA
ATOM      9  C   UNL d   1     -43.854  11.421  22.688  0.00  0.00     0.003 A 
ATOM     10  C   UNL d   1     -44.525  12.773  21.993  0.00  0.00     0.019 A 
ATOM     11  C   UNL d   1     -44.759  10.479  23.698  0.00  0.00     0.019 A 
ATOM     12  C   UNL d   1     -43.974  10.278  23.538  0.00  0.00     0.002 A 
ATOM     13  C   UNL d   1     -43.728  12.569  21.831  0.00  0.00     0.002 A 
ATOM     14  C   UNL d   1     -43.524  10.750  23.033  0.00  0.00     0.000 A 
ATOM     15  C   UNL d   1     -43.398  11.898  22.177  0.00  0.00     0.000 A 
ENDROOT
BRANCH   6  16
ATOM     16  C   UNL d   1     -47.042  12.744  22.977  0.00  0.00     0.086 C 
BRANCH  16  17
ATOM     17  C   UNL d   1     -47.025  13.546  23.197  0.00  0.00     0.281 C 
ATOM     18  N   UNL d   1     -47.662  14.038  23.010  0.00  0.00    -0.208 NA
ATOM     19  O   UNL d   1     -46.374  13.853  23.602  0.00  0.00    -0.265 OA
BRANCH  18  20
ATOM     20  C   UNL d   1     -48.316  13.736  22.606  0.00  0.00     0.085 A 
ATOM     21  C   UNL d   1     -48.982  13.491  23.023  0.00  0.00     0.019 A 
ATOM     22  C   UNL d   1     -49.632  13.190  22.617  0.00  0.00     0.002 A 
ATOM     23  C   UNL d   1     -49.616  13.134  21.795  0.00  0.00     0.000 A 
ATOM     24  C   UNL d   1     -48.943  13.382  21.378  0.00  0.00     0.002 A 
ATOM     25  C   UNL d   1     -50.253  12.838  21.396  0.00  0.00     0.000 C 
ATOM     26  C   UNL d   1     -48.296  13.682  21.787  0.00  0.00     0.019 A 
ENDBRANCH  18  20
ENDBRANCH  16  17
ENDBRANCH   6  16
TORSDOF 3
ENDMDL
MODEL 4
REMARK VINA RESULT:      -6.8      9.170     10.264
REMARK  3 active torsions:
REMARK  status: ('A' for Active; 'I' for Inactive)
REMARK    1  A    between atoms: C_8  and  C_6 
REMARK    2  A    between atoms: C_9  and  C_8 
REMARK       I    between atoms: N_10  and  C_9 
REMARK    3  A    between atoms: C_14  and  N_10 
ROOT
ATOM      1  N   UNL d   1     -38.562  13.515  20.314  0.00  0.00    -0.207 NA
ATOM      2  N   UNL d   1     -39.475  14.840  19.842  0.00  0.00    -0.240 NA
ATOM      3  C   UNL d   1     -38.823  13.767  19.587  0.00  0.00     0.297 A 
ATOM      4  C   UNL d   1     -38.673  13.847  21.060  0.00  0.00     0.086 A 
ATOM      5  C   UNL d   1     -39.456  14.982  20.649  0.00  0.00     0.083 A 
ATOM      6  C   UNL d   1     -39.132  14.217  19.430  0.00  0.00     0.144 A 
ATOM      7  C   UNL d   1     -39.093  14.544  21.251  0.00  0.00     0.035 A 
ATOM      8  O   UNL d   1     -38.607  13.294  18.951  0.00  0.00    -0.264 OA
ATOM      9  C   UNL d   1     -39.140  14.784  22.039  0.00  0.00     0.003 A 
ATOM     10  C   UNL d   1     -39.870  15.670  20.837  0.00  0.00     0.019 A 
ATOM     11  C   UNL d   1     -38.310  13.407  21.658  0.00  0.00     0.019 A 
ATOM     12  C   UNL d   1     -38.362  13.655  22.444  0.00  0.00     0.002 A 
ATOM     13  C   UNL d   1     -39.922  15.921  21.635  0.00  0.00     0.002 A 
ATOM     14  C   UNL d   1     -38.776  14.343  22.632  0.00  0.00     0.000 A 
ATOM     15  C   UNL d   1     -39.559  15.480  22.229  0.00  0.00     0.000 A 
ENDROOT
BRANCH   6  16
ATOM     16  C   UNL d   1     -39.265  14.251  18.618  0.00  0.00     0.086 C 
BRANCH  16  17
ATOM     17  C   UNL d   1     -40.037  14.145  18.327  0.00  0.00     0.281 C 
ATOM     18  N   UNL d   1     -40.226  14.396  17.562  0.00  0.00    -0.208 NA
ATOM     19  O   UNL d   1     -40.615  13.791  18.797  0.00  0.00    -0.265 OA
BRANCH  18  20
ATOM     20  C   UNL d   1     -39.651  14.752  17.087  0.00  0.00     0.085 A 
ATOM     21  C   UNL d   1     -39.563  15.571  17.089  0.00  0.00     0.019 A 
ATOM     22  C   UNL d   1     -38.989  15.922  16.614  0.00  0.00     0.002 A 
ATOM     23  C   UNL d   1     -38.503  15.455  16.139  0.00  0.00     0.000 A 
ATOM     24  C   UNL d   1     -38.595  14.630  16.140  0.00  0.00     0.002 A 
ATOM     25  C   UNL d   1     -37.940  15.799  15.673  0.00  0.00     0.000 C 
ATOM     26  C   UNL d   1     -39.169  14.284  16.615  0.00  0.00     0.019 A 
ENDBRANCH  18  20
ENDBRANCH  16  17
ENDBRANCH   6  16
TORSDOF 3
ENDMDL
MODEL 5
REMARK VINA RESULT:      -6.8      8.568     10.249
REMARK  3 active torsions:
REMARK  status: ('A' for Active; 'I' for Inactive)
REMARK    1  A    between atoms: C_8  and  C_6 
REMARK    2  A    between atoms: C_9  and  C_8 
REMARK       I    between atoms: N_10  and  C_9 
REMARK    3  A    between atoms: C_14  and  N_10 
ROOT
ATOM      1  N   UNL d   1     -38.568  13.516  18.056  0.00  0.00    -0.207 NA
ATOM      2  N   UNL d   1     -39.564  14.836  18.330  0.00  0.00    -0.240 NA
ATOM      3  C   UNL d   1     -38.972  13.768  18.715  0.00  0.00     0.297 A 
ATOM      4  C   UNL d   1     -38.527  13.846  17.303  0.00  0.00     0.086 A 
ATOM      5  C   UNL d   1     -39.382  14.978  17.543  0.00  0.00     0.083 A 
ATOM      6  C   UNL d   1     -39.309  14.216  18.804  0.00  0.00     0.144 A 
ATOM      7  C   UNL d   1     -38.902  14.540  17.029  0.00  0.00     0.035 A 
ATOM      8  O   UNL d   1     -38.887  13.297  19.382  0.00  0.00    -0.264 OA
ATOM      9  C   UNL d   1     -38.789  14.779  16.247  0.00  0.00     0.003 A 
ATOM     10  C   UNL d   1     -39.754  15.663  17.272  0.00  0.00     0.019 A 
ATOM     11  C   UNL d   1     -38.047  13.408  16.792  0.00  0.00     0.019 A 
ATOM     12  C   UNL d   1     -37.940  13.654  16.012  0.00  0.00     0.002 A 
ATOM     13  C   UNL d   1     -39.643  15.912  16.480  0.00  0.00     0.002 A 
ATOM     14  C   UNL d   1     -38.311  14.339  15.741  0.00  0.00     0.000 A 
ATOM     15  C   UNL d   1     -39.165  15.472  15.974  0.00  0.00     0.000 A 
ENDROOT
BRANCH   6  16
ATOM     16  C   UNL d   1     -39.604  14.251  19.572  0.00  0.00     0.086 C 
BRANCH  16  17
ATOM     17  C   UNL d   1     -40.423  14.178  19.698  0.00  0.00     0.281 C 
ATOM     18  N   UNL d   1     -40.755  14.441  20.408  0.00  0.00    -0.208 NA
ATOM     19  O   UNL d   1     -40.906  13.845  19.117  0.00  0.00    -0.265 OA
BRANCH  18  20
ATOM     20  C   UNL d   1     -40.277  14.775  20.992  0.00  0.00     0.085 A 
ATOM     21  C   UNL d   1     -40.172  15.591  21.022  0.00  0.00     0.019 A 
ATOM     22  C   UNL d   1     -39.694  15.922  21.606  0.00  0.00     0.002 A 
ATOM     23  C   UNL d   1     -39.322  15.437  22.159  0.00  0.00     0.000 A 
ATOM     24  C   UNL d   1     -39.430  14.614  22.125  0.00  0.00     0.002 A 
ATOM     25  C   UNL d   1     -38.854  15.761  22.732  0.00  0.00     0.000 C 
ATOM     26  C   UNL d   1     -39.908  14.289  21.541  0.00  0.00     0.019 A 
ENDBRANCH  18  20
ENDBRANCH  16  17
ENDBRANCH   6  16
TORSDOF 3
ENDMDL
MODEL 6
REMARK VINA RESULT:      -6.5      9.108     10.292
REMARK  3 active torsions:
REMARK  status: ('A' for Active; 'I' for Inactive)
REMARK    1  A    between atoms: C_8  and  C_6 
REMARK    2  A    between atoms: C_9  and  C_8 
REMARK       I    between atoms: N_10  and  C_9 
REMARK    3  A    between atoms: C_14  and  N_10 
ROOT
ATOM      1  N   UNL d   1     -40.362  15.612  19.177  0.00  0.00    -0.207 NA
ATOM      2  N   UNL d   1     -39.115  14.504  19.341  0.00  0.00    -0.240 NA
ATOM      3  C   UNL d   1     -39.885  15.416  19.805  0.00  0.00     0.297 A 
ATOM      4  C   UNL d   1     -40.375  15.314  18.409  0.00  0.00     0.086 A 
ATOM      5  C   UNL d   1     -39.304  14.365  18.555  0.00  0.00     0.083 A 
ATOM      6  C   UNL d   1     -39.463  15.040  19.857  0.00  0.00     0.144 A 
ATOM      7  C   UNL d   1     -39.884  14.721  18.084  0.00  0.00     0.035 A 
ATOM      8  O   UNL d   1     -40.028  15.831  20.499  0.00  0.00    -0.264 OA
ATOM      9  C   UNL d   1     -39.986  14.499  17.296  0.00  0.00     0.003 A 
ATOM     10  C   UNL d   1     -38.819  13.779  18.235  0.00  0.00     0.019 A 
ATOM     11  C   UNL d   1     -40.954  15.672  17.941  0.00  0.00     0.019 A 
ATOM     12  C   UNL d   1     -41.050  15.444  17.154  0.00  0.00     0.002 A 
ATOM     13  C   UNL d   1     -38.917  13.549  17.434  0.00  0.00     0.002 A 
ATOM     14  C   UNL d   1     -40.565  14.858  16.833  0.00  0.00     0.000 A 
ATOM     15  C   UNL d   1     -39.496  13.907  16.972  0.00  0.00     0.000 A 
ENDROOT
BRANCH   6  16
ATOM     16  C   UNL d   1     -39.130  15.030  20.610  0.00  0.00     0.086 C 
BRANCH  16  17
ATOM     17  C   UNL d   1     -38.384  15.378  20.731  0.00  0.00     0.281 C 
ATOM     18  N   UNL d   1     -37.940  15.179  21.399  0.00  0.00    -0.208 NA
ATOM     19  O   UNL d   1     -38.085  15.922  20.186  0.00  0.00    -0.265 OA
BRANCH  18  20
ATOM     20  C   UNL d   1     -38.234  14.635  21.947  0.00  0.00     0.085 A 
ATOM     21  C   UNL d   1     -38.073  13.833  21.859  0.00  0.00     0.019 A 
ATOM     22  C   UNL d   1     -38.368  13.293  22.407  0.00  0.00     0.002 A 
ATOM     23  C   UNL d   1     -38.823  13.556  23.041  0.00  0.00     0.000 A 
ATOM     24  C   UNL d   1     -38.984  14.366  23.127  0.00  0.00     0.002 A 
ATOM     25  C   UNL d   1     -39.113  13.027  23.579  0.00  0.00     0.000 C 
ATOM     26  C   UNL d   1     -38.687  14.901  22.577  0.00  0.00     0.019 A 
ENDBRANCH  18  20
ENDBRANCH  16  17
ENDBRANCH   6  16
TORSDOF 3
ENDMDL
MODEL 7
REMARK VINA RESULT:      -6.5      1.624      4.558
REMARK  3 active torsions:
REMARK  status: ('A' for Active; 'I' for Inactive)
REMARK    1  A    between atoms: C_8  and  C_6 
REMARK    2  A    between atoms: C_9  and  C_8 
REMARK       I    between atoms: N_10  and  C_9 
REMARK    3  A    between atoms: C_14  and  N_10 
ROOT
ATOM      1  N   UNL d   1     -49.017  13.729  21.594  0.00  0.00    -0.207 NA
ATOM      2  N   UNL d   1     -48.226  12.880  22.804  0.00  0.00    -0.240 NA
ATOM      3  C   UNL d   1     -48.247  13.736  21.852  0.00  0.00     0.297 A 
ATOM      4  C   UNL d   1     -49.660  13.286  21.861  0.00  0.00     0.086 A 
ATOM      5  C   UNL d   1     -48.975  12.561  22.898  0.00  0.00     0.083 A 
ATOM      6  C   UNL d   1     -47.982  13.448  22.263  0.00  0.00     0.144 A 
ATOM      7  C   UNL d   1     -49.671  12.724  22.478  0.00  0.00     0.035 A 
ATOM      8  O   UNL d   1     -47.747  14.253  21.455  0.00  0.00    -0.264 OA
ATOM      9  C   UNL d   1     -50.377  12.338  22.660  0.00  0.00     0.003 A 
ATOM     10  C   UNL d   1     -48.986  12.005  23.507  0.00  0.00     0.019 A 
ATOM     11  C   UNL d   1     -50.352  13.451  21.440  0.00  0.00     0.019 A 
ATOM     12  C   UNL d   1     -51.054  13.060  21.629  0.00  0.00     0.002 A 
ATOM     13  C   UNL d   1     -49.700  11.609  23.698  0.00  0.00     0.002 A 
ATOM     14  C   UNL d   1     -51.064  12.504  22.238  0.00  0.00     0.000 A 
ATOM     15  C   UNL d   1     -50.387  11.776  23.276  0.00  0.00     0.000 A 
ENDROOT
BRANCH   6  16
ATOM     16  C   UNL d   1     -47.183  13.638  22.329  0.00  0.00     0.086 C 
BRANCH  16  17
ATOM     17  C   UNL d   1     -46.924  14.089  22.978  0.00  0.00     0.281 C 
ATOM     18  N   UNL d   1     -46.129  14.065  23.205  0.00  0.00    -0.208 NA
ATOM     19  O   UNL d   1     -47.456  14.561  23.397  0.00  0.00    -0.265 OA
BRANCH  18  20
ATOM     20  C   UNL d   1     -45.592  13.594  22.789  0.00  0.00     0.085 A 
ATOM     21  C   UNL d   1     -45.513  12.796  22.975  0.00  0.00     0.019 A 
ATOM     22  C   UNL d   1     -44.977  12.329  22.559  0.00  0.00     0.002 A 
ATOM     23  C   UNL d   1     -44.521  12.661  21.957  0.00  0.00     0.000 A 
ATOM     24  C   UNL d   1     -44.604  13.466  21.773  0.00  0.00     0.002 A 
ATOM     25  C   UNL d   1     -43.995  12.204  21.549  0.00  0.00     0.000 C 
ATOM     26  C   UNL d   1     -45.140  13.928  22.191  0.00  0.00     0.019 A 
ENDBRANCH  18  20
ENDBRANCH  16  17
ENDBRANCH   6  16
TORSDOF 3
ENDMDL
