MODEL 1
REMARK VINA RESULT:      -4.4      0.000      0.000
REMARK  8 active torsions:
REMARK  status: ('A' for Active; 'I' for Inactive)
REMARK    1  A    between atoms: C_2  and  N_1 
REMARK    2  A    between atoms: O_17  and  C_3 
REMARK    3  A    between atoms: O_18  and  C_4 
REMARK    4  A    between atoms: O_19  and  C_5 
REMARK    5  A    between atoms: O_21  and  C_6 
REMARK    6  A    between atoms: C_9  and  C_11 
REMARK    7  A    between atoms: C_12  and  C_9 
REMARK    8  A    between atoms: C_11  and  C_15 
ROOT
ATOM      1  C   UNL d   1      57.899   0.028  30.449  0.00  0.00     0.000 C 
ENDROOT
BRANCH   1   2
ATOM      2  C   UNL d   1      57.551  -0.556  30.917  0.00  0.00     0.000 C 
BRANCH   2   3
ATOM      3  C   UNL d   1      57.095  -0.341  31.577  0.00  0.00     0.002 A 
ATOM      4  C   UNL d   1      56.736  -0.918  32.024  0.00  0.00     0.026 A 
ATOM      5  C   UNL d   1      56.283  -0.709  32.679  0.00  0.00     0.149 A 
ATOM      6  C   UNL d   1      56.191   0.087  32.883  0.00  0.00     0.116 A 
ATOM      7  C   UNL d   1      56.557   0.669  32.427  0.00  0.00     0.026 A 
ATOM      8  C   UNL d   1      57.011   0.461  31.772  0.00  0.00     0.002 A 
BRANCH   5   9
ATOM      9  N   UNL d   1      55.919  -1.294  33.133  0.00  0.00    -0.112 N 
ATOM     10  O   UNL d   1      56.377  -1.794  33.607  0.00  0.00    -0.532 OA
ATOM     11  O   UNL d   1      55.096  -1.387  33.118  0.00  0.00    -0.532 OA
ENDBRANCH   5   9
BRANCH   6  12
ATOM     12  O   UNL d   1      55.737   0.304  33.540  0.00  0.00    -0.326 OA
ATOM     13  C   UNL d   1      55.008   0.681  33.432  0.00  0.00     0.181 C 
ENDBRANCH   6  12
ENDBRANCH   2   3
ENDBRANCH   1   2
BRANCH   1  14
ATOM     14  C   UNL d   1      58.534  -0.168  29.955  0.00  0.00     0.004 A 
ATOM     15  C   UNL d   1      59.220   0.289  29.966  0.00  0.00     0.026 A 
ATOM     16  C   UNL d   1      59.855   0.090  29.469  0.00  0.00     0.118 A 
ATOM     17  C   UNL d   1      59.801  -0.561  28.968  0.00  0.00     0.138 A 
ATOM     18  C   UNL d   1      59.115  -1.018  28.958  0.00  0.00     0.118 A 
ATOM     19  C   UNL d   1      58.482  -0.825  29.448  0.00  0.00     0.026 A 
BRANCH  16  20
ATOM     20  O   UNL d   1      60.542   0.547  29.480  0.00  0.00    -0.326 OA
ATOM     21  C   UNL d   1      60.943   0.674  30.188  0.00  0.00     0.181 C 
ENDBRANCH  16  20
BRANCH  17  22
ATOM     22  O   UNL d   1      60.433  -0.755  28.477  0.00  0.00    -0.324 OA
ATOM     23  C   UNL d   1      60.834  -1.465  28.586  0.00  0.00     0.182 C 
ENDBRANCH  17  22
BRANCH  18  24
ATOM     24  O   UNL d   1      59.060  -1.669  28.456  0.00  0.00    -0.326 OA
ATOM     25  C   UNL d   1      58.682  -2.354  28.714  0.00  0.00     0.181 C 
ENDBRANCH  18  24
ENDBRANCH   1  14
TORSDOF 8
ENDMDL
MODEL 2
REMARK VINA RESULT:      -3.8      0.587      1.625
REMARK  8 active torsions:
REMARK  status: ('A' for Active; 'I' for Inactive)
REMARK    1  A    between atoms: C_2  and  N_1 
REMARK    2  A    between atoms: O_17  and  C_3 
REMARK    3  A    between atoms: O_18  and  C_4 
REMARK    4  A    between atoms: O_19  and  C_5 
REMARK    5  A    between atoms: O_21  and  C_6 
REMARK    6  A    between atoms: C_9  and  C_11 
REMARK    7  A    between atoms: C_12  and  C_9 
REMARK    8  A    between atoms: C_11  and  C_15 
ROOT
ATOM      1  C   UNL d   1      57.766  -0.997  30.770  0.00  0.00     0.000 C 
ENDROOT
BRANCH   1   2
ATOM      2  C   UNL d   1      57.455  -0.255  30.953  0.00  0.00     0.000 C 
BRANCH   2   3
ATOM      3  C   UNL d   1      56.951  -0.165  31.606  0.00  0.00     0.002 A 
ATOM      4  C   UNL d   1      56.684  -0.823  32.003  0.00  0.00     0.026 A 
ATOM      5  C   UNL d   1      56.183  -0.738  32.651  0.00  0.00     0.149 A 
ATOM      6  C   UNL d   1      55.951   0.016  32.900  0.00  0.00     0.116 A 
ATOM      7  C   UNL d   1      56.224   0.680  32.494  0.00  0.00     0.026 A 
ATOM      8  C   UNL d   1      56.725   0.597  31.846  0.00  0.00     0.002 A 
BRANCH   5   9
ATOM      9  N   UNL d   1      55.912  -1.405  33.053  0.00  0.00    -0.112 N 
ATOM     10  O   UNL d   1      55.283  -1.846  32.745  0.00  0.00    -0.532 OA
ATOM     11  O   UNL d   1      56.264  -1.639  33.765  0.00  0.00    -0.532 OA
ENDBRANCH   5   9
BRANCH   6  12
ATOM     12  O   UNL d   1      55.448   0.108  33.550  0.00  0.00    -0.326 OA
ATOM     13  C   UNL d   1      54.802   0.624  33.503  0.00  0.00     0.181 C 
ENDBRANCH   6  12
ENDBRANCH   2   3
ENDBRANCH   1   2
BRANCH   1  14
ATOM     14  C   UNL d   1      58.353  -1.064  30.191  0.00  0.00     0.004 A 
ATOM     15  C   UNL d   1      58.343  -1.701  29.666  0.00  0.00     0.026 A 
ATOM     16  C   UNL d   1      58.933  -1.765  29.085  0.00  0.00     0.118 A 
ATOM     17  C   UNL d   1      59.526  -1.197  29.032  0.00  0.00     0.138 A 
ATOM     18  C   UNL d   1      59.535  -0.560  29.557  0.00  0.00     0.118 A 
ATOM     19  C   UNL d   1      58.953  -0.491  30.134  0.00  0.00     0.026 A 
BRANCH  16  20
ATOM     20  O   UNL d   1      58.924  -2.402  28.561  0.00  0.00    -0.326 OA
ATOM     21  C   UNL d   1      59.199  -3.140  28.802  0.00  0.00     0.181 C 
ENDBRANCH  16  20
BRANCH  17  22
ATOM     22  O   UNL d   1      60.109  -1.264  28.455  0.00  0.00    -0.324 OA
ATOM     23  C   UNL d   1      60.903  -1.263  28.672  0.00  0.00     0.182 C 
ENDBRANCH  17  22
BRANCH  18  24
ATOM     24  O   UNL d   1      60.129   0.009  29.504  0.00  0.00    -0.326 OA
ATOM     25  C   UNL d   1      60.010   0.682  29.044  0.00  0.00     0.181 C 
ENDBRANCH  18  24
ENDBRANCH   1  14
TORSDOF 8
ENDMDL
MODEL 3
REMARK VINA RESULT:      -3.5      1.477      5.167
REMARK  8 active torsions:
REMARK  status: ('A' for Active; 'I' for Inactive)
REMARK    1  A    between atoms: C_2  and  N_1 
REMARK    2  A    between atoms: O_17  and  C_3 
REMARK    3  A    between atoms: O_18  and  C_4 
REMARK    4  A    between atoms: O_19  and  C_5 
REMARK    5  A    between atoms: O_21  and  C_6 
REMARK    6  A    between atoms: C_9  and  C_11 
REMARK    7  A    between atoms: C_12  and  C_9 
REMARK    8  A    between atoms: C_11  and  C_15 
ROOT
ATOM      1  C   UNL d   1      57.622   0.459  31.162  0.00  0.00     0.000 C 
ENDROOT
BRANCH   1   2
ATOM      2  C   UNL d   1      57.650  -0.105  30.561  0.00  0.00     0.000 C 
BRANCH   2   3
ATOM      3  C   UNL d   1      58.290  -0.118  30.032  0.00  0.00     0.002 A 
ATOM      4  C   UNL d   1      58.635  -0.827  29.834  0.00  0.00     0.026 A 
ATOM      5  C   UNL d   1      59.270  -0.843  29.310  0.00  0.00     0.149 A 
ATOM      6  C   UNL d   1      59.557  -0.140  28.984  0.00  0.00     0.116 A 
ATOM      7  C   UNL d   1      59.204   0.577  29.188  0.00  0.00     0.026 A 
ATOM      8  C   UNL d   1      58.569   0.595  29.712  0.00  0.00     0.002 A 
BRANCH   5   9
ATOM      9  N   UNL d   1      59.621  -1.563  29.109  0.00  0.00    -0.112 N 
ATOM     10  O   UNL d   1      59.330  -1.999  28.469  0.00  0.00    -0.532 OA
ATOM     11  O   UNL d   1      60.263  -1.854  29.543  0.00  0.00    -0.532 OA
ENDBRANCH   5   9
BRANCH   6  12
ATOM     12  O   UNL d   1      60.195  -0.149  28.457  0.00  0.00    -0.326 OA
ATOM     13  C   UNL d   1      60.848   0.343  28.589  0.00  0.00     0.181 C 
ENDBRANCH   6  12
ENDBRANCH   2   3
ENDBRANCH   1   2
BRANCH   1  14
ATOM     14  C   UNL d   1      57.255   0.275  31.881  0.00  0.00     0.004 A 
ATOM     15  C   UNL d   1      56.583  -0.203  31.889  0.00  0.00     0.026 A 
ATOM     16  C   UNL d   1      56.216  -0.387  32.611  0.00  0.00     0.118 A 
ATOM     17  C   UNL d   1      56.521  -0.092  33.316  0.00  0.00     0.138 A 
ATOM     18  C   UNL d   1      57.193   0.386  33.308  0.00  0.00     0.118 A 
ATOM     19  C   UNL d   1      57.560   0.571  32.595  0.00  0.00     0.026 A 
BRANCH  16  20
ATOM     20  O   UNL d   1      55.544  -0.865  32.619  0.00  0.00    -0.326 OA
ATOM     21  C   UNL d   1      55.618  -1.678  32.730  0.00  0.00     0.181 C 
ENDBRANCH  16  20
BRANCH  17  22
ATOM     22  O   UNL d   1      56.154  -0.276  34.030  0.00  0.00    -0.324 OA
ATOM     23  C   UNL d   1      55.492   0.147  34.272  0.00  0.00     0.182 C 
ENDBRANCH  17  22
BRANCH  18  24
ATOM     24  O   UNL d   1      57.498   0.681  34.014  0.00  0.00    -0.326 OA
ATOM     25  C   UNL d   1      58.247   0.449  34.264  0.00  0.00     0.181 C 
ENDBRANCH  18  24
ENDBRANCH   1  14
TORSDOF 8
ENDMDL
MODEL 4
REMARK VINA RESULT:      -2.3      1.570      5.208
REMARK  8 active torsions:
REMARK  status: ('A' for Active; 'I' for Inactive)
REMARK    1  A    between atoms: C_2  and  N_1 
REMARK    2  A    between atoms: O_17  and  C_3 
REMARK    3  A    between atoms: O_18  and  C_4 
REMARK    4  A    between atoms: O_19  and  C_5 
REMARK    5  A    between atoms: O_21  and  C_6 
REMARK    6  A    between atoms: C_9  and  C_11 
REMARK    7  A    between atoms: C_12  and  C_9 
REMARK    8  A    between atoms: C_11  and  C_15 
ROOT
ATOM      1  C   UNL d   1      56.652   0.061  32.175  0.00  0.00     0.000 C 
ENDROOT
BRANCH   1   2
ATOM      2  C   UNL d   1      57.419   0.282  31.965  0.00  0.00     0.000 C 
BRANCH   2   3
ATOM      3  C   UNL d   1      57.719   0.082  31.217  0.00  0.00     0.002 A 
ATOM      4  C   UNL d   1      57.735  -0.696  30.984  0.00  0.00     0.026 A 
ATOM      5  C   UNL d   1      58.032  -0.898  30.242  0.00  0.00     0.149 A 
ATOM      6  C   UNL d   1      58.314  -0.310  29.735  0.00  0.00     0.116 A 
ATOM      7  C   UNL d   1      58.295   0.479  29.976  0.00  0.00     0.026 A 
ATOM      8  C   UNL d   1      57.999   0.682  30.717  0.00  0.00     0.002 A 
BRANCH   5   9
ATOM      9  N   UNL d   1      58.048  -1.688  30.005  0.00  0.00    -0.112 N 
ATOM     10  O   UNL d   1      57.349  -2.130  29.991  0.00  0.00    -0.532 OA
ATOM     11  O   UNL d   1      58.761  -2.046  29.781  0.00  0.00    -0.532 OA
ENDBRANCH   5   9
BRANCH   6  12
ATOM     12  O   UNL d   1      58.614  -0.505  28.988  0.00  0.00    -0.326 OA
ATOM     13  C   UNL d   1      59.320  -0.164  28.725  0.00  0.00     0.181 C 
ENDBRANCH   6  12
ENDBRANCH   2   3
ENDBRANCH   1   2
BRANCH   1  14
ATOM     14  C   UNL d   1      56.375   0.216  32.939  0.00  0.00     0.004 A 
ATOM     15  C   UNL d   1      56.911   0.327  33.556  0.00  0.00     0.026 A 
ATOM     16  C   UNL d   1      56.631   0.483  34.322  0.00  0.00     0.118 A 
ATOM     17  C   UNL d   1      55.822   0.526  34.466  0.00  0.00     0.138 A 
ATOM     18  C   UNL d   1      55.286   0.415  33.849  0.00  0.00     0.118 A 
ATOM     19  C   UNL d   1      55.559   0.260  33.088  0.00  0.00     0.026 A 
BRANCH  16  20
ATOM     20  O   UNL d   1      57.167   0.595  34.939  0.00  0.00    -0.326 OA
ATOM     21  C   UNL d   1      57.970   0.682  34.778  0.00  0.00     0.181 C 
ENDBRANCH  16  20
BRANCH  17  22
ATOM     22  O   UNL d   1      55.548   0.681  35.227  0.00  0.00    -0.324 OA
ATOM     23  C   UNL d   1      55.609   0.104  35.810  0.00  0.00     0.182 C 
ENDBRANCH  17  22
BRANCH  18  24
ATOM     24  O   UNL d   1      54.476   0.458  33.993  0.00  0.00    -0.326 OA
ATOM     25  C   UNL d   1      53.947   0.436  33.362  0.00  0.00     0.181 C 
ENDBRANCH  18  24
ENDBRANCH   1  14
TORSDOF 8
ENDMDL
