MODEL 1
REMARK VINA RESULT:      25.6      0.000      0.000
REMARK  2 active torsions:
REMARK  status: ('A' for Active; 'I' for Inactive)
REMARK    1  A    between atoms: C_5  and  C_1 
REMARK    2  A    between atoms: C_7  and  N_2 
ROOT
ATOM      1  C   UNL d   1      13.873  12.181  -1.260  0.00  0.00     0.129 A 
ATOM      2  N   UNL d   1      14.166  12.899  -1.564  0.00  0.00    -0.302 N 
ATOM      3  C   UNL d   1      13.502  11.781  -1.882  0.00  0.00     0.025 A 
ATOM      4  C   UNL d   1      13.975  12.938  -2.366  0.00  0.00     0.064 A 
ATOM      5  C   UNL d   1      13.563  12.243  -2.564  0.00  0.00     0.018 A 
ATOM      6  C   UNL d   1      14.120  13.511  -2.949  0.00  0.00     0.018 A 
ATOM      7  C   UNL d   1      13.299  12.127  -3.342  0.00  0.00     0.002 A 
ATOM      8  C   UNL d   1      13.857  13.393  -3.718  0.00  0.00     0.002 A 
ATOM      9  C   UNL d   1      13.448  12.704  -3.914  0.00  0.00     0.000 A 
ENDROOT
BRANCH   2  10
ATOM     10  C   UNL d   1      14.577  13.476  -1.137  0.00  0.00     0.064 A 
ATOM     11  C   UNL d   1      15.347  13.322  -0.891  0.00  0.00     0.018 A 
ATOM     12  C   UNL d   1      15.757  13.894  -0.466  0.00  0.00     0.002 A 
ATOM     13  C   UNL d   1      15.399  14.616  -0.289  0.00  0.00     0.000 A 
ATOM     14  C   UNL d   1      14.625  14.768  -0.538  0.00  0.00     0.002 A 
ATOM     15  C   UNL d   1      14.217  14.191  -0.964  0.00  0.00     0.018 A 
ENDBRANCH   2  10
BRANCH   1  16
ATOM     16  C   UNL d   1      13.941  11.919  -0.482  0.00  0.00     0.228 C 
ATOM     17  O   UNL d   1      14.684  11.782  -0.157  0.00  0.00    -0.643 OA
ATOM     18  O   UNL d   1      13.259  11.795  -0.028  0.00  0.00    -0.643 OA
ENDBRANCH   1  16
TORSDOF 2
ENDMDL
MODEL 2
REMARK VINA RESULT:      27.9      1.531      2.286
REMARK  2 active torsions:
REMARK  status: ('A' for Active; 'I' for Inactive)
REMARK    1  A    between atoms: C_5  and  C_1 
REMARK    2  A    between atoms: C_7  and  N_2 
ROOT
ATOM      1  C   UNL d   1      14.234  13.712  -2.668  0.00  0.00     0.129 A 
ATOM      2  N   UNL d   1      13.968  12.947  -2.470  0.00  0.00    -0.302 N 
ATOM      3  C   UNL d   1      13.968  13.876  -3.435  0.00  0.00     0.025 A 
ATOM      4  C   UNL d   1      13.543  12.646  -3.111  0.00  0.00     0.064 A 
ATOM      5  C   UNL d   1      13.543  13.224  -3.710  0.00  0.00     0.018 A 
ATOM      6  C   UNL d   1      13.154  11.924  -3.235  0.00  0.00     0.018 A 
ATOM      7  C   UNL d   1      13.154  13.073  -4.427  0.00  0.00     0.002 A 
ATOM      8  C   UNL d   1      12.770  11.779  -3.946  0.00  0.00     0.002 A 
ATOM      9  C   UNL d   1      12.770  12.351  -4.540  0.00  0.00     0.000 A 
ENDROOT
BRANCH   2  10
ATOM     10  C   UNL d   1      14.106  12.555  -1.755  0.00  0.00     0.064 A 
ATOM     11  C   UNL d   1      13.519  12.554  -1.178  0.00  0.00     0.018 A 
ATOM     12  C   UNL d   1      13.654  12.165  -0.467  0.00  0.00     0.002 A 
ATOM     13  C   UNL d   1      14.371  11.779  -0.333  0.00  0.00     0.000 A 
ATOM     14  C   UNL d   1      14.959  11.783  -0.916  0.00  0.00     0.002 A 
ATOM     15  C   UNL d   1      14.819  12.175  -1.628  0.00  0.00     0.018 A 
ENDBRANCH   2  10
BRANCH   1  16
ATOM     16  C   UNL d   1      14.679  14.211  -2.188  0.00  0.00     0.228 C 
ATOM     17  O   UNL d   1      15.419  13.972  -1.918  0.00  0.00    -0.643 OA
ATOM     18  O   UNL d   1      14.380  14.954  -1.977  0.00  0.00    -0.643 OA
ENDBRANCH   1  16
TORSDOF 2
ENDMDL
