MODEL 1
REMARK VINA RESULT:      -3.4      0.000      0.000
REMARK  7 active torsions:
REMARK  status: ('A' for Active; 'I' for Inactive)
REMARK    1  A    between atoms: C_11  and  C_3 
REMARK    2  A    between atoms: C_10  and  C_5 
REMARK    3  A    between atoms: O_22  and  C_13 
REMARK    4  A    between atoms: O_25  and  C_14 
REMARK    5  A    between atoms: O_24  and  C_15 
REMARK    6  A    between atoms: O_26  and  C_21 
REMARK    7  A    between atoms: C_30  and  O_26 
ROOT
ATOM      1  N   UNL d   1     -38.475  12.869  18.024  0.00  0.00    -0.208 N 
ATOM      2  N   UNL d   1     -38.448  12.157  18.435  0.00  0.00    -0.162 NA
ATOM      3  C   UNL d   1     -38.646  13.637  18.272  0.00  0.00     0.184 A 
ATOM      4  C   UNL d   1     -38.290  12.724  17.234  0.00  0.00     0.088 A 
ATOM      5  C   UNL d   1     -38.244  11.563  17.893  0.00  0.00     0.126 A 
ATOM      6  O   UNL d   1     -38.632  14.257  17.731  0.00  0.00    -0.287 OA
ATOM      7  C   UNL d   1     -38.276  13.347  16.690  0.00  0.00     0.043 A 
ATOM      8  C   UNL d   1     -38.447  14.112  16.941  0.00  0.00     0.126 A 
ATOM      9  C   UNL d   1     -38.146  11.916  17.149  0.00  0.00     0.042 A 
ATOM     10  C   UNL d   1     -38.435  14.734  16.408  0.00  0.00     0.123 A 
ATOM     11  C   UNL d   1     -38.091  13.198  15.902  0.00  0.00     0.004 A 
ATOM     12  C   UNL d   1     -38.076  13.816  15.364  0.00  0.00     0.002 A 
ATOM     13  C   UNL d   1     -38.250  14.589  15.618  0.00  0.00     0.027 A 
ENDROOT
BRANCH   3  14
ATOM     14  C   UNL d   1     -38.832  13.782  19.062  0.00  0.00     0.045 A 
ATOM     15  C   UNL d   1     -39.553  14.145  19.261  0.00  0.00     0.030 A 
ATOM     16  C   UNL d   1     -39.738  14.290  20.051  0.00  0.00     0.118 A 
ATOM     17  C   UNL d   1     -39.214  14.079  20.646  0.00  0.00     0.138 A 
ATOM     18  C   UNL d   1     -38.489  13.715  20.447  0.00  0.00     0.118 A 
ATOM     19  C   UNL d   1     -38.304  13.569  19.657  0.00  0.00     0.030 A 
BRANCH  16  20
ATOM     20  O   UNL d   1     -40.453  14.650  20.244  0.00  0.00    -0.326 OA
ATOM     21  C   UNL d   1     -40.793  15.197  19.726  0.00  0.00     0.181 C 
ENDBRANCH  16  20
BRANCH  17  22
ATOM     22  O   UNL d   1     -39.400  14.225  21.437  0.00  0.00    -0.324 OA
ATOM     23  C   UNL d   1     -39.337  14.991  21.739  0.00  0.00     0.182 C 
ENDBRANCH  17  22
BRANCH  18  24
ATOM     24  O   UNL d   1     -37.958  13.500  21.040  0.00  0.00    -0.326 OA
ATOM     25  C   UNL d   1     -38.118  12.847  21.523  0.00  0.00     0.181 C 
ENDBRANCH  18  24
ENDBRANCH   3  14
BRANCH   5  26
ATOM     26  C   UNL d   1     -38.153  10.754  18.066  0.00  0.00     0.119 A 
ATOM     27  O   UNL d   1     -38.156  10.138  17.518  0.00  0.00    -0.306 OA
ATOM     28  C   UNL d   1     -38.047   9.429  17.944  0.00  0.00     0.100 A 
ATOM     29  C   UNL d   1     -38.016   8.677  17.613  0.00  0.00     0.027 C 
ATOM     30  C   UNL d   1     -37.978   9.621  18.748  0.00  0.00     0.027 A 
ATOM     31  C   UNL d   1     -38.041  10.432  18.837  0.00  0.00     0.028 A 
ENDBRANCH   5  26
BRANCH  10  32
ATOM     32  O   UNL d   1     -38.606  15.502  16.656  0.00  0.00    -0.303 OA
BRANCH  32  33
ATOM     33  C   UNL d   1     -39.328  15.854  16.459  0.00  0.00     0.123 C 
ATOM     34  C   UNL d   1     -39.922  15.922  17.022  0.00  0.00     0.029 C 
ENDBRANCH  32  33
ENDBRANCH  10  32
TORSDOF 7
ENDMDL
MODEL 2
REMARK VINA RESULT:      -2.7      8.364     10.466
REMARK  7 active torsions:
REMARK  status: ('A' for Active; 'I' for Inactive)
REMARK    1  A    between atoms: C_11  and  C_3 
REMARK    2  A    between atoms: C_10  and  C_5 
REMARK    3  A    between atoms: O_22  and  C_13 
REMARK    4  A    between atoms: O_25  and  C_14 
REMARK    5  A    between atoms: O_24  and  C_15 
REMARK    6  A    between atoms: O_26  and  C_21 
REMARK    7  A    between atoms: C_30  and  O_26 
ROOT
ATOM      1  N   UNL d   1     -47.482  12.194  23.207  0.00  0.00    -0.208 N 
ATOM      2  N   UNL d   1     -46.700  11.941  23.218  0.00  0.00    -0.162 NA
ATOM      3  C   UNL d   1     -47.816  12.928  23.032  0.00  0.00     0.184 A 
ATOM      4  C   UNL d   1     -47.967  11.561  23.418  0.00  0.00     0.088 A 
ATOM      5  C   UNL d   1     -46.700  11.139  23.437  0.00  0.00     0.126 A 
ATOM      6  O   UNL d   1     -48.632  13.028  23.066  0.00  0.00    -0.287 OA
ATOM      7  C   UNL d   1     -48.787  11.662  23.452  0.00  0.00     0.043 A 
ATOM      8  C   UNL d   1     -49.117  12.395  23.277  0.00  0.00     0.126 A 
ATOM      9  C   UNL d   1     -47.485  10.907  23.560  0.00  0.00     0.042 A 
ATOM     10  C   UNL d   1     -49.928  12.502  23.309  0.00  0.00     0.123 A 
ATOM     11  C   UNL d   1     -49.268  11.028  23.662  0.00  0.00     0.004 A 
ATOM     12  C   UNL d   1     -50.080  11.128  23.697  0.00  0.00     0.002 A 
ATOM     13  C   UNL d   1     -50.413  11.869  23.519  0.00  0.00     0.027 A 
ENDROOT
BRANCH   3  14
ATOM     14  C   UNL d   1     -47.331  13.561  22.822  0.00  0.00     0.045 A 
ATOM     15  C   UNL d   1     -46.513  13.446  22.730  0.00  0.00     0.030 A 
ATOM     16  C   UNL d   1     -46.028  14.079  22.520  0.00  0.00     0.118 A 
ATOM     17  C   UNL d   1     -46.348  14.826  22.400  0.00  0.00     0.138 A 
ATOM     18  C   UNL d   1     -47.170  14.941  22.491  0.00  0.00     0.118 A 
ATOM     19  C   UNL d   1     -47.655  14.308  22.702  0.00  0.00     0.030 A 
BRANCH  16  20
ATOM     20  O   UNL d   1     -45.218  13.962  22.431  0.00  0.00    -0.326 OA
ATOM     21  C   UNL d   1     -44.918  13.683  21.712  0.00  0.00     0.181 C 
ENDBRANCH  16  20
BRANCH  17  22
ATOM     22  O   UNL d   1     -45.862  15.459  22.189  0.00  0.00    -0.324 OA
ATOM     23  C   UNL d   1     -45.051  15.420  22.339  0.00  0.00     0.182 C 
ENDBRANCH  17  22
BRANCH  18  24
ATOM     24  O   UNL d   1     -47.498  15.688  22.372  0.00  0.00    -0.326 OA
ATOM     25  C   UNL d   1     -47.928  15.846  21.684  0.00  0.00     0.181 C 
ENDBRANCH  18  24
ENDBRANCH   3  14
BRANCH   5  26
ATOM     26  C   UNL d   1     -46.027  10.656  23.518  0.00  0.00     0.119 A 
ATOM     27  O   UNL d   1     -45.243  10.906  23.482  0.00  0.00    -0.306 OA
ATOM     28  C   UNL d   1     -44.764  10.233  23.593  0.00  0.00     0.100 A 
ATOM     29  C   UNL d   1     -43.941  10.231  23.597  0.00  0.00     0.027 C 
ATOM     30  C   UNL d   1     -45.262   9.578  23.696  0.00  0.00     0.027 A 
ATOM     31  C   UNL d   1     -46.041   9.824  23.653  0.00  0.00     0.028 A 
ENDBRANCH   5  26
BRANCH  10  32
ATOM     32  O   UNL d   1     -50.262  13.235  23.134  0.00  0.00    -0.303 OA
BRANCH  32  33
ATOM     33  C   UNL d   1     -50.894  13.525  23.582  0.00  0.00     0.123 C 
ATOM     34  C   UNL d   1     -51.062  14.330  23.587  0.00  0.00     0.029 C 
ENDBRANCH  32  33
ENDBRANCH  10  32
TORSDOF 7
ENDMDL
MODEL 3
REMARK VINA RESULT:      -1.8      7.846     10.056
REMARK  7 active torsions:
REMARK  status: ('A' for Active; 'I' for Inactive)
REMARK    1  A    between atoms: C_11  and  C_3 
REMARK    2  A    between atoms: C_10  and  C_5 
REMARK    3  A    between atoms: O_22  and  C_13 
REMARK    4  A    between atoms: O_25  and  C_14 
REMARK    5  A    between atoms: O_24  and  C_15 
REMARK    6  A    between atoms: O_26  and  C_21 
REMARK    7  A    between atoms: C_30  and  O_26 
ROOT
ATOM      1  N   UNL d   1     -46.965  12.051  23.073  0.00  0.00    -0.208 N 
ATOM      2  N   UNL d   1     -47.716  12.369  22.964  0.00  0.00    -0.162 NA
ATOM      3  C   UNL d   1     -46.216  12.394  23.035  0.00  0.00     0.184 A 
ATOM      4  C   UNL d   1     -47.042  11.249  23.248  0.00  0.00     0.088 A 
ATOM      5  C   UNL d   1     -48.266  11.756  23.072  0.00  0.00     0.126 A 
ATOM      6  O   UNL d   1     -45.546  11.935  23.172  0.00  0.00    -0.287 OA
ATOM      7  C   UNL d   1     -46.369  10.788  23.385  0.00  0.00     0.043 A 
ATOM      8  C   UNL d   1     -45.623  11.133  23.346  0.00  0.00     0.126 A 
ATOM      9  C   UNL d   1     -47.846  11.063  23.248  0.00  0.00     0.042 A 
ATOM     10  C   UNL d   1     -44.952  10.683  23.481  0.00  0.00     0.123 A 
ATOM     11  C   UNL d   1     -46.450   9.988  23.559  0.00  0.00     0.004 A 
ATOM     12  C   UNL d   1     -45.783   9.532  23.694  0.00  0.00     0.002 A 
ATOM     13  C   UNL d   1     -45.029   9.881  23.655  0.00  0.00     0.027 A 
ENDROOT
BRANCH   3  14
ATOM     14  C   UNL d   1     -46.139  13.196  22.861  0.00  0.00     0.045 A 
ATOM     15  C   UNL d   1     -46.734  13.730  23.086  0.00  0.00     0.030 A 
ATOM     16  C   UNL d   1     -46.657  14.532  22.912  0.00  0.00     0.118 A 
ATOM     17  C   UNL d   1     -45.994  14.809  22.515  0.00  0.00     0.138 A 
ATOM     18  C   UNL d   1     -45.396  14.273  22.288  0.00  0.00     0.118 A 
ATOM     19  C   UNL d   1     -45.473  13.470  22.463  0.00  0.00     0.030 A 
BRANCH  16  20
ATOM     20  O   UNL d   1     -47.249  15.058  23.137  0.00  0.00    -0.326 OA
ATOM     21  C   UNL d   1     -48.022  14.954  22.862  0.00  0.00     0.181 C 
ENDBRANCH  16  20
BRANCH  17  22
ATOM     22  O   UNL d   1     -45.918  15.612  22.341  0.00  0.00    -0.324 OA
ATOM     23  C   UNL d   1     -46.280  15.922  21.667  0.00  0.00     0.182 C 
ENDBRANCH  17  22
BRANCH  18  24
ATOM     24  O   UNL d   1     -44.727  14.544  21.889  0.00  0.00    -0.326 OA
ATOM     25  C   UNL d   1     -44.154  14.008  21.629  0.00  0.00     0.181 C 
ENDBRANCH  18  24
ENDBRANCH   3  14
BRANCH   5  26
ATOM     26  C   UNL d   1     -49.093  11.826  23.014  0.00  0.00     0.119 A 
ATOM     27  O   UNL d   1     -49.597  12.113  23.600  0.00  0.00    -0.306 OA
ATOM     28  C   UNL d   1     -50.372  12.080  23.296  0.00  0.00     0.100 A 
ATOM     29  C   UNL d   1     -51.050  12.315  23.698  0.00  0.00     0.027 C 
ATOM     30  C   UNL d   1     -50.333  11.773  22.526  0.00  0.00     0.027 A 
ATOM     31  C   UNL d   1     -49.553  11.612  22.341  0.00  0.00     0.028 A 
ENDBRANCH   5  26
BRANCH  10  32
ATOM     32  O   UNL d   1     -44.203  11.026  23.443  0.00  0.00    -0.303 OA
BRANCH  32  33
ATOM     33  C   UNL d   1     -43.537  10.560  23.288  0.00  0.00     0.123 C 
ATOM     34  C   UNL d   1     -42.884  10.886  22.910  0.00  0.00     0.029 C 
ENDBRANCH  32  33
ENDBRANCH  10  32
TORSDOF 7
ENDMDL
MODEL 4
REMARK VINA RESULT:      -1.1      8.171     10.044
REMARK  7 active torsions:
REMARK  status: ('A' for Active; 'I' for Inactive)
REMARK    1  A    between atoms: C_11  and  C_3 
REMARK    2  A    between atoms: C_10  and  C_5 
REMARK    3  A    between atoms: O_22  and  C_13 
REMARK    4  A    between atoms: O_25  and  C_14 
REMARK    5  A    between atoms: O_24  and  C_15 
REMARK    6  A    between atoms: O_26  and  C_21 
REMARK    7  A    between atoms: C_30  and  O_26 
ROOT
ATOM      1  N   UNL d   1     -46.763  12.714  22.907  0.00  0.00    -0.208 N 
ATOM      2  N   UNL d   1     -46.506  11.955  23.094  0.00  0.00    -0.162 NA
ATOM      3  C   UNL d   1     -47.520  13.024  22.803  0.00  0.00     0.184 A 
ATOM      4  C   UNL d   1     -46.103  13.201  22.822  0.00  0.00     0.088 A 
ATOM      5  C   UNL d   1     -45.677  11.972  23.125  0.00  0.00     0.126 A 
ATOM      6  O   UNL d   1     -47.616  13.820  22.614  0.00  0.00    -0.287 OA
ATOM      7  C   UNL d   1     -46.200  14.000  22.632  0.00  0.00     0.043 A 
ATOM      8  C   UNL d   1     -46.956  14.307  22.529  0.00  0.00     0.126 A 
ATOM      9  C   UNL d   1     -45.429  12.744  22.956  0.00  0.00     0.042 A 
ATOM     10  C   UNL d   1     -47.060  15.097  22.340  0.00  0.00     0.123 A 
ATOM     11  C   UNL d   1     -45.539  14.483  22.547  0.00  0.00     0.004 A 
ATOM     12  C   UNL d   1     -45.635  15.275  22.359  0.00  0.00     0.002 A 
ATOM     13  C   UNL d   1     -46.400  15.584  22.255  0.00  0.00     0.027 A 
ENDROOT
BRANCH   3  14
ATOM     14  C   UNL d   1     -48.180  12.537  22.889  0.00  0.00     0.045 A 
ATOM     15  C   UNL d   1     -48.876  12.836  23.229  0.00  0.00     0.030 A 
ATOM     16  C   UNL d   1     -49.536  12.349  23.315  0.00  0.00     0.118 A 
ATOM     17  C   UNL d   1     -49.511  11.567  23.065  0.00  0.00     0.138 A 
ATOM     18  C   UNL d   1     -48.811  11.267  22.723  0.00  0.00     0.118 A 
ATOM     19  C   UNL d   1     -48.151  11.754  22.637  0.00  0.00     0.030 A 
BRANCH  16  20
ATOM     20  O   UNL d   1     -50.224  12.648  23.653  0.00  0.00    -0.326 OA
ATOM     21  C   UNL d   1     -50.420  13.446  23.554  0.00  0.00     0.181 C 
ENDBRANCH  16  20
BRANCH  17  22
ATOM     22  O   UNL d   1     -50.171  11.080  23.151  0.00  0.00    -0.324 OA
ATOM     23  C   UNL d   1     -50.802  11.325  23.623  0.00  0.00     0.182 C 
ENDBRANCH  17  22
BRANCH  18  24
ATOM     24  O   UNL d   1     -48.778  10.483  22.469  0.00  0.00    -0.326 OA
ATOM     25  C   UNL d   1     -48.383  10.289  21.769  0.00  0.00     0.181 C 
ENDBRANCH  18  24
ENDBRANCH   3  14
BRANCH   5  26
ATOM     26  C   UNL d   1     -45.181  11.326  23.296  0.00  0.00     0.119 A 
ATOM     27  O   UNL d   1     -44.363  11.356  23.398  0.00  0.00    -0.306 OA
ATOM     28  C   UNL d   1     -44.107  10.579  23.559  0.00  0.00     0.100 A 
ATOM     29  C   UNL d   1     -43.327  10.356  23.698  0.00  0.00     0.027 C 
ATOM     30  C   UNL d   1     -44.771  10.082  23.554  0.00  0.00     0.027 A 
ATOM     31  C   UNL d   1     -45.438  10.529  23.394  0.00  0.00     0.028 A 
ENDBRANCH   5  26
BRANCH  10  32
ATOM     32  O   UNL d   1     -47.817  15.408  22.236  0.00  0.00    -0.303 OA
BRANCH  32  33
ATOM     33  C   UNL d   1     -48.008  15.823  21.547  0.00  0.00     0.123 C 
ATOM     34  C   UNL d   1     -48.793  15.912  21.322  0.00  0.00     0.029 C 
ENDBRANCH  32  33
ENDBRANCH  10  32
TORSDOF 7
ENDMDL
