MODEL 1
REMARK VINA RESULT:      -2.9      0.000      0.000
REMARK  3 active torsions:
REMARK  status: ('A' for Active; 'I' for Inactive)
REMARK    1  A    between atoms: C_2  and  C_1 
REMARK    2  A    between atoms: C_4  and  C_1 
REMARK    3  A    between atoms: C_3  and  C_2 
ROOT
ATOM      1  C   UNL d   1      30.586  16.900 -24.114  0.00  0.00     0.000 A 
ATOM      2  C   UNL d   1      29.960  16.435 -23.827  0.00  0.00     0.000 A 
ATOM      3  C   UNL d   1      29.226  16.508 -24.153  0.00  0.00     0.000 A 
ATOM      4  C   UNL d   1      29.711  17.511 -25.066  0.00  0.00     0.000 A 
ATOM      5  C   UNL d   1      30.462  17.436 -24.732  0.00  0.00     0.000 A 
ATOM      6  C   UNL d   1      30.091  15.912 -23.221  0.00  0.00     0.000 A 
ATOM      7  C   UNL d   1      29.085  17.049 -24.781  0.00  0.00     0.000 A 
ATOM      8  C   UNL d   1      28.590  16.061 -23.888  0.00  0.00     0.000 A 
ATOM      9  C   UNL d   1      29.468  15.452 -22.939  0.00  0.00     0.000 A 
ATOM     10  C   UNL d   1      28.717  15.527 -23.272  0.00  0.00     0.000 A 
ENDROOT
BRANCH   1  11
ATOM     11  C   UNL d   1      31.338  16.825 -23.781  0.00  0.00     0.006 C 
BRANCH  11  12
ATOM     12  C   UNL d   1      31.927  17.350 -23.970  0.00  0.00     0.070 C 
BRANCH  12  13
ATOM     13  C   UNL d   1      32.676  17.299 -23.601  0.00  0.00     0.211 C 
ATOM     14  O   UNL d   1      33.237  16.765 -23.858  0.00  0.00    -0.644 OA
ATOM     15  O   UNL d   1      32.866  17.791 -22.966  0.00  0.00    -0.644 OA
ENDBRANCH  12  13
ENDBRANCH  11  12
ENDBRANCH   1  11
TORSDOF 3
ENDMDL
MODEL 2
REMARK VINA RESULT:      -2.8      0.845      1.595
REMARK  3 active torsions:
REMARK  status: ('A' for Active; 'I' for Inactive)
REMARK    1  A    between atoms: C_2  and  C_1 
REMARK    2  A    between atoms: C_4  and  C_1 
REMARK    3  A    between atoms: C_3  and  C_2 
ROOT
ATOM      1  C   UNL d   1      30.876  16.737 -23.917  0.00  0.00     0.000 A 
ATOM      2  C   UNL d   1      30.047  16.717 -23.973  0.00  0.00     0.000 A 
ATOM      3  C   UNL d   1      29.640  16.093 -23.666  0.00  0.00     0.000 A 
ATOM      4  C   UNL d   1      30.870  15.481 -23.233  0.00  0.00     0.000 A 
ATOM      5  C   UNL d   1      31.286  16.120 -23.548  0.00  0.00     0.000 A 
ATOM      6  C   UNL d   1      29.653  17.326 -24.337  0.00  0.00     0.000 A 
ATOM      7  C   UNL d   1      30.044  15.458 -23.288  0.00  0.00     0.000 A 
ATOM      8  C   UNL d   1      28.821  16.048 -23.708  0.00  0.00     0.000 A 
ATOM      9  C   UNL d   1      28.831  17.303 -24.390  0.00  0.00     0.000 A 
ATOM     10  C   UNL d   1      28.415  16.664 -24.076  0.00  0.00     0.000 A 
ENDROOT
BRANCH   1  11
ATOM     11  C   UNL d   1      31.292  17.377 -24.232  0.00  0.00     0.006 C 
BRANCH  11  12
ATOM     12  C   UNL d   1      32.078  17.482 -24.060  0.00  0.00     0.070 C 
BRANCH  12  13
ATOM     13  C   UNL d   1      32.479  18.172 -24.309  0.00  0.00     0.211 C 
ATOM     14  O   UNL d   1      32.751  18.247 -25.075  0.00  0.00    -0.644 OA
ATOM     15  O   UNL d   1      32.609  18.796 -23.785  0.00  0.00    -0.644 OA
ENDBRANCH  12  13
ENDBRANCH  11  12
ENDBRANCH   1  11
TORSDOF 3
ENDMDL
MODEL 3
REMARK VINA RESULT:      -2.8      2.051      3.492
REMARK  3 active torsions:
REMARK  status: ('A' for Active; 'I' for Inactive)
REMARK    1  A    between atoms: C_2  and  C_1 
REMARK    2  A    between atoms: C_4  and  C_1 
REMARK    3  A    between atoms: C_3  and  C_2 
ROOT
ATOM      1  C   UNL d   1      30.574  16.222 -23.753  0.00  0.00     0.000 A 
ATOM      2  C   UNL d   1      31.111  16.772 -24.069  0.00  0.00     0.000 A 
ATOM      3  C   UNL d   1      31.903  16.663 -23.965  0.00  0.00     0.000 A 
ATOM      4  C   UNL d   1      31.657  15.452 -23.224  0.00  0.00     0.000 A 
ATOM      5  C   UNL d   1      30.847  15.564 -23.331  0.00  0.00     0.000 A 
ATOM      6  C   UNL d   1      30.834  17.414 -24.481  0.00  0.00     0.000 A 
ATOM      7  C   UNL d   1      32.194  15.999 -23.538  0.00  0.00     0.000 A 
ATOM      8  C   UNL d   1      32.455  17.191 -24.267  0.00  0.00     0.000 A 
ATOM      9  C   UNL d   1      31.370  17.957 -24.794  0.00  0.00     0.000 A 
ATOM     10  C   UNL d   1      32.180  17.845 -24.687  0.00  0.00     0.000 A 
ENDROOT
BRANCH   1  11
ATOM     11  C   UNL d   1      29.762  16.334 -23.860  0.00  0.00     0.006 C 
BRANCH  11  12
ATOM     12  C   UNL d   1      29.227  15.869 -23.465  0.00  0.00     0.070 C 
BRANCH  12  13
ATOM     13  C   UNL d   1      28.406  15.970 -23.588  0.00  0.00     0.211 C 
ATOM     14  O   UNL d   1      27.998  16.579 -23.230  0.00  0.00    -0.644 OA
ATOM     15  O   UNL d   1      27.987  15.454 -24.078  0.00  0.00    -0.644 OA
ENDBRANCH  12  13
ENDBRANCH  11  12
ENDBRANCH   1  11
TORSDOF 3
ENDMDL
MODEL 4
REMARK VINA RESULT:      -2.8      6.603      7.726
REMARK  3 active torsions:
REMARK  status: ('A' for Active; 'I' for Inactive)
REMARK    1  A    between atoms: C_2  and  C_1 
REMARK    2  A    between atoms: C_4  and  C_1 
REMARK    3  A    between atoms: C_3  and  C_2 
ROOT
ATOM      1  C   UNL d   1      32.623  23.014 -20.034  0.00  0.00     0.000 A 
ATOM      2  C   UNL d   1      32.730  22.316 -20.472  0.00  0.00     0.000 A 
ATOM      3  C   UNL d   1      32.564  22.309 -21.260  0.00  0.00     0.000 A 
ATOM      4  C   UNL d   1      32.179  23.696 -21.210  0.00  0.00     0.000 A 
ATOM      5  C   UNL d   1      32.348  23.702 -20.402  0.00  0.00     0.000 A 
ATOM      6  C   UNL d   1      32.999  21.645 -20.102  0.00  0.00     0.000 A 
ATOM      7  C   UNL d   1      32.285  23.002 -21.649  0.00  0.00     0.000 A 
ATOM      8  C   UNL d   1      32.661  21.633 -21.717  0.00  0.00     0.000 A 
ATOM      9  C   UNL d   1      33.104  20.955 -20.540  0.00  0.00     0.000 A 
ATOM     10  C   UNL d   1      32.935  20.948 -21.347  0.00  0.00     0.000 A 
ENDROOT
BRANCH   1  11
ATOM     11  C   UNL d   1      32.792  23.020 -19.225  0.00  0.00     0.006 C 
BRANCH  11  12
ATOM     12  C   UNL d   1      32.530  23.626 -18.754  0.00  0.00     0.070 C 
BRANCH  12  13
ATOM     13  C   UNL d   1      32.547  23.555 -17.921  0.00  0.00     0.211 C 
ATOM     14  O   UNL d   1      31.882  23.701 -17.472  0.00  0.00    -0.644 OA
ATOM     15  O   UNL d   1      33.241  23.334 -17.532  0.00  0.00    -0.644 OA
ENDBRANCH  12  13
ENDBRANCH  11  12
ENDBRANCH   1  11
TORSDOF 3
ENDMDL
MODEL 5
REMARK VINA RESULT:      -2.5      2.028      3.192
REMARK  3 active torsions:
REMARK  status: ('A' for Active; 'I' for Inactive)
REMARK    1  A    between atoms: C_2  and  C_1 
REMARK    2  A    between atoms: C_4  and  C_1 
REMARK    3  A    between atoms: C_3  and  C_2 
ROOT
ATOM      1  C   UNL d   1      31.278  17.360 -24.490  0.00  0.00     0.000 A 
ATOM      2  C   UNL d   1      31.861  16.919 -24.094  0.00  0.00     0.000 A 
ATOM      3  C   UNL d   1      32.634  17.143 -24.145  0.00  0.00     0.000 A 
ATOM      4  C   UNL d   1      32.277  18.256 -24.986  0.00  0.00     0.000 A 
ATOM      5  C   UNL d   1      31.486  18.026 -24.934  0.00  0.00     0.000 A 
ATOM      6  C   UNL d   1      31.649  16.267 -23.661  0.00  0.00     0.000 A 
ATOM      7  C   UNL d   1      32.860  17.818 -24.593  0.00  0.00     0.000 A 
ATOM      8  C   UNL d   1      33.231  16.725 -23.764  0.00  0.00     0.000 A 
ATOM      9  C   UNL d   1      32.230  15.832 -23.270  0.00  0.00     0.000 A 
ATOM     10  C   UNL d   1      33.021  16.061 -23.322  0.00  0.00     0.000 A 
ENDROOT
BRANCH   1  11
ATOM     11  C   UNL d   1      30.486  17.131 -24.438  0.00  0.00     0.006 C 
BRANCH  11  12
ATOM     12  C   UNL d   1      29.905  17.577 -24.786  0.00  0.00     0.070 C 
BRANCH  12  13
ATOM     13  C   UNL d   1      29.101  17.360 -24.709  0.00  0.00     0.211 C 
ATOM     14  O   UNL d   1      28.801  16.708 -25.096  0.00  0.00    -0.644 OA
ATOM     15  O   UNL d   1      28.589  17.804 -24.237  0.00  0.00    -0.644 OA
ENDBRANCH  12  13
ENDBRANCH  11  12
ENDBRANCH   1  11
TORSDOF 3
ENDMDL
MODEL 6
REMARK VINA RESULT:      -2.5      4.807      6.320
REMARK  3 active torsions:
REMARK  status: ('A' for Active; 'I' for Inactive)
REMARK    1  A    between atoms: C_2  and  C_1 
REMARK    2  A    between atoms: C_4  and  C_1 
REMARK    3  A    between atoms: C_3  and  C_2 
ROOT
ATOM      1  C   UNL d   1      32.794  21.313 -21.616  0.00  0.00     0.000 A 
ATOM      2  C   UNL d   1      32.857  22.100 -21.876  0.00  0.00     0.000 A 
ATOM      3  C   UNL d   1      32.600  22.699 -21.402  0.00  0.00     0.000 A 
ATOM      4  C   UNL d   1      32.206  21.755 -20.389  0.00  0.00     0.000 A 
ATOM      5  C   UNL d   1      32.469  21.142 -20.874  0.00  0.00     0.000 A 
ATOM      6  C   UNL d   1      33.176  22.259 -22.605  0.00  0.00     0.000 A 
ATOM      7  C   UNL d   1      32.268  22.540 -20.646  0.00  0.00     0.000 A 
ATOM      8  C   UNL d   1      32.650  23.486 -21.635  0.00  0.00     0.000 A 
ATOM      9  C   UNL d   1      33.237  23.041 -22.860  0.00  0.00     0.000 A 
ATOM     10  C   UNL d   1      32.974  23.654 -22.375  0.00  0.00     0.000 A 
ENDROOT
BRANCH   1  11
ATOM     11  C   UNL d   1      33.057  20.699 -22.101  0.00  0.00     0.006 C 
BRANCH  11  12
ATOM     12  C   UNL d   1      32.888  19.927 -21.917  0.00  0.00     0.070 C 
BRANCH  12  13
ATOM     13  C   UNL d   1      33.118  19.308 -22.430  0.00  0.00     0.211 C 
ATOM     14  O   UNL d   1      33.238  19.443 -23.225  0.00  0.00    -0.644 OA
ATOM     15  O   UNL d   1      33.231  18.543 -22.142  0.00  0.00    -0.644 OA
ENDBRANCH  12  13
ENDBRANCH  11  12
ENDBRANCH   1  11
TORSDOF 3
ENDMDL
MODEL 7
REMARK VINA RESULT:      -2.4      4.554      5.909
REMARK  3 active torsions:
REMARK  status: ('A' for Active; 'I' for Inactive)
REMARK    1  A    between atoms: C_2  and  C_1 
REMARK    2  A    between atoms: C_4  and  C_1 
REMARK    3  A    between atoms: C_3  and  C_2 
ROOT
ATOM      1  C   UNL d   1      32.983  21.256 -22.289  0.00  0.00     0.000 A 
ATOM      2  C   UNL d   1      32.721  21.748 -21.673  0.00  0.00     0.000 A 
ATOM      3  C   UNL d   1      32.718  22.548 -21.775  0.00  0.00     0.000 A 
ATOM      4  C   UNL d   1      33.238  22.399 -23.110  0.00  0.00     0.000 A 
ATOM      5  C   UNL d   1      33.241  21.581 -23.006  0.00  0.00     0.000 A 
ATOM      6  C   UNL d   1      32.470  21.421 -20.975  0.00  0.00     0.000 A 
ATOM      7  C   UNL d   1      32.977  22.892 -22.497  0.00  0.00     0.000 A 
ATOM      8  C   UNL d   1      32.464  23.058 -21.183  0.00  0.00     0.000 A 
ATOM      9  C   UNL d   1      32.210  21.912 -20.366  0.00  0.00     0.000 A 
ATOM     10  C   UNL d   1      32.207  22.731 -20.470  0.00  0.00     0.000 A 
ENDROOT
BRANCH   1  11
ATOM     11  C   UNL d   1      32.986  20.436 -22.185  0.00  0.00     0.006 C 
BRANCH  11  12
ATOM     12  C   UNL d   1      33.094  19.941 -22.819  0.00  0.00     0.070 C 
BRANCH  12  13
ATOM     13  C   UNL d   1      32.953  19.120 -22.745  0.00  0.00     0.211 C 
ATOM     14  O   UNL d   1      32.533  18.712 -23.313  0.00  0.00    -0.644 OA
ATOM     15  O   UNL d   1      33.235  18.701 -22.092  0.00  0.00    -0.644 OA
ENDBRANCH  12  13
ENDBRANCH  11  12
ENDBRANCH   1  11
TORSDOF 3
ENDMDL
MODEL 8
REMARK VINA RESULT:      -2.4      5.714      6.999
REMARK  3 active torsions:
REMARK  status: ('A' for Active; 'I' for Inactive)
REMARK    1  A    between atoms: C_2  and  C_1 
REMARK    2  A    between atoms: C_4  and  C_1 
REMARK    3  A    between atoms: C_3  and  C_2 
ROOT
ATOM      1  C   UNL d   1      32.747  22.060 -21.073  0.00  0.00     0.000 A 
ATOM      2  C   UNL d   1      32.842  22.481 -20.362  0.00  0.00     0.000 A 
ATOM      3  C   UNL d   1      32.651  23.263 -20.332  0.00  0.00     0.000 A 
ATOM      4  C   UNL d   1      32.262  23.241 -21.718  0.00  0.00     0.000 A 
ATOM      5  C   UNL d   1      32.457  22.440 -21.749  0.00  0.00     0.000 A 
ATOM      6  C   UNL d   1      33.127  22.101 -19.704  0.00  0.00     0.000 A 
ATOM      7  C   UNL d   1      32.356  23.662 -21.011  0.00  0.00     0.000 A 
ATOM      8  C   UNL d   1      32.736  23.702 -19.642  0.00  0.00     0.000 A 
ATOM      9  C   UNL d   1      33.220  22.521 -19.001  0.00  0.00     0.000 A 
ATOM     10  C   UNL d   1      33.025  23.322 -18.970  0.00  0.00     0.000 A 
ENDROOT
BRANCH   1  11
ATOM     11  C   UNL d   1      32.943  21.259 -21.103  0.00  0.00     0.006 C 
BRANCH  11  12
ATOM     12  C   UNL d   1      32.974  20.869 -21.814  0.00  0.00     0.070 C 
BRANCH  12  13
ATOM     13  C   UNL d   1      33.086  20.041 -21.840  0.00  0.00     0.211 C 
ATOM     14  O   UNL d   1      33.241  19.616 -21.162  0.00  0.00    -0.644 OA
ATOM     15  O   UNL d   1      33.043  19.633 -22.556  0.00  0.00    -0.644 OA
ENDBRANCH  12  13
ENDBRANCH  11  12
ENDBRANCH   1  11
TORSDOF 3
ENDMDL
MODEL 9
REMARK VINA RESULT:      -2.3      2.631      3.507
REMARK  3 active torsions:
REMARK  status: ('A' for Active; 'I' for Inactive)
REMARK    1  A    between atoms: C_2  and  C_1 
REMARK    2  A    between atoms: C_4  and  C_1 
REMARK    3  A    between atoms: C_3  and  C_2 
ROOT
ATOM      1  C   UNL d   1      32.916  18.842 -23.453  0.00  0.00     0.000 A 
ATOM      2  C   UNL d   1      32.663  18.089 -23.697  0.00  0.00     0.000 A 
ATOM      3  C   UNL d   1      32.685  17.894 -24.479  0.00  0.00     0.000 A 
ATOM      4  C   UNL d   1      33.213  19.193 -24.807  0.00  0.00     0.000 A 
ATOM      5  C   UNL d   1      33.191  19.392 -24.007  0.00  0.00     0.000 A 
ATOM      6  C   UNL d   1      32.396  17.556 -23.147  0.00  0.00     0.000 A 
ATOM      7  C   UNL d   1      32.961  18.443 -25.053  0.00  0.00     0.000 A 
ATOM      8  C   UNL d   1      32.440  17.157 -24.747  0.00  0.00     0.000 A 
ATOM      9  C   UNL d   1      32.145  16.810 -23.393  0.00  0.00     0.000 A 
ATOM     10  C   UNL d   1      32.168  16.611 -24.193  0.00  0.00     0.000 A 
ENDROOT
BRANCH   1  11
ATOM     11  C   UNL d   1      32.894  19.042 -22.652  0.00  0.00     0.006 C 
BRANCH  11  12
ATOM     12  C   UNL d   1      33.025  19.807 -22.414  0.00  0.00     0.070 C 
BRANCH  12  13
ATOM     13  C   UNL d   1      32.912  20.028 -21.616  0.00  0.00     0.211 C 
ATOM     14  O   UNL d   1      32.476  20.689 -21.420  0.00  0.00    -0.644 OA
ATOM     15  O   UNL d   1      33.241  19.582 -21.004  0.00  0.00    -0.644 OA
ENDBRANCH  12  13
ENDBRANCH  11  12
ENDBRANCH   1  11
TORSDOF 3
ENDMDL
