MODEL 1
REMARK VINA RESULT:      -5.1      0.000      0.000
REMARK  4 active torsions:
REMARK  status: ('A' for Active; 'I' for Inactive)
REMARK    1  A    between atoms: C_16  and  N_3 
REMARK    2  A    between atoms: S_12  and  C_6 
REMARK    3  A    between atoms: C_10  and  C_14 
REMARK       I    between atoms: N_11  and  C_10 
REMARK    4  A    between atoms: C_14  and  S_12 
ROOT
ATOM      1  C   UNL d   1     -39.431  14.919  20.074  0.00  0.00     0.155 A 
ATOM      2  C   UNL d   1     -40.156  14.568  19.869  0.00  0.00     0.107 A 
ATOM      3  N   UNL d   1     -39.616  14.524  21.426  0.00  0.00    -0.252 N 
ATOM      4  C   UNL d   1     -39.169  14.895  20.843  0.00  0.00     0.285 A 
ATOM      5  N   UNL d   1     -40.603  14.197  20.453  0.00  0.00    -0.220 NA
ATOM      6  C   UNL d   1     -40.334  14.175  21.231  0.00  0.00     0.182 A 
ATOM      7  N   UNL d   1     -39.114  15.241  19.386  0.00  0.00    -0.239 NA
ATOM      8  C   UNL d   1     -40.273  14.678  19.069  0.00  0.00     0.037 A 
ATOM      9  C   UNL d   1     -39.633  15.093  18.765  0.00  0.00     0.083 A 
ATOM     10  O   UNL d   1     -38.445  15.248  21.039  0.00  0.00    -0.265 OA
ATOM     11  C   UNL d   1     -40.887  14.450  18.574  0.00  0.00     0.003 A 
ATOM     12  C   UNL d   1     -39.607  15.280  17.968  0.00  0.00     0.019 A 
ATOM     13  C   UNL d   1     -40.861  14.638  17.776  0.00  0.00     0.000 A 
ATOM     14  C   UNL d   1     -40.214  15.055  17.478  0.00  0.00     0.002 A 
ENDROOT
BRANCH   6  15
ATOM     15  S   UNL d   1     -42.742  12.928  20.924  0.00  0.00    -0.044 SA
BRANCH  15  16
ATOM     16  C   UNL d   1     -43.466  13.169  21.456  0.00  0.00     0.099 C 
BRANCH  16  17
ATOM     17  C   UNL d   1     -43.880  12.526  21.986  0.00  0.00     0.272 C 
ATOM     18  N   UNL d   1     -44.736  12.665  22.301  0.00  0.00    -0.267 N 
ATOM     19  C   UNL d   1     -45.142  12.039  22.818  0.00  0.00     0.110 A 
ATOM     20  C   UNL d   1     -45.169  13.445  22.084  0.00  0.00     0.110 A 
ATOM     21  C   UNL d   1     -46.004  12.175  23.138  0.00  0.00     0.142 A 
ATOM     22  O   UNL d   1     -46.446  12.951  22.927  0.00  0.00    -0.300 OA
ATOM     23  C   UNL d   1     -46.031  13.594  22.397  0.00  0.00     0.142 A 
ATOM     24  O   UNL d   1     -43.442  11.743  22.202  0.00  0.00    -0.266 OA
ENDBRANCH  16  17
ENDBRANCH  15  16
ENDBRANCH   6  15
BRANCH   3  25
ATOM     25  C   UNL d   1     -39.311  14.500  22.304  0.00  0.00     0.085 C 
ATOM     26  C   UNL d   1     -39.286  13.698  22.761  0.00  0.00     0.021 C 
ENDBRANCH   3  25
TORSDOF 4
ENDMDL
MODEL 2
REMARK VINA RESULT:      -4.7      1.838      6.655
REMARK  4 active torsions:
REMARK  status: ('A' for Active; 'I' for Inactive)
REMARK    1  A    between atoms: C_16  and  N_3 
REMARK    2  A    between atoms: S_12  and  C_6 
REMARK    3  A    between atoms: C_10  and  C_14 
REMARK       I    between atoms: N_11  and  C_10 
REMARK    4  A    between atoms: C_14  and  S_12 
ROOT
ATOM      1  C   UNL d   1     -45.828  11.970  23.165  0.00  0.00     0.155 A 
ATOM      2  C   UNL d   1     -45.466  12.599  22.761  0.00  0.00     0.107 A 
ATOM      3  N   UNL d   1     -44.649  11.191  23.017  0.00  0.00    -0.252 N 
ATOM      4  C   UNL d   1     -45.421  11.277  23.290  0.00  0.00     0.285 A 
ATOM      5  N   UNL d   1     -44.694  12.512  22.489  0.00  0.00    -0.220 NA
ATOM      6  C   UNL d   1     -44.286  11.809  22.617  0.00  0.00     0.182 A 
ATOM      7  N   UNL d   1     -46.587  12.214  23.367  0.00  0.00    -0.239 NA
ATOM      8  C   UNL d   1     -46.002  13.214  22.720  0.00  0.00     0.037 A 
ATOM      9  C   UNL d   1     -46.696  12.982  23.093  0.00  0.00     0.083 A 
ATOM     10  O   UNL d   1     -45.789  10.654  23.694  0.00  0.00    -0.265 OA
ATOM     11  C   UNL d   1     -45.945  13.963  22.388  0.00  0.00     0.003 A 
ATOM     12  C   UNL d   1     -47.331  13.498  23.133  0.00  0.00     0.019 A 
ATOM     13  C   UNL d   1     -46.580  14.479  22.428  0.00  0.00     0.000 A 
ATOM     14  C   UNL d   1     -47.275  14.238  22.805  0.00  0.00     0.002 A 
ENDROOT
BRANCH   6  15
ATOM     15  S   UNL d   1     -42.796  13.650  21.261  0.00  0.00    -0.044 SA
BRANCH  15  16
ATOM     16  C   UNL d   1     -41.867  13.626  21.305  0.00  0.00     0.099 C 
BRANCH  16  17
ATOM     17  C   UNL d   1     -41.378  14.399  21.131  0.00  0.00     0.272 C 
ATOM     18  N   UNL d   1     -40.468  14.415  21.278  0.00  0.00    -0.267 N 
ATOM     19  C   UNL d   1     -39.990  15.168  21.108  0.00  0.00     0.110 A 
ATOM     20  C   UNL d   1     -40.055  13.660  21.598  0.00  0.00     0.110 A 
ATOM     21  C   UNL d   1     -39.072  15.189  21.255  0.00  0.00     0.142 A 
ATOM     22  O   UNL d   1     -38.649  14.441  21.574  0.00  0.00    -0.300 OA
ATOM     23  C   UNL d   1     -39.138  13.668  21.749  0.00  0.00     0.142 A 
ATOM     24  O   UNL d   1     -41.797  15.155  20.809  0.00  0.00    -0.266 OA
ENDBRANCH  16  17
ENDBRANCH  15  16
ENDBRANCH   6  15
BRANCH   3  25
ATOM     25  C   UNL d   1     -44.189  10.396  23.162  0.00  0.00     0.085 C 
ATOM     26  C   UNL d   1     -43.309  10.418  23.441  0.00  0.00     0.021 C 
ENDBRANCH   3  25
TORSDOF 4
ENDMDL
MODEL 3
REMARK VINA RESULT:      -4.0      5.036      8.628
REMARK  4 active torsions:
REMARK  status: ('A' for Active; 'I' for Inactive)
REMARK    1  A    between atoms: C_16  and  N_3 
REMARK    2  A    between atoms: S_12  and  C_6 
REMARK    3  A    between atoms: C_10  and  C_14 
REMARK       I    between atoms: N_11  and  C_10 
REMARK    4  A    between atoms: C_14  and  S_12 
ROOT
ATOM      1  C   UNL d   1     -49.931  13.925  22.944  0.00  0.00     0.155 A 
ATOM      2  C   UNL d   1     -49.357  13.366  23.164  0.00  0.00     0.107 A 
ATOM      3  N   UNL d   1     -48.918  14.903  22.763  0.00  0.00    -0.252 N 
ATOM      4  C   UNL d   1     -49.710  14.682  22.747  0.00  0.00     0.285 A 
ATOM      5  N   UNL d   1     -48.564  13.588  23.180  0.00  0.00    -0.220 NA
ATOM      6  C   UNL d   1     -48.344  14.356  22.979  0.00  0.00     0.182 A 
ATOM      7  N   UNL d   1     -50.663  13.550  22.979  0.00  0.00    -0.239 NA
ATOM      8  C   UNL d   1     -49.739  12.664  23.329  0.00  0.00     0.037 A 
ATOM      9  C   UNL d   1     -50.545  12.771  23.217  0.00  0.00     0.083 A 
ATOM     10  O   UNL d   1     -50.289  15.234  22.529  0.00  0.00    -0.265 OA
ATOM     11  C   UNL d   1     -49.451  11.933  23.570  0.00  0.00     0.003 A 
ATOM     12  C   UNL d   1     -51.063  12.149  23.345  0.00  0.00     0.019 A 
ATOM     13  C   UNL d   1     -49.969  11.311  23.698  0.00  0.00     0.000 A 
ATOM     14  C   UNL d   1     -50.778  11.427  23.583  0.00  0.00     0.002 A 
ENDROOT
BRANCH   6  15
ATOM     15  S   UNL d   1     -46.206  12.797  23.647  0.00  0.00    -0.044 SA
BRANCH  15  16
ATOM     16  C   UNL d   1     -45.883  12.162  23.048  0.00  0.00     0.099 C 
BRANCH  16  17
ATOM     17  C   UNL d   1     -44.974  12.134  22.854  0.00  0.00     0.272 C 
ATOM     18  N   UNL d   1     -44.480  11.380  23.052  0.00  0.00    -0.267 N 
ATOM     19  C   UNL d   1     -43.593  11.351  22.863  0.00  0.00     0.110 A 
ATOM     20  C   UNL d   1     -44.900  10.662  23.440  0.00  0.00     0.110 A 
ATOM     21  C   UNL d   1     -43.092  10.593  23.061  0.00  0.00     0.142 A 
ATOM     22  O   UNL d   1     -43.501   9.869  23.450  0.00  0.00    -0.300 OA
ATOM     23  C   UNL d   1     -44.412   9.899  23.643  0.00  0.00     0.142 A 
ATOM     24  O   UNL d   1     -44.555  12.857  22.463  0.00  0.00    -0.266 OA
ENDBRANCH  16  17
ENDBRANCH  15  16
ENDBRANCH   6  15
BRANCH   3  25
ATOM     25  C   UNL d   1     -48.670  15.771  22.537  0.00  0.00     0.085 C 
ATOM     26  C   UNL d   1     -47.875  15.921  22.093  0.00  0.00     0.021 C 
ENDBRANCH   3  25
TORSDOF 4
ENDMDL
MODEL 4
REMARK VINA RESULT:      -3.3      3.170      5.122
REMARK  4 active torsions:
REMARK  status: ('A' for Active; 'I' for Inactive)
REMARK    1  A    between atoms: C_16  and  N_3 
REMARK    2  A    between atoms: S_12  and  C_6 
REMARK    3  A    between atoms: C_10  and  C_14 
REMARK       I    between atoms: N_11  and  C_10 
REMARK    4  A    between atoms: C_14  and  S_12 
ROOT
ATOM      1  C   UNL d   1     -37.986  13.373  16.528  0.00  0.00     0.155 A 
ATOM      2  C   UNL d   1     -37.972  13.502  17.348  0.00  0.00     0.107 A 
ATOM      3  N   UNL d   1     -37.996  14.776  16.303  0.00  0.00    -0.252 N 
ATOM      4  C   UNL d   1     -37.998  14.005  16.016  0.00  0.00     0.285 A 
ATOM      5  N   UNL d   1     -37.970  14.274  17.635  0.00  0.00    -0.220 NA
ATOM      6  C   UNL d   1     -37.983  14.910  17.113  0.00  0.00     0.182 A 
ATOM      7  N   UNL d   1     -37.984  12.559  16.409  0.00  0.00    -0.239 NA
ATOM      8  C   UNL d   1     -37.962  12.774  17.718  0.00  0.00     0.037 A 
ATOM      9  C   UNL d   1     -37.970  12.188  17.143  0.00  0.00     0.083 A 
ATOM     10  O   UNL d   1     -38.011  13.867  15.198  0.00  0.00    -0.265 OA
ATOM     11  C   UNL d   1     -37.947  12.569  18.513  0.00  0.00     0.003 A 
ATOM     12  C   UNL d   1     -37.962  11.398  17.362  0.00  0.00     0.019 A 
ATOM     13  C   UNL d   1     -37.940  11.780  18.733  0.00  0.00     0.000 A 
ATOM     14  C   UNL d   1     -37.947  11.196  18.148  0.00  0.00     0.002 A 
ENDROOT
BRANCH   6  15
ATOM     15  S   UNL d   1     -37.940  15.702  19.725  0.00  0.00    -0.044 SA
BRANCH  15  16
ATOM     16  C   UNL d   1     -38.734  15.899  20.167  0.00  0.00     0.099 C 
BRANCH  16  17
ATOM     17  C   UNL d   1     -39.190  15.224  20.618  0.00  0.00     0.272 C 
ATOM     18  N   UNL d   1     -40.112  15.202  20.612  0.00  0.00    -0.267 N 
ATOM     19  C   UNL d   1     -40.557  14.545  21.051  0.00  0.00     0.110 A 
ATOM     20  C   UNL d   1     -40.570  15.855  20.157  0.00  0.00     0.110 A 
ATOM     21  C   UNL d   1     -41.487  14.519  21.049  0.00  0.00     0.142 A 
ATOM     22  O   UNL d   1     -41.955  15.165  20.597  0.00  0.00    -0.300 OA
ATOM     23  C   UNL d   1     -41.498  15.841  20.146  0.00  0.00     0.142 A 
ATOM     24  O   UNL d   1     -38.725  14.570  21.075  0.00  0.00    -0.266 OA
ENDBRANCH  16  17
ENDBRANCH  15  16
ENDBRANCH   6  15
BRANCH   3  25
ATOM     25  C   UNL d   1     -38.010  15.494  15.712  0.00  0.00     0.085 C 
ATOM     26  C   UNL d   1     -38.816  15.870  15.464  0.00  0.00     0.021 C 
ENDBRANCH   3  25
TORSDOF 4
ENDMDL
MODEL 5
REMARK VINA RESULT:      -3.3      3.564      5.630
REMARK  4 active torsions:
REMARK  status: ('A' for Active; 'I' for Inactive)
REMARK    1  A    between atoms: C_16  and  N_3 
REMARK    2  A    between atoms: S_12  and  C_6 
REMARK    3  A    between atoms: C_10  and  C_14 
REMARK       I    between atoms: N_11  and  C_10 
REMARK    4  A    between atoms: C_14  and  S_12 
ROOT
ATOM      1  C   UNL d   1     -43.974  11.658  22.536  0.00  0.00     0.155 A 
ATOM      2  C   UNL d   1     -44.320  12.373  22.291  0.00  0.00     0.107 A 
ATOM      3  N   UNL d   1     -45.185  11.287  23.180  0.00  0.00    -0.252 N 
ATOM      4  C   UNL d   1     -44.405  11.126  22.974  0.00  0.00     0.285 A 
ATOM      5  N   UNL d   1     -45.101  12.534  22.497  0.00  0.00    -0.220 NA
ATOM      6  C   UNL d   1     -45.533  11.992  22.941  0.00  0.00     0.182 A 
ATOM      7  N   UNL d   1     -43.202  11.652  22.253  0.00  0.00    -0.239 NA
ATOM      8  C   UNL d   1     -43.762  12.791  21.866  0.00  0.00     0.037 A 
ATOM      9  C   UNL d   1     -43.070  12.350  21.839  0.00  0.00     0.083 A 
ATOM     10  O   UNL d   1     -44.052  10.415  23.215  0.00  0.00    -0.265 OA
ATOM     11  C   UNL d   1     -43.798  13.523  21.496  0.00  0.00     0.003 A 
ATOM     12  C   UNL d   1     -42.414  12.642  21.443  0.00  0.00     0.019 A 
ATOM     13  C   UNL d   1     -43.143  13.815  21.101  0.00  0.00     0.000 A 
ATOM     14  C   UNL d   1     -42.450  13.366  21.078  0.00  0.00     0.002 A 
ENDROOT
BRANCH   6  15
ATOM     15  S   UNL d   1     -46.980  14.220  22.315  0.00  0.00    -0.044 SA
BRANCH  15  16
ATOM     16  C   UNL d   1     -47.778  14.400  22.758  0.00  0.00     0.099 C 
BRANCH  16  17
ATOM     17  C   UNL d   1     -48.578  14.067  22.419  0.00  0.00     0.272 C 
ATOM     18  N   UNL d   1     -49.368  14.522  22.559  0.00  0.00    -0.267 N 
ATOM     19  C   UNL d   1     -50.148  14.198  22.229  0.00  0.00     0.110 A 
ATOM     20  C   UNL d   1     -49.351  15.306  23.037  0.00  0.00     0.110 A 
ATOM     21  C   UNL d   1     -50.947  14.653  22.368  0.00  0.00     0.142 A 
ATOM     22  O   UNL d   1     -50.942  15.438  22.844  0.00  0.00    -0.300 OA
ATOM     23  C   UNL d   1     -50.141  15.771  23.183  0.00  0.00     0.142 A 
ATOM     24  O   UNL d   1     -48.591  13.278  21.940  0.00  0.00    -0.266 OA
ENDBRANCH  16  17
ENDBRANCH  15  16
ENDBRANCH   6  15
BRANCH   3  25
ATOM     25  C   UNL d   1     -45.673  10.674  23.681  0.00  0.00     0.085 C 
ATOM     26  C   UNL d   1     -46.595  10.719  23.693  0.00  0.00     0.021 C 
ENDBRANCH   3  25
TORSDOF 4
ENDMDL
MODEL 6
REMARK VINA RESULT:      -3.1      5.488      7.776
REMARK  4 active torsions:
REMARK  status: ('A' for Active; 'I' for Inactive)
REMARK    1  A    between atoms: C_16  and  N_3 
REMARK    2  A    between atoms: S_12  and  C_6 
REMARK    3  A    between atoms: C_10  and  C_14 
REMARK       I    between atoms: N_11  and  C_10 
REMARK    4  A    between atoms: C_14  and  S_12 
ROOT
ATOM      1  C   UNL d   1     -48.637  14.594  22.282  0.00  0.00     0.155 A 
ATOM      2  C   UNL d   1     -48.733  13.793  22.484  0.00  0.00     0.107 A 
ATOM      3  N   UNL d   1     -47.287  14.547  22.723  0.00  0.00    -0.252 N 
ATOM      4  C   UNL d   1     -47.922  14.962  22.402  0.00  0.00     0.285 A 
ATOM      5  N   UNL d   1     -48.097  13.379  22.804  0.00  0.00    -0.220 NA
ATOM      6  C   UNL d   1     -47.375  13.756  22.924  0.00  0.00     0.182 A 
ATOM      7  N   UNL d   1     -49.355  14.856  21.979  0.00  0.00    -0.239 NA
ATOM      8  C   UNL d   1     -49.500  13.577  22.303  0.00  0.00     0.037 A 
ATOM      9  C   UNL d   1     -49.888  14.230  21.991  0.00  0.00     0.083 A 
ATOM     10  O   UNL d   1     -47.835  15.761  22.199  0.00  0.00    -0.265 OA
ATOM     11  C   UNL d   1     -49.896  12.863  22.384  0.00  0.00     0.003 A 
ATOM     12  C   UNL d   1     -50.673  14.168  21.761  0.00  0.00     0.019 A 
ATOM     13  C   UNL d   1     -50.680  12.801  22.154  0.00  0.00     0.000 A 
ATOM     14  C   UNL d   1     -51.064  13.461  21.842  0.00  0.00     0.002 A 
ENDROOT
BRANCH   6  15
ATOM     15  S   UNL d   1     -47.329  11.138  23.695  0.00  0.00    -0.044 SA
BRANCH  15  16
ATOM     16  C   UNL d   1     -46.528  10.665  23.697  0.00  0.00     0.099 C 
BRANCH  16  17
ATOM     17  C   UNL d   1     -45.722  11.124  23.632  0.00  0.00     0.272 C 
ATOM     18  N   UNL d   1     -44.932  10.662  23.515  0.00  0.00    -0.267 N 
ATOM     19  C   UNL d   1     -44.145  11.109  23.451  0.00  0.00     0.110 A 
ATOM     20  C   UNL d   1     -44.956   9.746  23.464  0.00  0.00     0.110 A 
ATOM     21  C   UNL d   1     -43.346  10.647  23.333  0.00  0.00     0.142 A 
ATOM     22  O   UNL d   1     -43.358   9.731  23.281  0.00  0.00    -0.300 OA
ATOM     23  C   UNL d   1     -44.166   9.272  23.347  0.00  0.00     0.142 A 
ATOM     24  O   UNL d   1     -45.702  12.045  23.683  0.00  0.00    -0.266 OA
ENDBRANCH  16  17
ENDBRANCH  15  16
ENDBRANCH   6  15
BRANCH   3  25
ATOM     25  C   UNL d   1     -46.472  14.974  22.858  0.00  0.00     0.085 C 
ATOM     26  C   UNL d   1     -45.692  14.582  22.556  0.00  0.00     0.021 C 
ENDBRANCH   3  25
TORSDOF 4
ENDMDL
MODEL 7
REMARK VINA RESULT:      -2.9      5.605      6.997
REMARK  4 active torsions:
REMARK  status: ('A' for Active; 'I' for Inactive)
REMARK    1  A    between atoms: C_16  and  N_3 
REMARK    2  A    between atoms: S_12  and  C_6 
REMARK    3  A    between atoms: C_10  and  C_14 
REMARK       I    between atoms: N_11  and  C_10 
REMARK    4  A    between atoms: C_14  and  S_12 
ROOT
ATOM      1  C   UNL d   1     -45.813  12.855  22.975  0.00  0.00     0.155 A 
ATOM      2  C   UNL d   1     -46.621  13.034  23.050  0.00  0.00     0.107 A 
ATOM      3  N   UNL d   1     -46.081  11.496  23.290  0.00  0.00    -0.252 N 
ATOM      4  C   UNL d   1     -45.551  12.095  23.094  0.00  0.00     0.285 A 
ATOM      5  N   UNL d   1     -47.151  12.435  23.246  0.00  0.00    -0.220 NA
ATOM      6  C   UNL d   1     -46.881  11.666  23.365  0.00  0.00     0.182 A 
ATOM      7  N   UNL d   1     -45.426  13.554  22.778  0.00  0.00    -0.239 NA
ATOM      8  C   UNL d   1     -46.718  13.831  22.900  0.00  0.00     0.037 A 
ATOM      9  C   UNL d   1     -45.983  14.157  22.732  0.00  0.00     0.083 A 
ATOM     10  O   UNL d   1     -44.743  11.924  23.017  0.00  0.00    -0.265 OA
ATOM     11  C   UNL d   1     -47.388  14.305  22.896  0.00  0.00     0.003 A 
ATOM     12  C   UNL d   1     -45.919  14.956  22.560  0.00  0.00     0.019 A 
ATOM     13  C   UNL d   1     -47.324  15.104  22.724  0.00  0.00     0.000 A 
ATOM     14  C   UNL d   1     -46.582  15.424  22.556  0.00  0.00     0.002 A 
ENDROOT
BRANCH   6  15
ATOM     15  S   UNL d   1     -49.581  11.889  23.693  0.00  0.00    -0.044 SA
BRANCH  15  16
ATOM     16  C   UNL d   1     -50.153  11.758  22.971  0.00  0.00     0.099 C 
BRANCH  16  17
ATOM     17  C   UNL d   1     -49.974  12.179  22.161  0.00  0.00     0.272 C 
ATOM     18  N   UNL d   1     -50.277  13.036  22.005  0.00  0.00    -0.267 N 
ATOM     19  C   UNL d   1     -50.103  13.447  21.215  0.00  0.00     0.110 A 
ATOM     20  C   UNL d   1     -50.755  13.465  22.661  0.00  0.00     0.110 A 
ATOM     21  C   UNL d   1     -50.406  14.312  21.054  0.00  0.00     0.142 A 
ATOM     22  O   UNL d   1     -50.885  14.750  21.703  0.00  0.00    -0.300 OA
ATOM     23  C   UNL d   1     -51.063  14.329  22.514  0.00  0.00     0.142 A 
ATOM     24  O   UNL d   1     -49.493  11.744  21.504  0.00  0.00    -0.266 OA
ENDBRANCH  16  17
ENDBRANCH  15  16
ENDBRANCH   6  15
BRANCH   3  25
ATOM     25  C   UNL d   1     -45.775  10.628  23.425  0.00  0.00     0.085 C 
ATOM     26  C   UNL d   1     -46.375   9.926  23.438  0.00  0.00     0.021 C 
ENDBRANCH   3  25
TORSDOF 4
ENDMDL
