MODEL 1
REMARK VINA RESULT:      -5.7      0.000      0.000
REMARK  3 active torsions:
REMARK  status: ('A' for Active; 'I' for Inactive)
REMARK    1  A    between atoms: C_6  and  N_1 
REMARK    2  A    between atoms: C_5  and  C_6 
REMARK       I    between atoms: N_8  and  C_5 
REMARK    3  A    between atoms: C_10  and  N_8 
ROOT
ATOM      1  C   UNL d   1      57.690   0.227  31.041  0.00  0.00     0.297 C 
ATOM      2  N   UNL d   1      57.728   0.309  30.217  0.00  0.00    -0.207 NA
ATOM      3  O   UNL d   1      58.349  -0.034  31.457  0.00  0.00    -0.264 OA
ENDROOT
BRANCH   1   4
ATOM      4  C   UNL d   1      56.992   0.406  31.440  0.00  0.00     0.145 C 
BRANCH   4   5
ATOM      5  N   UNL d   1      56.624  -0.163  31.903  0.00  0.00    -0.282 N 
ATOM      6  C   UNL d   1      56.701  -0.983  31.828  0.00  0.00     0.183 A 
ATOM      7  N   UNL d   1      56.235  -1.339  32.407  0.00  0.00    -0.224 NA
ATOM      8  C   UNL d   1      55.865  -0.741  32.844  0.00  0.00     0.099 A 
ATOM      9  C   UNL d   1      56.108  -0.014  32.530  0.00  0.00     0.083 A 
ATOM     10  C   UNL d   1      55.345  -0.768  33.481  0.00  0.00     0.021 A 
ATOM     11  C   UNL d   1      55.822   0.682  32.864  0.00  0.00     0.019 A 
ATOM     12  C   UNL d   1      55.305   0.666  33.496  0.00  0.00     0.002 A 
ATOM     13  C   UNL d   1      55.059  -0.065  33.814  0.00  0.00     0.002 A 
ENDBRANCH   4   5
ENDBRANCH   1   4
BRANCH   2  14
ATOM     14  C   UNL d   1      58.457   0.113  29.877  0.00  0.00     0.085 A 
ATOM     15  C   UNL d   1      58.534  -0.581  29.451  0.00  0.00     0.019 A 
ATOM     16  C   UNL d   1      59.257  -0.782  29.109  0.00  0.00     0.002 A 
ATOM     17  C   UNL d   1      59.333  -1.483  28.680  0.00  0.00     0.000 C 
ATOM     18  C   UNL d   1      59.910  -0.274  29.201  0.00  0.00     0.000 A 
ATOM     19  C   UNL d   1      59.831   0.424  29.630  0.00  0.00     0.002 A 
ATOM     20  C   UNL d   1      60.639  -0.469  28.861  0.00  0.00     0.000 C 
ATOM     21  C   UNL d   1      59.101   0.620  29.970  0.00  0.00     0.019 A 
ENDBRANCH   2  14
TORSDOF 3
ENDMDL
MODEL 2
REMARK VINA RESULT:      -5.3      0.865      4.705
REMARK  3 active torsions:
REMARK  status: ('A' for Active; 'I' for Inactive)
REMARK    1  A    between atoms: C_6  and  N_1 
REMARK    2  A    between atoms: C_5  and  C_6 
REMARK       I    between atoms: N_8  and  C_5 
REMARK    3  A    between atoms: C_10  and  N_8 
ROOT
ATOM      1  C   UNL d   1      57.882   0.336  30.760  0.00  0.00     0.297 C 
ATOM      2  N   UNL d   1      57.152  -0.057  30.781  0.00  0.00    -0.207 NA
ATOM      3  O   UNL d   1      58.186   0.673  31.444  0.00  0.00    -0.264 OA
ENDROOT
BRANCH   1   4
ATOM      4  C   UNL d   1      58.299   0.387  30.052  0.00  0.00     0.145 C 
BRANCH   4   5
ATOM      5  N   UNL d   1      59.114   0.288  30.045  0.00  0.00    -0.282 N 
ATOM      6  C   UNL d   1      59.658   0.662  30.543  0.00  0.00     0.183 A 
ATOM      7  N   UNL d   1      60.412   0.399  30.341  0.00  0.00    -0.224 NA
ATOM      8  C   UNL d   1      60.340  -0.139  29.717  0.00  0.00     0.099 A 
ATOM      9  C   UNL d   1      59.535  -0.206  29.535  0.00  0.00     0.083 A 
ATOM     10  C   UNL d   1      60.900  -0.571  29.296  0.00  0.00     0.021 A 
ATOM     11  C   UNL d   1      59.302  -0.711  28.928  0.00  0.00     0.019 A 
ATOM     12  C   UNL d   1      59.849  -1.144  28.504  0.00  0.00     0.002 A 
ATOM     13  C   UNL d   1      60.661  -1.078  28.685  0.00  0.00     0.002 A 
ENDBRANCH   4   5
ENDBRANCH   1   4
BRANCH   2  14
ATOM     14  C   UNL d   1      56.784  -0.073  31.523  0.00  0.00     0.085 A 
ATOM     15  C   UNL d   1      56.585  -0.791  31.863  0.00  0.00     0.019 A 
ATOM     16  C   UNL d   1      56.218  -0.815  32.601  0.00  0.00     0.002 A 
ATOM     17  C   UNL d   1      56.018  -1.539  32.943  0.00  0.00     0.000 C 
ATOM     18  C   UNL d   1      56.049  -0.102  32.999  0.00  0.00     0.000 A 
ATOM     19  C   UNL d   1      56.250   0.617  32.655  0.00  0.00     0.002 A 
ATOM     20  C   UNL d   1      55.681  -0.119  33.740  0.00  0.00     0.000 C 
ATOM     21  C   UNL d   1      56.619   0.634  31.913  0.00  0.00     0.019 A 
ENDBRANCH   2  14
TORSDOF 3
ENDMDL
MODEL 3
REMARK VINA RESULT:      -3.0      1.009      4.766
REMARK  3 active torsions:
REMARK  status: ('A' for Active; 'I' for Inactive)
REMARK    1  A    between atoms: C_6  and  N_1 
REMARK    2  A    between atoms: C_5  and  C_6 
REMARK       I    between atoms: N_8  and  C_5 
REMARK    3  A    between atoms: C_10  and  N_8 
ROOT
ATOM      1  C   UNL d   1      56.900   0.638  31.922  0.00  0.00     0.297 C 
ATOM      2  N   UNL d   1      56.105   0.610  32.159  0.00  0.00    -0.207 NA
ATOM      3  O   UNL d   1      57.494   0.680  32.487  0.00  0.00    -0.264 OA
ENDROOT
BRANCH   1   4
ATOM      4  C   UNL d   1      57.089   0.624  31.121  0.00  0.00     0.145 C 
BRANCH   4   5
ATOM      5  N   UNL d   1      57.466  -0.030  30.798  0.00  0.00    -0.282 N 
ATOM      6  C   UNL d   1      57.368  -0.818  31.030  0.00  0.00     0.183 A 
ATOM      7  N   UNL d   1      57.854  -1.286  30.557  0.00  0.00    -0.224 NA
ATOM      8  C   UNL d   1      58.256  -0.792  30.029  0.00  0.00     0.099 A 
ATOM      9  C   UNL d   1      58.014  -0.014  30.181  0.00  0.00     0.083 A 
ATOM     10  C   UNL d   1      58.805  -0.950  29.437  0.00  0.00     0.021 A 
ATOM     11  C   UNL d   1      58.330   0.599  29.731  0.00  0.00     0.019 A 
ATOM     12  C   UNL d   1      58.876   0.452  29.141  0.00  0.00     0.002 A 
ATOM     13  C   UNL d   1      59.121  -0.330  28.986  0.00  0.00     0.002 A 
ENDBRANCH   4   5
ENDBRANCH   1   4
BRANCH   2  14
ATOM     14  C   UNL d   1      55.982   0.628  32.977  0.00  0.00     0.085 A 
ATOM     15  C   UNL d   1      55.219   0.646  33.274  0.00  0.00     0.019 A 
ATOM     16  C   UNL d   1      55.088   0.664  34.087  0.00  0.00     0.002 A 
ATOM     17  C   UNL d   1      54.318   0.682  34.385  0.00  0.00     0.000 C 
ATOM     18  C   UNL d   1      55.739   0.663  34.608  0.00  0.00     0.000 A 
ATOM     19  C   UNL d   1      56.505   0.645  34.308  0.00  0.00     0.002 A 
ATOM     20  C   UNL d   1      55.615   0.681  35.426  0.00  0.00     0.000 C 
ATOM     21  C   UNL d   1      56.629   0.627  33.489  0.00  0.00     0.019 A 
ENDBRANCH   2  14
TORSDOF 3
ENDMDL
