MODEL 1
REMARK VINA RESULT:      55.9      0.000      0.000
REMARK  5 active torsions:
REMARK  status: ('A' for Active; 'I' for Inactive)
REMARK    1  A    between atoms: C_2  and  C_1 
REMARK    2  A    between atoms: N_13  and  C_7 
REMARK    3  A    between atoms: C_12  and  C_21 
REMARK    4  A    between atoms: C_21  and  N_13 
REMARK    5  A    between atoms: O_24  and  C_22 
ROOT
ATOM      1  C   UNL d   1     -50.647  26.094  33.513  0.00  0.00     0.089 A 
ATOM      2  C   UNL d   1     -50.056  25.536  33.382  0.00  0.00     0.302 A 
ATOM      3  C   UNL d   1     -51.438  25.852  33.575  0.00  0.00     0.009 A 
ATOM      4  O   UNL d   1     -50.254  24.735  33.313  0.00  0.00    -0.273 OA
ATOM      5  C   UNL d   1     -51.632  25.053  33.506  0.00  0.00     0.025 A 
ATOM      6  C   UNL d   1     -51.041  24.495  33.375  0.00  0.00     0.103 A 
ATOM      7  O   UNL d   1     -49.259  25.769  33.318  0.00  0.00    -0.259 OA
ATOM      8  C   UNL d   1     -52.416  24.818  33.568  0.00  0.00     0.026 A 
ATOM      9  C   UNL d   1     -51.232  23.701  33.306  0.00  0.00     0.027 A 
ATOM     10  C   UNL d   1     -52.605  24.012  33.497  0.00  0.00     0.094 A 
ATOM     11  C   UNL d   1     -52.020  23.459  33.368  0.00  0.00     0.026 A 
ENDROOT
BRANCH   1  12
ATOM     12  C   UNL d   1     -50.452  26.895  33.582  0.00  0.00     0.140 A 
ATOM     13  S   UNL d   1     -49.776  27.230  33.926  0.00  0.00    -0.026 SA
ATOM     14  C   UNL d   1     -49.841  28.048  33.858  0.00  0.00     0.216 A 
ATOM     15  N   UNL d   1     -50.552  28.213  33.474  0.00  0.00    -0.121 NA
ATOM     16  N   UNL d   1     -50.926  27.501  33.307  0.00  0.00    -0.139 NA
BRANCH  14  17
ATOM     17  N   UNL d   1     -49.295  28.609  34.123  0.00  0.00    -0.216 NA
BRANCH  17  18
ATOM     18  C   UNL d   1     -49.556  29.362  34.343  0.00  0.00     0.126 C 
BRANCH  18  19
ATOM     19  C   UNL d   1     -49.023  29.999  34.355  0.00  0.00     0.119 A 
ATOM     20  O   UNL d   1     -48.279  30.101  34.696  0.00  0.00    -0.304 OA
ATOM     21  C   UNL d   1     -48.018  30.856  34.521  0.00  0.00     0.123 A 
ATOM     22  C   UNL d   1     -48.587  31.226  34.076  0.00  0.00     0.029 A 
ATOM     23  C   UNL d   1     -49.220  30.698  33.967  0.00  0.00     0.028 A 
ENDBRANCH  18  19
ENDBRANCH  17  18
ENDBRANCH  14  17
ENDBRANCH   1  12
BRANCH  10  24
ATOM     24  O   UNL d   1     -53.395  23.783  33.561  0.00  0.00    -0.328 OA
ATOM     25  C   UNL d   1     -54.003  24.287  33.314  0.00  0.00     0.181 C 
ENDBRANCH  10  24
TORSDOF 5
ENDMDL
MODEL 2
REMARK VINA RESULT:      56.7      1.862      6.624
REMARK  5 active torsions:
REMARK  status: ('A' for Active; 'I' for Inactive)
REMARK    1  A    between atoms: C_2  and  C_1 
REMARK    2  A    between atoms: N_13  and  C_7 
REMARK    3  A    between atoms: C_12  and  C_21 
REMARK    4  A    between atoms: C_21  and  N_13 
REMARK    5  A    between atoms: O_24  and  C_22 
ROOT
ATOM      1  C   UNL d   1     -47.849  30.001  35.354  0.00  0.00     0.089 A 
ATOM      2  C   UNL d   1     -47.360  30.220  35.978  0.00  0.00     0.302 A 
ATOM      3  C   UNL d   1     -47.994  30.533  34.734  0.00  0.00     0.009 A 
ATOM      4  O   UNL d   1     -47.014  30.973  35.984  0.00  0.00    -0.273 OA
ATOM      5  C   UNL d   1     -47.647  31.282  34.744  0.00  0.00     0.025 A 
ATOM      6  C   UNL d   1     -47.158  31.501  35.368  0.00  0.00     0.103 A 
ATOM      7  O   UNL d   1     -47.209  29.694  36.605  0.00  0.00    -0.259 OA
ATOM      8  C   UNL d   1     -47.793  31.805  34.128  0.00  0.00     0.026 A 
ATOM      9  C   UNL d   1     -46.813  32.245  35.379  0.00  0.00     0.027 A 
ATOM     10  C   UNL d   1     -47.441  32.558  34.144  0.00  0.00     0.094 A 
ATOM     11  C   UNL d   1     -46.956  32.775  34.762  0.00  0.00     0.026 A 
ENDROOT
BRANCH   1  12
ATOM     12  C   UNL d   1     -48.197  29.250  35.344  0.00  0.00     0.140 A 
ATOM     13  S   UNL d   1     -48.368  28.773  34.688  0.00  0.00    -0.026 SA
ATOM     14  C   UNL d   1     -48.711  28.078  34.967  0.00  0.00     0.216 A 
ATOM     15  N   UNL d   1     -48.750  28.130  35.789  0.00  0.00    -0.121 NA
ATOM     16  N   UNL d   1     -48.432  28.852  36.017  0.00  0.00    -0.139 NA
BRANCH  14  17
ATOM     17  N   UNL d   1     -48.972  27.440  34.511  0.00  0.00    -0.216 NA
BRANCH  17  18
ATOM     18  C   UNL d   1     -49.744  27.437  34.215  0.00  0.00     0.126 C 
BRANCH  18  19
ATOM     19  C   UNL d   1     -50.049  26.752  33.858  0.00  0.00     0.119 A 
ATOM     20  O   UNL d   1     -49.710  26.030  33.649  0.00  0.00    -0.304 OA
ATOM     21  C   UNL d   1     -50.289  25.562  33.311  0.00  0.00     0.123 A 
ATOM     22  C   UNL d   1     -50.984  25.981  33.307  0.00  0.00     0.029 A 
ATOM     23  C   UNL d   1     -50.845  26.727  33.646  0.00  0.00     0.028 A 
ENDBRANCH  18  19
ENDBRANCH  17  18
ENDBRANCH  14  17
ENDBRANCH   1  12
BRANCH  10  24
ATOM     24  O   UNL d   1     -47.592  33.079  33.522  0.00  0.00    -0.328 OA
ATOM     25  C   UNL d   1     -48.310  33.489  33.478  0.00  0.00     0.181 C 
ENDBRANCH  10  24
TORSDOF 5
ENDMDL
