MODEL 1
REMARK VINA RESULT:      49.8      0.000      0.000
REMARK  7 active torsions:
REMARK  status: ('A' for Active; 'I' for Inactive)
REMARK    1  A    between atoms: C_8  and  C_2 
REMARK    2  A    between atoms: C_12  and  N_3 
REMARK    3  A    between atoms: C_6  and  C_4 
REMARK       I    between atoms: C_7  and  N_13 
REMARK    4  A    between atoms: C_9  and  C_7 
REMARK    5  A    between atoms: N_13  and  C_8 
REMARK    6  A    between atoms: C_11  and  C_9 
REMARK    7  A    between atoms: C_10  and  C_11 
ROOT
ATOM      1  N   UNL d   1      43.737 -14.911  36.379  0.00  0.00    -0.165 NA
ATOM      2  C   UNL d   1      44.166 -16.109  37.009  0.00  0.00     0.071 A 
ATOM      3  N   UNL d   1      42.791 -15.930  36.668  0.00  0.00    -0.228 N 
ATOM      4  C   UNL d   1      44.334 -15.374  36.704  0.00  0.00     0.105 A 
ATOM      5  C   UNL d   1      43.388 -16.393  36.992  0.00  0.00     0.105 A 
ENDROOT
BRANCH   2   6
ATOM      6  C   UNL d   1      44.763 -16.572  37.333  0.00  0.00     0.168 C 
BRANCH   6   7
ATOM      7  N   UNL d   1      44.698 -16.856  38.113  0.00  0.00    -0.362 NA
ATOM      8  C   UNL d   1      44.636 -17.144  38.898  0.00  0.00     0.329 C 
ATOM      9  O   UNL d   1      44.009 -16.890  39.390  0.00  0.00    -0.251 OA
BRANCH   8  10
ATOM     10  C   UNL d   1      45.203 -17.689  39.193  0.00  0.00     0.082 C 
BRANCH  10  11
ATOM     11  C   UNL d   1      45.088 -18.048  39.946  0.00  0.00     0.076 C 
BRANCH  11  12
ATOM     12  C   UNL d   1      45.723 -18.106  40.482  0.00  0.00     0.211 C 
ATOM     13  O   UNL d   1      46.495 -18.225  40.186  0.00  0.00    -0.644 OA
ATOM     14  O   UNL d   1      45.578 -18.044  41.296  0.00  0.00    -0.644 OA
ENDBRANCH  11  12
ENDBRANCH  10  11
ENDBRANCH   8  10
ENDBRANCH   6   7
ENDBRANCH   2   6
BRANCH   4  15
ATOM     15  C   UNL d   1      45.112 -15.082  36.716  0.00  0.00     0.020 A 
ATOM     16  C   UNL d   1      45.250 -14.314  36.930  0.00  0.00     0.008 A 
ATOM     17  C   UNL d   1      46.019 -14.028  36.942  0.00  0.00     0.035 A 
ATOM     18 BR   UNL d   1      46.167 -13.254  37.157  0.00  0.00    -0.049 Br
ATOM     19  C   UNL d   1      46.646 -14.534  36.732  0.00  0.00     0.007 A 
ATOM     20  C   UNL d   1      46.503 -15.311  36.516  0.00  0.00     0.001 A 
ATOM     21  C   UNL d   1      45.736 -15.586  36.507  0.00  0.00     0.002 A 
ENDBRANCH   4  15
BRANCH   3  22
ATOM     22  C   UNL d   1      41.986 -16.016  36.556  0.00  0.00     0.083 A 
ATOM     23  C   UNL d   1      41.674 -16.772  36.475  0.00  0.00     0.019 A 
ATOM     24  C   UNL d   1      40.860 -16.860  36.362  0.00  0.00     0.002 A 
ATOM     25  C   UNL d   1      40.371 -16.196  36.332  0.00  0.00     0.000 A 
ATOM     26  C   UNL d   1      40.695 -15.442  36.414  0.00  0.00     0.002 A 
ATOM     27  C   UNL d   1      41.502 -15.357  36.526  0.00  0.00     0.019 A 
ENDBRANCH   3  22
TORSDOF 7
ENDMDL
MODEL 2
REMARK VINA RESULT:      51.8      4.362      7.210
REMARK  7 active torsions:
REMARK  status: ('A' for Active; 'I' for Inactive)
REMARK    1  A    between atoms: C_8  and  C_2 
REMARK    2  A    between atoms: C_12  and  N_3 
REMARK    3  A    between atoms: C_6  and  C_4 
REMARK       I    between atoms: C_7  and  N_13 
REMARK    4  A    between atoms: C_9  and  C_7 
REMARK    5  A    between atoms: N_13  and  C_8 
REMARK    6  A    between atoms: C_11  and  C_9 
REMARK    7  A    between atoms: C_10  and  C_11 
ROOT
ATOM      1  N   UNL d   1      45.600 -17.373  44.403  0.00  0.00    -0.165 NA
ATOM      2  C   UNL d   1      46.287 -17.548  43.173  0.00  0.00     0.071 A 
ATOM      3  N   UNL d   1      45.905 -16.240  43.603  0.00  0.00    -0.228 N 
ATOM      4  C   UNL d   1      45.957 -17.862  43.847  0.00  0.00     0.105 A 
ATOM      5  C   UNL d   1      46.262 -16.729  43.047  0.00  0.00     0.105 A 
ENDROOT
BRANCH   2   6
ATOM      6  C   UNL d   1      46.644 -18.036  42.617  0.00  0.00     0.168 C 
BRANCH   6   7
ATOM      7  N   UNL d   1      46.305 -18.132  41.863  0.00  0.00    -0.362 NA
ATOM      8  C   UNL d   1      45.963 -18.223  41.102  0.00  0.00     0.329 C 
ATOM      9  O   UNL d   1      45.935 -18.977  40.743  0.00  0.00    -0.251 OA
BRANCH   8  10
ATOM     10  C   UNL d   1      45.648 -17.557  40.699  0.00  0.00     0.082 C 
BRANCH  10  11
ATOM     11  C   UNL d   1      44.953 -17.640  40.231  0.00  0.00     0.076 C 
BRANCH  11  12
ATOM     12  C   UNL d   1      44.989 -17.529  39.406  0.00  0.00     0.211 C 
ATOM     13  O   UNL d   1      44.473 -17.966  38.915  0.00  0.00    -0.644 OA
ATOM     14  O   UNL d   1      45.533 -16.989  39.089  0.00  0.00    -0.644 OA
ENDBRANCH  11  12
ENDBRANCH  10  11
ENDBRANCH   8  10
ENDBRANCH   6   7
ENDBRANCH   2   6
BRANCH   4  15
ATOM     15  C   UNL d   1      45.977 -18.681  43.981  0.00  0.00     0.020 A 
ATOM     16  C   UNL d   1      45.380 -19.036  44.396  0.00  0.00     0.008 A 
ATOM     17  C   UNL d   1      45.402 -19.846  44.527  0.00  0.00     0.035 A 
ATOM     18 BR   UNL d   1      44.802 -20.212  44.945  0.00  0.00    -0.049 Br
ATOM     19  C   UNL d   1      46.041 -20.290  44.231  0.00  0.00     0.007 A 
ATOM     20  C   UNL d   1      46.644 -19.929  43.811  0.00  0.00     0.001 A 
ATOM     21  C   UNL d   1      46.613 -19.124  43.686  0.00  0.00     0.002 A 
ENDBRANCH   4  15
BRANCH   3  22
ATOM     22  C   UNL d   1      45.777 -15.436  43.671  0.00  0.00     0.083 A 
ATOM     23  C   UNL d   1      45.023 -15.167  43.855  0.00  0.00     0.019 A 
ATOM     24  C   UNL d   1      44.894 -14.353  43.924  0.00  0.00     0.002 A 
ATOM     25  C   UNL d   1      45.515 -13.822  43.809  0.00  0.00     0.000 A 
ATOM     26  C   UNL d   1      46.268 -14.104  43.624  0.00  0.00     0.002 A 
ATOM     27  C   UNL d   1      46.394 -14.911  43.557  0.00  0.00     0.019 A 
ENDBRANCH   3  22
TORSDOF 7
ENDMDL
