MODEL 1
REMARK VINA RESULT:      -5.2      0.000      0.000
REMARK  4 active torsions:
REMARK  status: ('A' for Active; 'I' for Inactive)
REMARK    1  A    between atoms: C_5  and  C_3 
REMARK    2  A    between atoms: S_6  and  C_4 
REMARK    3  A    between atoms: C_10  and  S_6 
REMARK    4  A    between atoms: C_12  and  C_10 
ROOT
ATOM      1  N   UNL d   1      57.477  -0.996  30.688  0.00  0.00    -0.148 NA
ATOM      2  N   UNL d   1      57.003  -0.721  31.305  0.00  0.00    -0.141 NA
ATOM      3  C   UNL d   1      58.012  -0.485  30.315  0.00  0.00     0.104 A 
ATOM      4  C   UNL d   1      57.056   0.057  31.555  0.00  0.00     0.132 A 
ATOM      5  C   UNL d   1      58.067   0.301  30.566  0.00  0.00     0.023 A 
ATOM      6  C   UNL d   1      57.594   0.573  31.181  0.00  0.00     0.029 A 
ENDROOT
BRANCH   4   7
ATOM      7  S   UNL d   1      56.583   0.332  32.172  0.00  0.00    -0.066 SA
BRANCH   7   8
ATOM      8  C   UNL d   1      56.280  -0.190  32.729  0.00  0.00     0.037 C 
BRANCH   8   9
ATOM      9  C   UNL d   1      55.846   0.102  33.369  0.00  0.00     0.006 A 
ATOM     10  C   UNL d   1      56.239   0.384  34.035  0.00  0.00     0.001 A 
ATOM     11  C   UNL d   1      55.816   0.674  34.672  0.00  0.00     0.000 A 
ATOM     12  C   UNL d   1      54.985   0.682  34.640  0.00  0.00     0.000 A 
ATOM     13  C   UNL d   1      54.602   0.400  33.974  0.00  0.00     0.000 A 
ATOM     14  C   UNL d   1      55.039   0.109  33.337  0.00  0.00     0.001 A 
ENDBRANCH   8   9
ENDBRANCH   7   8
ENDBRANCH   4   7
BRANCH   3  15
ATOM     15  C   UNL d   1      58.485  -0.760  29.698  0.00  0.00     0.039 A 
ATOM     16  C   UNL d   1      58.879  -0.229  29.224  0.00  0.00     0.101 A 
ATOM     17  N   UNL d   1      59.350  -0.497  28.610  0.00  0.00    -0.242 NA
ATOM     18  C   UNL d   1      59.424  -1.315  28.474  0.00  0.00     0.099 A 
ATOM     19  C   UNL d   1      59.026  -1.845  28.953  0.00  0.00     0.021 A 
ATOM     20  C   UNL d   1      58.550  -1.579  29.573  0.00  0.00     0.005 A 
ENDBRANCH   3  15
TORSDOF 4
ENDMDL
MODEL 2
REMARK VINA RESULT:      -4.9      1.278      5.107
REMARK  4 active torsions:
REMARK  status: ('A' for Active; 'I' for Inactive)
REMARK    1  A    between atoms: C_5  and  C_3 
REMARK    2  A    between atoms: S_6  and  C_4 
REMARK    3  A    between atoms: C_10  and  S_6 
REMARK    4  A    between atoms: C_12  and  C_10 
ROOT
ATOM      1  N   UNL d   1      57.012  -0.710  31.179  0.00  0.00    -0.148 NA
ATOM      2  N   UNL d   1      57.562  -0.562  30.583  0.00  0.00    -0.141 NA
ATOM      3  C   UNL d   1      56.904  -0.160  31.790  0.00  0.00     0.104 A 
ATOM      4  C   UNL d   1      58.005   0.127  30.586  0.00  0.00     0.132 A 
ATOM      5  C   UNL d   1      57.350   0.536  31.796  0.00  0.00     0.023 A 
ATOM      6  C   UNL d   1      57.897   0.681  31.199  0.00  0.00     0.029 A 
ENDROOT
BRANCH   4   7
ATOM      7  S   UNL d   1      58.555   0.275  29.989  0.00  0.00    -0.066 SA
BRANCH   7   8
ATOM      8  C   UNL d   1      58.945  -0.346  29.620  0.00  0.00     0.037 C 
BRANCH   8   9
ATOM      9  C   UNL d   1      59.660  -0.204  29.230  0.00  0.00     0.006 A 
ATOM     10  C   UNL d   1      59.780   0.513  28.844  0.00  0.00     0.001 A 
ATOM     11  C   UNL d   1      60.485   0.661  28.455  0.00  0.00     0.000 A 
ATOM     12  C   UNL d   1      61.079   0.078  28.455  0.00  0.00     0.000 A 
ATOM     13  C   UNL d   1      60.952  -0.631  28.841  0.00  0.00     0.000 A 
ATOM     14  C   UNL d   1      60.237  -0.769  29.230  0.00  0.00     0.001 A 
ENDBRANCH   8   9
ENDBRANCH   7   8
ENDBRANCH   4   7
BRANCH   3  15
ATOM     15  C   UNL d   1      56.354  -0.308  32.387  0.00  0.00     0.039 A 
ATOM     16  C   UNL d   1      56.170  -1.077  32.585  0.00  0.00     0.101 A 
ATOM     17  N   UNL d   1      55.625  -1.228  33.176  0.00  0.00    -0.242 NA
ATOM     18  C   UNL d   1      55.261  -0.595  33.575  0.00  0.00     0.099 A 
ATOM     19  C   UNL d   1      55.448   0.175  33.373  0.00  0.00     0.021 A 
ATOM     20  C   UNL d   1      55.998   0.333  32.777  0.00  0.00     0.005 A 
ENDBRANCH   3  15
TORSDOF 4
ENDMDL
MODEL 3
REMARK VINA RESULT:      -3.2      9.682      9.917
REMARK  4 active torsions:
REMARK  status: ('A' for Active; 'I' for Inactive)
REMARK    1  A    between atoms: C_5  and  C_3 
REMARK    2  A    between atoms: S_6  and  C_4 
REMARK    3  A    between atoms: C_10  and  S_6 
REMARK    4  A    between atoms: C_12  and  C_10 
ROOT
ATOM      1  N   UNL d   1      59.136  -9.816  31.546  0.00  0.00    -0.148 NA
ATOM      2  N   UNL d   1      59.444  -9.816  32.312  0.00  0.00    -0.141 NA
ATOM      3  C   UNL d   1      58.315  -9.814  31.429  0.00  0.00     0.104 A 
ATOM      4  C   UNL d   1      58.945  -9.815  32.962  0.00  0.00     0.132 A 
ATOM      5  C   UNL d   1      57.810  -9.813  32.083  0.00  0.00     0.023 A 
ATOM      6  C   UNL d   1      58.120  -9.813  32.845  0.00  0.00     0.029 A 
ENDROOT
BRANCH   4   7
ATOM      7  S   UNL d   1      59.253  -9.815  33.727  0.00  0.00    -0.066 SA
BRANCH   7   8
ATOM      8  C   UNL d   1      59.498  -9.114  34.077  0.00  0.00     0.037 C 
BRANCH   8   9
ATOM      9  C   UNL d   1      59.839  -9.131  34.830  0.00  0.00     0.006 A 
ATOM     10  C   UNL d   1      59.367  -9.022  35.495  0.00  0.00     0.001 A 
ATOM     11  C   UNL d   1      59.697  -9.037  36.243  0.00  0.00     0.000 A 
ATOM     12  C   UNL d   1      60.515  -9.165  36.325  0.00  0.00     0.000 A 
ATOM     13  C   UNL d   1      60.977  -9.273  35.659  0.00  0.00     0.000 A 
ATOM     14  C   UNL d   1      60.633  -9.255  34.908  0.00  0.00     0.001 A 
ENDBRANCH   8   9
ENDBRANCH   7   8
ENDBRANCH   4   7
BRANCH   3  15
ATOM     15  C   UNL d   1      58.008  -9.814  30.663  0.00  0.00     0.039 A 
ATOM     16  C   UNL d   1      58.513  -9.811  30.025  0.00  0.00     0.101 A 
ATOM     17  N   UNL d   1      58.213  -9.810  29.264  0.00  0.00    -0.242 NA
ATOM     18  C   UNL d   1      57.389  -9.813  29.145  0.00  0.00     0.099 A 
ATOM     19  C   UNL d   1      56.885  -9.816  29.789  0.00  0.00     0.021 A 
ATOM     20  C   UNL d   1      57.184  -9.816  30.559  0.00  0.00     0.005 A 
ENDBRANCH   3  15
TORSDOF 4
ENDMDL
MODEL 4
REMARK VINA RESULT:      -2.7      9.438     10.841
REMARK  4 active torsions:
REMARK  status: ('A' for Active; 'I' for Inactive)
REMARK    1  A    between atoms: C_5  and  C_3 
REMARK    2  A    between atoms: S_6  and  C_4 
REMARK    3  A    between atoms: C_10  and  S_6 
REMARK    4  A    between atoms: C_12  and  C_10 
ROOT
ATOM      1  N   UNL d   1      59.551  -9.589  33.466  0.00  0.00    -0.148 NA
ATOM      2  N   UNL d   1      59.677  -9.784  32.675  0.00  0.00    -0.141 NA
ATOM      3  C   UNL d   1      60.152  -9.226  33.906  0.00  0.00     0.104 A 
ATOM      4  C   UNL d   1      60.396  -9.623  32.315  0.00  0.00     0.132 A 
ATOM      5  C   UNL d   1      60.878  -9.062  33.546  0.00  0.00     0.023 A 
ATOM      6  C   UNL d   1      61.002  -9.258  32.756  0.00  0.00     0.029 A 
ENDROOT
BRANCH   4   7
ATOM      7  S   UNL d   1      60.522  -9.818  31.524  0.00  0.00    -0.066 SA
BRANCH   7   8
ATOM      8  C   UNL d   1      59.899  -9.814  30.990  0.00  0.00     0.037 C 
BRANCH   8   9
ATOM      9  C   UNL d   1      60.057  -9.792  30.179  0.00  0.00     0.006 A 
ATOM     10  C   UNL d   1      59.434  -9.771  29.641  0.00  0.00     0.001 A 
ATOM     11  C   UNL d   1      59.582  -9.750  28.837  0.00  0.00     0.000 A 
ATOM     12  C   UNL d   1      60.370  -9.749  28.568  0.00  0.00     0.000 A 
ATOM     13  C   UNL d   1      60.983  -9.770  29.109  0.00  0.00     0.000 A 
ATOM     14  C   UNL d   1      60.821  -9.791  29.919  0.00  0.00     0.001 A 
ENDBRANCH   8   9
ENDBRANCH   7   8
ENDBRANCH   4   7
BRANCH   3  15
ATOM     15  C   UNL d   1      60.025  -9.031  34.698  0.00  0.00     0.039 A 
ATOM     16  C   UNL d   1      60.039  -9.615  35.264  0.00  0.00     0.101 A 
ATOM     17  N   UNL d   1      59.914  -9.426  36.051  0.00  0.00    -0.242 NA
ATOM     18  C   UNL d   1      59.772  -8.635  36.268  0.00  0.00     0.099 A 
ATOM     19  C   UNL d   1      59.759  -8.052  35.695  0.00  0.00     0.021 A 
ATOM     20  C   UNL d   1      59.885  -8.238  34.900  0.00  0.00     0.005 A 
ENDBRANCH   3  15
TORSDOF 4
ENDMDL
