MODEL 1
REMARK VINA RESULT:      -9.8      0.000      0.000
REMARK  5 active torsions:
REMARK  status: ('A' for Active; 'I' for Inactive)
REMARK    1  A    between atoms: C_4  and  S_1 
REMARK    2  A    between atoms: N_5  and  S_1 
REMARK    3  A    between atoms: C_2  and  C_9 
REMARK       I    between atoms: N_3  and  C_2 
REMARK    4  A    between atoms: C_14  and  N_5 
REMARK    5  A    between atoms: C_15  and  C_14 
ROOT
ATOM      1  C   UNL d   1      52.007  33.334  52.997  0.00  0.00     0.057 A 
ATOM      2  C   UNL d   1      51.939  33.982  52.485  0.00  0.00     0.005 A 
ATOM      3  C   UNL d   1      51.345  33.056  53.402  0.00  0.00     0.005 A 
ATOM      4  C   UNL d   1      50.545  34.070  52.785  0.00  0.00     0.020 A 
ATOM      5  C   UNL d   1      51.206  34.349  52.381  0.00  0.00     0.002 A 
ATOM      6  C   UNL d   1      50.608  33.427  53.294  0.00  0.00     0.002 A 
ENDROOT
BRANCH   4   7
ATOM      7  C   UNL d   1      49.806  34.435  52.683  0.00  0.00     0.112 C 
BRANCH   7   8
ATOM      8  N   UNL d   1      49.681  35.187  53.002  0.00  0.00    -0.157 NA
BRANCH   8   9
ATOM      9  S   UNL d   1      48.910  35.514  53.003  0.00  0.00     0.285 S 
ATOM     10  O   UNL d   1      48.739  35.105  52.299  0.00  0.00    -0.198 OA
ATOM     11  O   UNL d   1      49.087  35.920  53.705  0.00  0.00    -0.198 OA
BRANCH   9  12
ATOM     12  C   UNL d   1      48.145  35.838  53.002  0.00  0.00     0.106 A 
ATOM     13  C   UNL d   1      47.731  35.908  53.715  0.00  0.00     0.024 A 
ATOM     14  C   UNL d   1      46.970  36.229  53.722  0.00  0.00     0.059 A 
ATOM     15 CL   UNL d   1      46.552  36.302  54.431  0.00  0.00    -0.082 Cl
ATOM     16  C   UNL d   1      46.627  36.477  53.015  0.00  0.00     0.011 A 
ATOM     17  C   UNL d   1      47.040  36.406  52.306  0.00  0.00     0.002 A 
ATOM     18  C   UNL d   1      47.799  36.086  52.304  0.00  0.00     0.013 A 
ENDBRANCH   9  12
ENDBRANCH   8   9
ENDBRANCH   7   8
ENDBRANCH   4   7
BRANCH   1  19
ATOM     19  C   UNL d   1      52.750  32.958  53.107  0.00  0.00     0.265 C 
ATOM     20  N   UNL d   1      53.255  33.214  53.714  0.00  0.00    -0.272 N 
ATOM     21  C   UNL d   1      53.030  33.835  54.206  0.00  0.00     0.083 A 
ATOM     22  C   UNL d   1      53.987  32.844  53.823  0.00  0.00     0.083 A 
ATOM     23  C   UNL d   1      53.531  34.084  54.802  0.00  0.00     0.019 A 
ATOM     24  C   UNL d   1      54.255  33.716  54.909  0.00  0.00     0.003 A 
ATOM     25  C   UNL d   1      54.491  33.099  54.427  0.00  0.00     0.019 A 
ATOM     26  O   UNL d   1      52.977  32.328  52.607  0.00  0.00    -0.267 OA
ENDBRANCH   1  19
TORSDOF 5
ENDMDL
MODEL 2
REMARK VINA RESULT:      -8.9      0.888      1.303
REMARK  5 active torsions:
REMARK  status: ('A' for Active; 'I' for Inactive)
REMARK    1  A    between atoms: C_4  and  S_1 
REMARK    2  A    between atoms: N_5  and  S_1 
REMARK    3  A    between atoms: C_2  and  C_9 
REMARK       I    between atoms: N_3  and  C_2 
REMARK    4  A    between atoms: C_14  and  N_5 
REMARK    5  A    between atoms: C_15  and  C_14 
ROOT
ATOM      1  C   UNL d   1      52.072  33.620  53.203  0.00  0.00     0.057 A 
ATOM      2  C   UNL d   1      51.995  34.042  52.495  0.00  0.00     0.005 A 
ATOM      3  C   UNL d   1      51.410  33.479  53.674  0.00  0.00     0.005 A 
ATOM      4  C   UNL d   1      50.592  34.181  52.732  0.00  0.00     0.020 A 
ATOM      5  C   UNL d   1      51.253  34.322  52.261  0.00  0.00     0.002 A 
ATOM      6  C   UNL d   1      50.665  33.762  53.436  0.00  0.00     0.002 A 
ENDROOT
BRANCH   4   7
ATOM      7  C   UNL d   1      49.846  34.461  52.501  0.00  0.00     0.112 C 
BRANCH   7   8
ATOM      8  N   UNL d   1      49.575  35.182  52.800  0.00  0.00    -0.157 NA
BRANCH   8   9
ATOM      9  S   UNL d   1      48.792  35.430  52.638  0.00  0.00     0.285 S 
ATOM     10  O   UNL d   1      48.776  34.935  51.969  0.00  0.00    -0.198 OA
ATOM     11  O   UNL d   1      48.813  35.923  53.306  0.00  0.00    -0.198 OA
BRANCH   9  12
ATOM     12  C   UNL d   1      48.015  35.676  52.475  0.00  0.00     0.106 A 
ATOM     13  C   UNL d   1      47.558  36.008  53.079  0.00  0.00     0.024 A 
ATOM     14  C   UNL d   1      46.785  36.254  52.924  0.00  0.00     0.059 A 
ATOM     15 CL   UNL d   1      46.322  36.587  53.524  0.00  0.00    -0.082 Cl
ATOM     16  C   UNL d   1      46.473  36.167  52.166  0.00  0.00     0.011 A 
ATOM     17  C   UNL d   1      46.931  35.835  51.567  0.00  0.00     0.002 A 
ATOM     18  C   UNL d   1      47.700  35.591  51.725  0.00  0.00     0.013 A 
ENDBRANCH   9  12
ENDBRANCH   8   9
ENDBRANCH   7   8
ENDBRANCH   4   7
BRANCH   1  19
ATOM     19  C   UNL d   1      52.823  33.333  53.445  0.00  0.00     0.265 C 
ATOM     20  N   UNL d   1      53.007  32.529  53.348  0.00  0.00    -0.272 N 
ATOM     21  C   UNL d   1      52.457  32.015  53.016  0.00  0.00     0.083 A 
ATOM     22  C   UNL d   1      53.747  32.246  53.586  0.00  0.00     0.083 A 
ATOM     23  C   UNL d   1      52.643  31.224  52.923  0.00  0.00     0.019 A 
ATOM     24  C   UNL d   1      53.376  30.945  53.159  0.00  0.00     0.003 A 
ATOM     25  C   UNL d   1      53.932  31.446  53.490  0.00  0.00     0.019 A 
ATOM     26  O   UNL d   1      53.381  33.856  53.782  0.00  0.00    -0.267 OA
ENDBRANCH   1  19
TORSDOF 5
ENDMDL
MODEL 3
REMARK VINA RESULT:      -8.6      2.204      5.769
REMARK  5 active torsions:
REMARK  status: ('A' for Active; 'I' for Inactive)
REMARK    1  A    between atoms: C_4  and  S_1 
REMARK    2  A    between atoms: N_5  and  S_1 
REMARK    3  A    between atoms: C_2  and  C_9 
REMARK       I    between atoms: N_3  and  C_2 
REMARK    4  A    between atoms: C_14  and  N_5 
REMARK    5  A    between atoms: C_15  and  C_14 
ROOT
ATOM      1  C   UNL d   1      49.357  34.543  51.803  0.00  0.00     0.057 A 
ATOM      2  C   UNL d   1      49.429  34.383  52.612  0.00  0.00     0.005 A 
ATOM      3  C   UNL d   1      50.028  34.583  51.327  0.00  0.00     0.005 A 
ATOM      4  C   UNL d   1      50.849  34.303  52.466  0.00  0.00     0.020 A 
ATOM      5  C   UNL d   1      50.178  34.263  52.942  0.00  0.00     0.002 A 
ATOM      6  C   UNL d   1      50.780  34.462  51.662  0.00  0.00     0.002 A 
ENDROOT
BRANCH   4   7
ATOM      7  C   UNL d   1      51.602  34.183  52.794  0.00  0.00     0.112 C 
BRANCH   7   8
ATOM      8  N   UNL d   1      51.752  33.491  53.219  0.00  0.00    -0.157 NA
BRANCH   8   9
ATOM      9  S   UNL d   1      52.528  33.326  53.483  0.00  0.00     0.285 S 
ATOM     10  O   UNL d   1      52.624  34.125  53.694  0.00  0.00    -0.198 OA
ATOM     11  O   UNL d   1      52.428  32.529  53.270  0.00  0.00    -0.198 OA
BRANCH   9  12
ATOM     12  C   UNL d   1      53.300  33.163  53.745  0.00  0.00     0.106 A 
ATOM     13  C   UNL d   1      53.487  33.251  54.545  0.00  0.00     0.024 A 
ATOM     14  C   UNL d   1      54.252  33.091  54.812  0.00  0.00     0.059 A 
ATOM     15 CL   UNL d   1      54.444  33.178  55.612  0.00  0.00    -0.082 Cl
ATOM     16  C   UNL d   1      54.827  32.843  54.276  0.00  0.00     0.011 A 
ATOM     17  C   UNL d   1      54.639  32.756  53.479  0.00  0.00     0.002 A 
ATOM     18  C   UNL d   1      53.875  32.917  53.217  0.00  0.00     0.013 A 
ENDBRANCH   9  12
ENDBRANCH   8   9
ENDBRANCH   7   8
ENDBRANCH   4   7
BRANCH   1  19
ATOM     19  C   UNL d   1      48.598  34.665  51.462  0.00  0.00     0.265 C 
ATOM     20  N   UNL d   1      48.112  35.273  51.751  0.00  0.00    -0.272 N 
ATOM     21  C   UNL d   1      48.369  35.753  52.367  0.00  0.00     0.083 A 
ATOM     22  C   UNL d   1      47.364  35.394  51.416  0.00  0.00     0.083 A 
ATOM     23  C   UNL d   1      47.886  36.350  52.648  0.00  0.00     0.019 A 
ATOM     24  C   UNL d   1      47.147  36.469  52.316  0.00  0.00     0.003 A 
ATOM     25  C   UNL d   1      46.878  35.998  51.702  0.00  0.00     0.019 A 
ATOM     26  O   UNL d   1      48.337  34.177  50.836  0.00  0.00    -0.267 OA
ENDBRANCH   1  19
TORSDOF 5
ENDMDL
MODEL 4
REMARK VINA RESULT:      -7.4      2.142      5.968
REMARK  5 active torsions:
REMARK  status: ('A' for Active; 'I' for Inactive)
REMARK    1  A    between atoms: C_4  and  S_1 
REMARK    2  A    between atoms: N_5  and  S_1 
REMARK    3  A    between atoms: C_2  and  C_9 
REMARK       I    between atoms: N_3  and  C_2 
REMARK    4  A    between atoms: C_14  and  N_5 
REMARK    5  A    between atoms: C_15  and  C_14 
ROOT
ATOM      1  C   UNL d   1      47.969  35.747  52.337  0.00  0.00     0.057 A 
ATOM      2  C   UNL d   1      48.215  35.094  51.892  0.00  0.00     0.005 A 
ATOM      3  C   UNL d   1      48.378  35.960  53.020  0.00  0.00     0.005 A 
ATOM      4  C   UNL d   1      49.282  34.869  52.816  0.00  0.00     0.020 A 
ATOM      5  C   UNL d   1      48.873  34.655  52.133  0.00  0.00     0.002 A 
ATOM      6  C   UNL d   1      49.040  35.517  53.261  0.00  0.00     0.002 A 
ENDROOT
BRANCH   4   7
ATOM      7  C   UNL d   1      49.943  34.431  53.062  0.00  0.00     0.112 C 
BRANCH   7   8
ATOM      8  N   UNL d   1      50.590  34.357  52.553  0.00  0.00    -0.157 NA
BRANCH   8   9
ATOM      9  S   UNL d   1      51.290  33.988  52.824  0.00  0.00     0.285 S 
ATOM     10  O   UNL d   1      50.841  33.524  53.347  0.00  0.00    -0.198 OA
ATOM     11  O   UNL d   1      51.735  34.454  52.300  0.00  0.00    -0.198 OA
BRANCH   9  12
ATOM     12  C   UNL d   1      51.986  33.621  53.094  0.00  0.00     0.106 A 
ATOM     13  C   UNL d   1      52.145  32.840  52.877  0.00  0.00     0.024 A 
ATOM     14  C   UNL d   1      52.835  32.469  53.142  0.00  0.00     0.059 A 
ATOM     15 CL   UNL d   1      52.999  31.688  52.928  0.00  0.00    -0.082 Cl
ATOM     16  C   UNL d   1      53.360  32.883  53.623  0.00  0.00     0.011 A 
ATOM     17  C   UNL d   1      53.199  33.662  53.838  0.00  0.00     0.002 A 
ATOM     18  C   UNL d   1      52.512  34.027  53.571  0.00  0.00     0.013 A 
ENDBRANCH   9  12
ENDBRANCH   8   9
ENDBRANCH   7   8
ENDBRANCH   4   7
BRANCH   1  19
ATOM     19  C   UNL d   1      47.301  36.196  52.096  0.00  0.00     0.265 C 
ATOM     20  N   UNL d   1      46.587  36.126  52.513  0.00  0.00    -0.272 N 
ATOM     21  C   UNL d   1      46.531  35.620  53.160  0.00  0.00     0.083 A 
ATOM     22  C   UNL d   1      45.928  36.568  52.276  0.00  0.00     0.083 A 
ATOM     23  C   UNL d   1      45.825  35.555  53.567  0.00  0.00     0.019 A 
ATOM     24  C   UNL d   1      45.175  35.992  53.331  0.00  0.00     0.003 A 
ATOM     25  C   UNL d   1      45.216  36.499  52.690  0.00  0.00     0.019 A 
ATOM     26  O   UNL d   1      47.358  36.710  51.440  0.00  0.00    -0.267 OA
ENDBRANCH   1  19
TORSDOF 5
ENDMDL
