MODEL 1
REMARK VINA RESULT:     129.5      0.000      0.000
REMARK  5 active torsions:
REMARK  status: ('A' for Active; 'I' for Inactive)
REMARK    1  A    between atoms: N_7  and  C_1 
REMARK    2  A    between atoms: C_13  and  C_2 
REMARK    3  A    between atoms: N_4  and  C_9 
REMARK       I    between atoms: C_10  and  N_7 
REMARK       I    between atoms: C_15  and  N_8 
REMARK    4  A    between atoms: C_18  and  C_10 
REMARK    5  A    between atoms: O_27  and  C_13 
ROOT
ATOM      1  C   UNL d   1      60.076  48.010  50.574  0.00  0.00     0.119 A 
ATOM      2  C   UNL d   1      59.998  48.786  50.837  0.00  0.00     0.088 A 
ATOM      3  C   UNL d   1      58.770  48.300  50.632  0.00  0.00     0.049 A 
ATOM      4  C   UNL d   1      59.189  48.964  50.872  0.00  0.00     0.016 A 
ATOM      5  S   UNL d   1      59.315  47.705  50.446  0.00  0.00    -0.066 SA
ATOM      6  N   UNL d   1      57.538  48.997  50.831  0.00  0.00    -0.272 N 
ATOM      7  C   UNL d   1      57.935  48.322  50.613  0.00  0.00     0.089 A 
ATOM      8  C   UNL d   1      56.713  49.027  50.815  0.00  0.00     0.265 C 
ATOM      9  C   UNL d   1      58.785  49.656  51.096  0.00  0.00     0.020 A 
ATOM     10  C   UNL d   1      57.966  49.670  51.074  0.00  0.00     0.083 A 
ATOM     11  O   UNL d   1      56.289  48.362  50.574  0.00  0.00    -0.267 OA
ATOM     12  C   UNL d   1      56.309  49.706  51.034  0.00  0.00     0.066 C 
ENDROOT
BRANCH   1  13
ATOM     13  N   UNL d   1      60.787  47.600  50.457  0.00  0.00    -0.201 NA
ATOM     14  C   UNL d   1      60.780  46.883  50.043  0.00  0.00     0.280 C 
ATOM     15  O   UNL d   1      60.076  46.572  49.747  0.00  0.00    -0.265 OA
BRANCH  14  16
ATOM     16  C   UNL d   1      61.488  46.474  49.926  0.00  0.00     0.059 A 
ATOM     17  C   UNL d   1      61.538  45.684  50.137  0.00  0.00     0.022 A 
ATOM     18  C   UNL d   1      62.245  45.276  50.020  0.00  0.00     0.070 A 
ATOM     19  C   UNL d   1      62.902  45.658  49.692  0.00  0.00     0.018 A 
ATOM     20  C   UNL d   1      62.841  46.463  49.480  0.00  0.00     0.002 A 
ATOM     21  C   UNL d   1      62.134  46.871  49.597  0.00  0.00     0.005 A 
BRANCH  18  22
ATOM     22  N   UNL d   1      62.308  44.475  50.229  0.00  0.00    -0.242 N 
ATOM     23  C   UNL d   1      61.983  44.090  50.878  0.00  0.00     0.267 A 
ATOM     24  C   UNL d   1      62.202  43.295  50.845  0.00  0.00     0.066 A 
ATOM     25  O   UNL d   1      61.522  44.417  51.466  0.00  0.00    -0.267 OA
ATOM     26  C   UNL d   1      62.662  43.194  50.174  0.00  0.00     0.066 A 
ATOM     27  C   UNL d   1      62.738  43.934  49.773  0.00  0.00     0.267 A 
ATOM     28  O   UNL d   1      63.147  44.086  49.083  0.00  0.00    -0.267 OA
ENDBRANCH  18  22
ENDBRANCH  14  16
ENDBRANCH   1  13
BRANCH   2  29
ATOM     29  C   UNL d   1      60.617  49.289  51.028  0.00  0.00     0.298 C 
ATOM     30  O   UNL d   1      61.181  49.475  50.451  0.00  0.00    -0.259 OA
BRANCH  29  31
ATOM     31  O   UNL d   1      60.674  49.609  51.794  0.00  0.00    -0.296 OA
ATOM     32  C   UNL d   1      61.416  49.702  52.152  0.00  0.00     0.185 C 
ENDBRANCH  29  31
ENDBRANCH   2  29
TORSDOF 5
ENDMDL
