MODEL 1
REMARK VINA RESULT:      59.4      0.000      0.000
REMARK  6 active torsions:
REMARK  status: ('A' for Active; 'I' for Inactive)
REMARK    1  A    between atoms: N_4  and  S_1 
REMARK    2  A    between atoms: C_12  and  S_1 
REMARK    3  A    between atoms: N_3  and  C_2 
REMARK    4  A    between atoms: C_7  and  N_4 
REMARK    5  A    between atoms: C_6  and  C_8 
REMARK       I    between atoms: C_8  and  N_13 
REMARK    6  A    between atoms: N_13  and  C_22 
ROOT
ATOM      1  C   UNL d   1     -49.721  26.691  33.938  0.00  0.00     0.106 A 
ATOM      2  C   UNL d   1     -49.542  26.731  34.735  0.00  0.00     0.015 A 
ATOM      3  C   UNL d   1     -49.603  27.343  33.443  0.00  0.00     0.015 A 
ATOM      4  C   UNL d   1     -49.119  28.087  34.562  0.00  0.00     0.085 A 
ATOM      5  C   UNL d   1     -49.301  28.043  33.758  0.00  0.00     0.020 A 
ATOM      6  C   UNL d   1     -49.239  27.431  35.050  0.00  0.00     0.020 A 
ENDROOT
BRANCH   1   7
ATOM      7  S   UNL d   1     -50.023  25.991  33.623  0.00  0.00     0.300 S 
ATOM      8  O   UNL d   1     -49.274  25.646  33.649  0.00  0.00    -0.198 OA
ATOM      9  O   UNL d   1     -50.781  26.325  33.591  0.00  0.00    -0.198 OA
BRANCH   7  10
ATOM     10  N   UNL d   1     -50.332  25.287  33.306  0.00  0.00     0.034 NA
BRANCH  10  11
ATOM     11  C   UNL d   1     -51.142  25.135  33.345  0.00  0.00     0.760 A 
ATOM     12  N   UNL d   1     -51.418  24.346  33.425  0.00  0.00    -0.059 NA
ATOM     13  C   UNL d   1     -52.228  24.193  33.465  0.00  0.00     0.102 A 
ATOM     14  C   UNL d   1     -52.500  23.416  33.544  0.00  0.00     0.021 C 
ATOM     15  C   UNL d   1     -52.766  24.818  33.425  0.00  0.00     0.041 A 
ATOM     16  C   UNL d   1     -52.490  25.606  33.345  0.00  0.00     0.120 A 
ATOM     17  N   UNL d   1     -51.683  25.751  33.307  0.00  0.00    -0.057 NA
ENDBRANCH  10  11
ENDBRANCH   7  10
ENDBRANCH   1   7
BRANCH   4  18
ATOM     18  N   UNL d   1     -48.813  28.798  34.878  0.00  0.00    -0.208 NA
ATOM     19  C   UNL d   1     -47.997  28.936  34.880  0.00  0.00     0.285 C 
ATOM     20  O   UNL d   1     -47.488  28.364  34.567  0.00  0.00    -0.265 OA
BRANCH  19  21
ATOM     21  C   UNL d   1     -47.699  29.639  35.193  0.00  0.00     0.089 A 
ATOM     22  S   UNL d   1     -47.752  30.392  34.845  0.00  0.00    -0.059 SA
ATOM     23  C   UNL d   1     -47.375  30.921  35.359  0.00  0.00     0.156 A 
ATOM     24  C   UNL d   1     -47.096  30.492  36.012  0.00  0.00     0.031 A 
ATOM     25  C   UNL d   1     -47.300  29.714  35.899  0.00  0.00     0.014 A 
BRANCH  23  26
ATOM     26  N   UNL d   1     -47.297  31.744  35.227  0.00  0.00    -0.107 N 
ATOM     27  O   UNL d   1     -47.818  32.142  34.722  0.00  0.00    -0.531 OA
ATOM     28  O   UNL d   1     -46.690  32.158  35.611  0.00  0.00    -0.531 OA
ENDBRANCH  23  26
ENDBRANCH  19  21
ENDBRANCH   4  18
TORSDOF 6
ENDMDL
MODEL 2
REMARK VINA RESULT:      59.7      1.591      2.439
REMARK  6 active torsions:
REMARK  status: ('A' for Active; 'I' for Inactive)
REMARK    1  A    between atoms: N_4  and  S_1 
REMARK    2  A    between atoms: C_12  and  S_1 
REMARK    3  A    between atoms: N_3  and  C_2 
REMARK    4  A    between atoms: C_7  and  N_4 
REMARK    5  A    between atoms: C_6  and  C_8 
REMARK       I    between atoms: C_8  and  N_13 
REMARK    6  A    between atoms: N_13  and  C_22 
ROOT
ATOM      1  C   UNL d   1     -51.146  25.107  33.538  0.00  0.00     0.106 A 
ATOM      2  C   UNL d   1     -50.336  25.087  33.428  0.00  0.00     0.015 A 
ATOM      3  C   UNL d   1     -51.529  25.805  33.758  0.00  0.00     0.015 A 
ATOM      4  C   UNL d   1     -50.270  26.478  33.758  0.00  0.00     0.085 A 
ATOM      5  C   UNL d   1     -51.087  26.494  33.868  0.00  0.00     0.020 A 
ATOM      6  C   UNL d   1     -49.894  25.776  33.538  0.00  0.00     0.020 A 
ENDROOT
BRANCH   1   7
ATOM      7  S   UNL d   1     -51.588  24.418  33.427  0.00  0.00     0.300 S 
ATOM      8  O   UNL d   1     -52.272  24.864  33.311  0.00  0.00    -0.198 OA
ATOM      9  O   UNL d   1     -50.909  23.957  33.543  0.00  0.00    -0.198 OA
BRANCH   7  10
ATOM     10  N   UNL d   1     -52.029  23.721  33.317  0.00  0.00     0.034 NA
BRANCH  10  11
ATOM     11  C   UNL d   1     -52.715  23.591  33.756  0.00  0.00     0.760 A 
ATOM     12  N   UNL d   1     -52.672  23.521  34.591  0.00  0.00    -0.059 NA
ATOM     13  C   UNL d   1     -53.358  23.391  35.031  0.00  0.00     0.102 A 
ATOM     14  C   UNL d   1     -53.316  23.322  35.854  0.00  0.00     0.021 C 
ATOM     15  C   UNL d   1     -54.086  23.329  34.647  0.00  0.00     0.041 A 
ATOM     16  C   UNL d   1     -54.129  23.398  33.812  0.00  0.00     0.120 A 
ATOM     17  N   UNL d   1     -53.442  23.528  33.381  0.00  0.00    -0.057 NA
ENDBRANCH  10  11
ENDBRANCH   7  10
ENDBRANCH   1   7
BRANCH   4  18
ATOM     18  N   UNL d   1     -49.825  27.177  33.870  0.00  0.00    -0.208 NA
ATOM     19  C   UNL d   1     -49.624  27.426  34.633  0.00  0.00     0.285 C 
ATOM     20  O   UNL d   1     -49.868  26.976  35.283  0.00  0.00    -0.265 OA
BRANCH  19  21
ATOM     21  C   UNL d   1     -49.185  28.116  34.740  0.00  0.00     0.089 A 
ATOM     22  S   UNL d   1     -48.570  28.226  35.289  0.00  0.00    -0.059 SA
ATOM     23  C   UNL d   1     -48.298  29.003  35.192  0.00  0.00     0.156 A 
ATOM     24  C   UNL d   1     -48.744  29.360  34.591  0.00  0.00     0.031 A 
ATOM     25  C   UNL d   1     -49.280  28.810  34.324  0.00  0.00     0.014 A 
BRANCH  23  26
ATOM     26  N   UNL d   1     -47.679  29.352  35.634  0.00  0.00    -0.107 N 
ATOM     27  O   UNL d   1     -47.671  29.306  36.460  0.00  0.00    -0.531 OA
ATOM     28  O   UNL d   1     -47.070  29.747  35.233  0.00  0.00    -0.531 OA
ENDBRANCH  23  26
ENDBRANCH  19  21
ENDBRANCH   4  18
TORSDOF 6
ENDMDL
