MODEL 1
REMARK VINA RESULT:      -9.2      0.000      0.000
REMARK  3 active torsions:
REMARK  status: ('A' for Active; 'I' for Inactive)
REMARK    1  A    between atoms: N_2  and  S_1 
REMARK    2  A    between atoms: N_3  and  S_1 
REMARK    3  A    between atoms: C_4  and  N_2 
ROOT
ATOM      1  S   UNL d   1      52.986  32.231  53.240  0.00  0.00     0.351 S 
ATOM      2  O   UNL d   1      52.820  32.103  52.444  0.00  0.00    -0.180 OA
ATOM      3  O   UNL d   1      53.153  32.365  54.039  0.00  0.00    -0.180 OA
ENDROOT
BRANCH   1   4
ATOM      4  N   UNL d   1      52.946  33.051  53.190  0.00  0.00    -0.144 NA
BRANCH   4   5
ATOM      5  C   UNL d   1      52.206  33.434  53.119  0.00  0.00     0.095 A 
ATOM      6  C   UNL d   1      52.169  34.240  52.904  0.00  0.00     0.018 A 
ATOM      7  C   UNL d   1      51.436  34.616  52.822  0.00  0.00     0.002 A 
ATOM      8  C   UNL d   1      52.868  34.691  52.900  0.00  0.00     0.002 C 
ATOM      9  C   UNL d   1      50.735  34.187  52.962  0.00  0.00     0.000 A 
ATOM     10  C   UNL d   1      50.757  33.378  53.176  0.00  0.00     0.002 A 
ATOM     11  C   UNL d   1      50.008  34.573  52.895  0.00  0.00     0.000 C 
ATOM     12  C   UNL d   1      51.500  33.003  53.252  0.00  0.00     0.020 A 
ENDBRANCH   4   5
ENDBRANCH   1   4
BRANCH   1  13
ATOM     13  N   UNL d   1      53.040  31.417  53.358  0.00  0.00    -0.215 N 
ATOM     14  C   UNL d   1      53.505  31.125  53.982  0.00  0.00     0.093 C 
ATOM     15  C   UNL d   1      53.557  30.318  54.097  0.00  0.00     0.020 C 
ATOM     16  C   UNL d   1      53.249  29.790  53.542  0.00  0.00     0.003 C 
ATOM     17  C   UNL d   1      52.883  30.083  52.864  0.00  0.00     0.020 C 
ATOM     18  C   UNL d   1      52.827  30.901  52.741  0.00  0.00     0.093 C 
ENDBRANCH   1  13
TORSDOF 3
ENDMDL
MODEL 2
REMARK VINA RESULT:      -9.2      0.977      3.640
REMARK  3 active torsions:
REMARK  status: ('A' for Active; 'I' for Inactive)
REMARK    1  A    between atoms: N_2  and  S_1 
REMARK    2  A    between atoms: N_3  and  S_1 
REMARK    3  A    between atoms: C_4  and  N_2 
ROOT
ATOM      1  S   UNL d   1      52.310  33.304  53.008  0.00  0.00     0.351 S 
ATOM      2  O   UNL d   1      52.112  33.331  53.806  0.00  0.00    -0.180 OA
ATOM      3  O   UNL d   1      52.515  33.275  52.207  0.00  0.00    -0.180 OA
ENDROOT
BRANCH   1   4
ATOM      4  N   UNL d   1      53.054  32.972  53.131  0.00  0.00    -0.144 NA
BRANCH   4   5
ATOM      5  C   UNL d   1      53.134  32.149  53.254  0.00  0.00     0.095 A 
ATOM      6  C   UNL d   1      53.720  31.857  53.773  0.00  0.00     0.018 A 
ATOM      7  C   UNL d   1      53.790  31.043  53.904  0.00  0.00     0.002 A 
ATOM      8  C   UNL d   1      54.309  32.375  54.051  0.00  0.00     0.002 C 
ATOM      9  C   UNL d   1      53.278  30.515  53.511  0.00  0.00     0.000 A 
ATOM     10  C   UNL d   1      52.685  30.795  52.991  0.00  0.00     0.002 A 
ATOM     11  C   UNL d   1      53.367  29.704  53.634  0.00  0.00     0.000 C 
ATOM     12  C   UNL d   1      52.615  31.618  52.867  0.00  0.00     0.020 A 
ENDBRANCH   4   5
ENDBRANCH   1   4
BRANCH   1  13
ATOM     13  N   UNL d   1      51.581  33.635  52.816  0.00  0.00    -0.215 N 
ATOM     14  C   UNL d   1      51.491  34.039  52.095  0.00  0.00     0.093 C 
ATOM     15  C   UNL d   1      50.766  34.366  51.909  0.00  0.00     0.020 C 
ATOM     16  C   UNL d   1      50.159  34.397  52.466  0.00  0.00     0.003 C 
ATOM     17  C   UNL d   1      50.286  34.093  53.221  0.00  0.00     0.020 C 
ATOM     18  C   UNL d   1      51.020  33.760  53.419  0.00  0.00     0.093 C 
ENDBRANCH   1  13
TORSDOF 3
ENDMDL
MODEL 3
REMARK VINA RESULT:      -9.1      1.657      3.557
REMARK  3 active torsions:
REMARK  status: ('A' for Active; 'I' for Inactive)
REMARK    1  A    between atoms: N_2  and  S_1 
REMARK    2  A    between atoms: N_3  and  S_1 
REMARK    3  A    between atoms: C_4  and  N_2 
ROOT
ATOM      1  S   UNL d   1      52.128  33.157  53.130  0.00  0.00     0.351 S 
ATOM      2  O   UNL d   1      52.638  33.520  52.595  0.00  0.00    -0.180 OA
ATOM      3  O   UNL d   1      51.619  32.789  53.668  0.00  0.00    -0.180 OA
ENDROOT
BRANCH   1   4
ATOM      4  N   UNL d   1      52.697  32.649  53.438  0.00  0.00    -0.144 NA
BRANCH   4   5
ATOM      5  C   UNL d   1      53.314  32.948  53.918  0.00  0.00     0.095 A 
ATOM      6  C   UNL d   1      54.050  32.556  53.948  0.00  0.00     0.018 A 
ATOM      7  C   UNL d   1      54.664  32.859  54.414  0.00  0.00     0.002 A 
ATOM      8  C   UNL d   1      54.120  31.798  53.613  0.00  0.00     0.002 C 
ATOM      9  C   UNL d   1      54.541  33.554  54.858  0.00  0.00     0.000 A 
ATOM     10  C   UNL d   1      53.808  33.958  54.836  0.00  0.00     0.002 A 
ATOM     11  C   UNL d   1      55.152  33.840  55.333  0.00  0.00     0.000 C 
ATOM     12  C   UNL d   1      53.194  33.650  54.359  0.00  0.00     0.020 A 
ENDBRANCH   4   5
ENDBRANCH   1   4
BRANCH   1  13
ATOM     13  N   UNL d   1      51.511  33.636  52.866  0.00  0.00    -0.215 N 
ATOM     14  C   UNL d   1      50.780  33.615  53.259  0.00  0.00     0.093 C 
ATOM     15  C   UNL d   1      50.171  34.091  52.994  0.00  0.00     0.020 C 
ATOM     16  C   UNL d   1      50.235  34.505  52.283  0.00  0.00     0.003 C 
ATOM     17  C   UNL d   1      50.923  34.437  51.835  0.00  0.00     0.020 C 
ATOM     18  C   UNL d   1      51.545  33.956  52.098  0.00  0.00     0.093 C 
ENDBRANCH   1  13
TORSDOF 3
ENDMDL
MODEL 4
REMARK VINA RESULT:      -8.8      1.520      2.029
REMARK  3 active torsions:
REMARK  status: ('A' for Active; 'I' for Inactive)
REMARK    1  A    between atoms: N_2  and  S_1 
REMARK    2  A    between atoms: N_3  and  S_1 
REMARK    3  A    between atoms: C_4  and  N_2 
ROOT
ATOM      1  S   UNL d   1      53.883  31.828  53.890  0.00  0.00     0.351 S 
ATOM      2  O   UNL d   1      53.640  31.741  54.671  0.00  0.00    -0.180 OA
ATOM      3  O   UNL d   1      54.130  31.920  53.105  0.00  0.00    -0.180 OA
ENDROOT
BRANCH   1   4
ATOM      4  N   UNL d   1      54.312  32.518  54.025  0.00  0.00    -0.144 NA
BRANCH   4   5
ATOM      5  C   UNL d   1      53.916  33.238  54.180  0.00  0.00     0.095 A 
ATOM      6  C   UNL d   1      54.266  33.811  54.676  0.00  0.00     0.018 A 
ATOM      7  C   UNL d   1      53.878  34.529  54.819  0.00  0.00     0.002 A 
ATOM      8  C   UNL d   1      54.936  33.606  55.123  0.00  0.00     0.002 C 
ATOM      9  C   UNL d   1      53.135  34.674  54.471  0.00  0.00     0.000 A 
ATOM     10  C   UNL d   1      52.773  34.108  53.971  0.00  0.00     0.002 A 
ATOM     11  C   UNL d   1      52.747  35.384  54.633  0.00  0.00     0.000 C 
ATOM     12  C   UNL d   1      53.172  33.388  53.825  0.00  0.00     0.020 A 
ENDBRANCH   4   5
ENDBRANCH   1   4
BRANCH   1  13
ATOM     13  N   UNL d   1      53.473  31.143  53.686  0.00  0.00    -0.215 N 
ATOM     14  C   UNL d   1      53.577  30.454  54.139  0.00  0.00     0.093 C 
ATOM     15  C   UNL d   1      53.169  29.777  53.934  0.00  0.00     0.020 C 
ATOM     16  C   UNL d   1      52.746  29.734  53.228  0.00  0.00     0.003 C 
ATOM     17  C   UNL d   1      52.734  30.384  52.723  0.00  0.00     0.020 C 
ATOM     18  C   UNL d   1      53.145  31.076  52.924  0.00  0.00     0.093 C 
ENDBRANCH   1  13
TORSDOF 3
ENDMDL
MODEL 5
REMARK VINA RESULT:      -8.4      1.858      3.592
REMARK  3 active torsions:
REMARK  status: ('A' for Active; 'I' for Inactive)
REMARK    1  A    between atoms: N_2  and  S_1 
REMARK    2  A    between atoms: N_3  and  S_1 
REMARK    3  A    between atoms: C_4  and  N_2 
ROOT
ATOM      1  S   UNL d   1      53.928  32.711  53.848  0.00  0.00     0.351 S 
ATOM      2  O   UNL d   1      53.313  32.720  54.395  0.00  0.00    -0.180 OA
ATOM      3  O   UNL d   1      54.543  32.698  53.294  0.00  0.00    -0.180 OA
ENDROOT
BRANCH   1   4
ATOM      4  N   UNL d   1      53.492  32.338  53.258  0.00  0.00    -0.144 NA
BRANCH   4   5
ATOM      5  C   UNL d   1      53.311  31.524  53.316  0.00  0.00     0.095 A 
ATOM      6  C   UNL d   1      52.605  31.226  52.985  0.00  0.00     0.018 A 
ATOM      7  C   UNL d   1      52.432  30.418  53.032  0.00  0.00     0.002 A 
ATOM      8  C   UNL d   1      52.022  31.760  52.724  0.00  0.00     0.002 C 
ATOM      9  C   UNL d   1      52.962  29.904  53.419  0.00  0.00     0.000 A 
ATOM     10  C   UNL d   1      53.674  30.189  53.754  0.00  0.00     0.002 A 
ATOM     11  C   UNL d   1      52.774  29.103  53.478  0.00  0.00     0.000 C 
ATOM     12  C   UNL d   1      53.846  31.005  53.698  0.00  0.00     0.020 A 
ENDBRANCH   4   5
ENDBRANCH   1   4
BRANCH   1  13
ATOM     13  N   UNL d   1      54.420  33.083  54.394  0.00  0.00    -0.215 N 
ATOM     14  C   UNL d   1      54.125  33.272  55.148  0.00  0.00     0.093 C 
ATOM     15  C   UNL d   1      54.615  33.643  55.687  0.00  0.00     0.020 C 
ATOM     16  C   UNL d   1      55.355  33.928  55.460  0.00  0.00     0.003 C 
ATOM     17  C   UNL d   1      55.602  33.839  54.680  0.00  0.00     0.020 C 
ATOM     18  C   UNL d   1      55.110  33.464  54.127  0.00  0.00     0.093 C 
ENDBRANCH   1  13
TORSDOF 3
ENDMDL
MODEL 6
REMARK VINA RESULT:      -8.4      1.700      2.484
REMARK  3 active torsions:
REMARK  status: ('A' for Active; 'I' for Inactive)
REMARK    1  A    between atoms: N_2  and  S_1 
REMARK    2  A    between atoms: N_3  and  S_1 
REMARK    3  A    between atoms: C_4  and  N_2 
ROOT
ATOM      1  S   UNL d   1      53.471  32.979  53.843  0.00  0.00     0.351 S 
ATOM      2  O   UNL d   1      52.997  32.984  54.515  0.00  0.00    -0.180 OA
ATOM      3  O   UNL d   1      53.944  32.973  53.163  0.00  0.00    -0.180 OA
ENDROOT
BRANCH   1   4
ATOM      4  N   UNL d   1      52.881  32.700  53.341  0.00  0.00    -0.144 NA
BRANCH   4   5
ATOM      5  C   UNL d   1      52.212  33.173  53.173  0.00  0.00     0.095 A 
ATOM      6  C   UNL d   1      51.450  32.831  53.156  0.00  0.00     0.018 A 
ATOM      7  C   UNL d   1      50.787  33.302  53.001  0.00  0.00     0.002 A 
ATOM      8  C   UNL d   1      51.377  32.003  53.168  0.00  0.00     0.002 C 
ATOM      9  C   UNL d   1      50.884  34.117  52.855  0.00  0.00     0.000 A 
ATOM     10  C   UNL d   1      51.642  34.472  52.869  0.00  0.00     0.002 A 
ATOM     11  C   UNL d   1      50.220  34.576  52.683  0.00  0.00     0.000 C 
ATOM     12  C   UNL d   1      52.307  33.993  53.033  0.00  0.00     0.020 A 
ENDBRANCH   4   5
ENDBRANCH   1   4
BRANCH   1  13
ATOM     13  N   UNL d   1      54.105  33.260  54.288  0.00  0.00    -0.215 N 
ATOM     14  C   UNL d   1      54.847  33.360  53.927  0.00  0.00     0.093 C 
ATOM     15  C   UNL d   1      55.473  33.638  54.372  0.00  0.00     0.020 C 
ATOM     16  C   UNL d   1      55.410  33.715  55.191  0.00  0.00     0.003 C 
ATOM     17  C   UNL d   1      54.705  33.508  55.564  0.00  0.00     0.020 C 
ATOM     18  C   UNL d   1      54.065  33.226  55.119  0.00  0.00     0.093 C 
ENDBRANCH   1  13
TORSDOF 3
ENDMDL
