MODEL 1
REMARK VINA RESULT:      72.6      0.000      0.000
REMARK  5 active torsions:
REMARK  status: ('A' for Active; 'I' for Inactive)
REMARK    1  A    between atoms: C_8  and  N_1 
REMARK    2  A    between atoms: C_6  and  C_2 
REMARK    3  A    between atoms: C_9  and  C_6 
REMARK    4  A    between atoms: C_7  and  C_9 
REMARK    5  A    between atoms: C_14  and  C_8 
ROOT
ATOM      1  N   UNL d   1     -47.834  29.988  34.797  0.00  0.00    -0.289 N 
ATOM      2  C   UNL d   1     -48.329  29.333  34.814  0.00  0.00     0.148 A 
ATOM      3  N   UNL d   1     -48.290  29.005  35.596  0.00  0.00    -0.227 NA
ATOM      4  C   UNL d   1     -47.475  30.094  35.543  0.00  0.00     0.083 A 
ATOM      5  C   UNL d   1     -47.782  29.459  36.028  0.00  0.00     0.099 A 
ATOM      6  C   UNL d   1     -46.941  30.649  35.837  0.00  0.00     0.019 A 
ATOM      7  C   UNL d   1     -47.510  29.423  36.833  0.00  0.00     0.021 A 
ATOM      8  C   UNL d   1     -46.702  30.591  36.597  0.00  0.00     0.002 A 
ATOM      9  C   UNL d   1     -46.982  29.988  37.087  0.00  0.00     0.002 A 
ENDROOT
BRANCH   1  10
ATOM     10  C   UNL d   1     -47.827  30.346  34.076  0.00  0.00     0.082 C 
BRANCH  10  11
ATOM     11  C   UNL d   1     -47.893  31.159  34.039  0.00  0.00     0.018 A 
ATOM     12  C   UNL d   1     -47.218  31.631  34.004  0.00  0.00     0.002 A 
ATOM     13  C   UNL d   1     -47.306  32.476  33.967  0.00  0.00     0.000 A 
ATOM     14  C   UNL d   1     -48.054  32.825  33.965  0.00  0.00     0.000 A 
ATOM     15  C   UNL d   1     -48.729  32.353  34.001  0.00  0.00     0.000 A 
ATOM     16  C   UNL d   1     -48.111  33.626  33.929  0.00  0.00     0.000 C 
ATOM     17  C   UNL d   1     -48.658  31.532  34.037  0.00  0.00     0.002 A 
ENDBRANCH  10  11
ENDBRANCH   1  10
BRANCH   2  18
ATOM     18  C   UNL d   1     -48.844  28.889  34.346  0.00  0.00     0.039 C 
BRANCH  18  19
ATOM     19  C   UNL d   1     -48.923  28.087  34.480  0.00  0.00     0.028 C 
BRANCH  19  20
ATOM     20  C   UNL d   1     -49.446  27.642  34.019  0.00  0.00     0.100 A 
ATOM     21  O   UNL d   1     -49.333  26.870  33.748  0.00  0.00    -0.305 OA
ATOM     22  C   UNL d   1     -50.002  26.656  33.312  0.00  0.00     0.123 A 
ATOM     23  C   UNL d   1     -50.533  27.287  33.306  0.00  0.00     0.029 A 
ATOM     24  C   UNL d   1     -50.175  27.900  33.753  0.00  0.00     0.027 A 
ENDBRANCH  19  20
ENDBRANCH  18  19
ENDBRANCH   2  18
TORSDOF 5
ENDMDL
MODEL 2
REMARK VINA RESULT:      73.2      2.229      5.683
REMARK  5 active torsions:
REMARK  status: ('A' for Active; 'I' for Inactive)
REMARK    1  A    between atoms: C_8  and  N_1 
REMARK    2  A    between atoms: C_6  and  C_2 
REMARK    3  A    between atoms: C_9  and  C_6 
REMARK    4  A    between atoms: C_7  and  C_9 
REMARK    5  A    between atoms: C_14  and  C_8 
ROOT
ATOM      1  N   UNL d   1     -50.121  26.458  33.816  0.00  0.00    -0.289 N 
ATOM      2  C   UNL d   1     -49.424  26.873  33.943  0.00  0.00     0.148 A 
ATOM      3  N   UNL d   1     -48.782  26.326  33.848  0.00  0.00    -0.227 NA
ATOM      4  C   UNL d   1     -49.952  25.660  33.641  0.00  0.00     0.083 A 
ATOM      5  C   UNL d   1     -49.098  25.606  33.668  0.00  0.00     0.099 A 
ATOM      6  C   UNL d   1     -50.426  25.008  33.470  0.00  0.00     0.019 A 
ATOM      7  C   UNL d   1     -48.755  24.844  33.510  0.00  0.00     0.021 A 
ATOM      8  C   UNL d   1     -50.078  24.303  33.325  0.00  0.00     0.002 A 
ATOM      9  C   UNL d   1     -49.256  24.222  33.345  0.00  0.00     0.002 A 
ENDROOT
BRANCH   1  10
ATOM     10  C   UNL d   1     -50.773  26.927  33.893  0.00  0.00     0.082 C 
BRANCH  10  11
ATOM     11  C   UNL d   1     -51.509  26.604  33.746  0.00  0.00     0.018 A 
ATOM     12  C   UNL d   1     -52.119  27.075  33.454  0.00  0.00     0.002 A 
ATOM     13  C   UNL d   1     -52.879  26.722  33.307  0.00  0.00     0.000 A 
ATOM     14  C   UNL d   1     -53.009  25.921  33.454  0.00  0.00     0.000 A 
ATOM     15  C   UNL d   1     -52.400  25.450  33.746  0.00  0.00     0.000 A 
ATOM     16  C   UNL d   1     -53.737  25.610  33.307  0.00  0.00     0.000 C 
ATOM     17  C   UNL d   1     -51.658  25.779  33.893  0.00  0.00     0.002 A 
ENDBRANCH  10  11
ENDBRANCH   1  10
BRANCH   2  18
ATOM     18  C   UNL d   1     -49.133  27.623  34.128  0.00  0.00     0.039 C 
BRANCH  18  19
ATOM     19  C   UNL d   1     -49.166  27.891  34.898  0.00  0.00     0.028 C 
BRANCH  19  20
ATOM     20  C   UNL d   1     -48.654  28.490  35.149  0.00  0.00     0.100 A 
ATOM     21  O   UNL d   1     -48.142  28.933  34.677  0.00  0.00    -0.305 OA
ATOM     22  C   UNL d   1     -47.742  29.464  35.168  0.00  0.00     0.123 A 
ATOM     23  C   UNL d   1     -47.998  29.358  35.945  0.00  0.00     0.029 A 
ATOM     24  C   UNL d   1     -48.570  28.746  35.922  0.00  0.00     0.027 A 
ENDBRANCH  19  20
ENDBRANCH  18  19
ENDBRANCH   2  18
TORSDOF 5
ENDMDL
MODEL 3
REMARK VINA RESULT:      74.7      4.881      6.767
REMARK  5 active torsions:
REMARK  status: ('A' for Active; 'I' for Inactive)
REMARK    1  A    between atoms: C_8  and  N_1 
REMARK    2  A    between atoms: C_6  and  C_2 
REMARK    3  A    between atoms: C_9  and  C_6 
REMARK    4  A    between atoms: C_7  and  C_9 
REMARK    5  A    between atoms: C_14  and  C_8 
ROOT
ATOM      1  N   UNL d   1     -52.268  25.361  34.352  0.00  0.00    -0.289 N 
ATOM      2  C   UNL d   1     -52.376  25.460  35.160  0.00  0.00     0.148 A 
ATOM      3  N   UNL d   1     -52.808  24.786  35.443  0.00  0.00    -0.227 NA
ATOM      4  C   UNL d   1     -52.615  24.645  34.103  0.00  0.00     0.083 A 
ATOM      5  C   UNL d   1     -52.949  24.303  34.812  0.00  0.00     0.099 A 
ATOM      6  C   UNL d   1     -52.674  24.273  33.369  0.00  0.00     0.019 A 
ATOM      7  C   UNL d   1     -53.347  23.556  34.730  0.00  0.00     0.021 A 
ATOM      8  C   UNL d   1     -53.054  23.572  33.320  0.00  0.00     0.002 A 
ATOM      9  C   UNL d   1     -53.385  23.219  33.989  0.00  0.00     0.002 A 
ENDROOT
BRANCH   1  10
ATOM     10  C   UNL d   1     -51.861  25.974  34.023  0.00  0.00     0.082 C 
BRANCH  10  11
ATOM     11  C   UNL d   1     -51.070  25.870  33.843  0.00  0.00     0.018 A 
ATOM     12  C   UNL d   1     -50.637  26.482  33.503  0.00  0.00     0.002 A 
ATOM     13  C   UNL d   1     -49.815  26.356  33.323  0.00  0.00     0.000 A 
ATOM     14  C   UNL d   1     -49.452  25.634  33.485  0.00  0.00     0.000 A 
ATOM     15  C   UNL d   1     -49.885  25.021  33.826  0.00  0.00     0.000 A 
ATOM     16  C   UNL d   1     -48.674  25.539  33.306  0.00  0.00     0.000 C 
ATOM     17  C   UNL d   1     -50.683  25.130  34.005  0.00  0.00     0.002 A 
ENDBRANCH  10  11
ENDBRANCH   1  10
BRANCH   2  18
ATOM     18  C   UNL d   1     -52.216  25.976  35.784  0.00  0.00     0.039 C 
BRANCH  18  19
ATOM     19  C   UNL d   1     -52.274  25.709  36.554  0.00  0.00     0.028 C 
BRANCH  19  20
ATOM     20  C   UNL d   1     -51.885  26.116  37.161  0.00  0.00     0.100 A 
ATOM     21  O   UNL d   1     -51.222  26.601  37.086  0.00  0.00    -0.305 OA
ATOM     22  C   UNL d   1     -51.031  26.885  37.839  0.00  0.00     0.123 A 
ATOM     23  C   UNL d   1     -51.569  26.583  38.385  0.00  0.00     0.029 A 
ATOM     24  C   UNL d   1     -52.101  26.101  37.951  0.00  0.00     0.027 A 
ENDBRANCH  19  20
ENDBRANCH  18  19
ENDBRANCH   2  18
TORSDOF 5
ENDMDL
