MODEL 1
REMARK VINA RESULT:      55.3      0.000      0.000
REMARK  5 active torsions:
REMARK  status: ('A' for Active; 'I' for Inactive)
REMARK    1  A    between atoms: C_7  and  S_1 
REMARK    2  A    between atoms: N_8  and  S_1 
REMARK    3  A    between atoms: S_2  and  N_4 
REMARK    4  A    between atoms: C_12  and  S_2 
REMARK    5  A    between atoms: N_4  and  C_3 
ROOT
ATOM      1  C   UNL d   1      13.450  14.512  -4.884  0.00  0.00     0.206 A 
ATOM      2  N   UNL d   1      13.243  13.734  -5.078  0.00  0.00    -0.220 NA
ATOM      3  S   UNL d   1      13.654  14.525  -4.081  0.00  0.00    -0.046 SA
ATOM      4  C   UNL d   1      13.569  12.633  -2.894  0.00  0.00     0.105 A 
ATOM      5  C   UNL d   1      13.572  13.754  -3.785  0.00  0.00     0.051 A 
ATOM      6  C   UNL d   1      13.319  13.268  -4.401  0.00  0.00     0.090 A 
ATOM      7  C   UNL d   1      13.698  13.436  -3.029  0.00  0.00     0.021 A 
ATOM      8  C   UNL d   1      13.313  12.148  -3.521  0.00  0.00     0.015 A 
ATOM      9  C   UNL d   1      13.190  12.464  -4.266  0.00  0.00     0.020 A 
ENDROOT
BRANCH   1  10
ATOM     10  N   UNL d   1      13.452  15.159  -5.396  0.00  0.00    -0.132 NA
BRANCH  10  11
ATOM     11  S   UNL d   1      13.816  15.837  -5.689  0.00  0.00     0.287 S 
ATOM     12  O   UNL d   1      14.464  15.388  -5.923  0.00  0.00    -0.198 OA
ATOM     13  O   UNL d   1      13.091  16.094  -5.383  0.00  0.00    -0.198 OA
BRANCH  11  14
ATOM     14  C   UNL d   1      13.806  16.649  -5.824  0.00  0.00     0.105 A 
ATOM     15  C   UNL d   1      14.430  17.119  -5.539  0.00  0.00     0.015 A 
ATOM     16  C   UNL d   1      14.431  17.933  -5.669  0.00  0.00     0.030 A 
ATOM     17  C   UNL d   1      13.814  18.288  -6.082  0.00  0.00     0.140 A 
ATOM     18  C   UNL d   1      13.190  17.826  -6.369  0.00  0.00     0.030 A 
ATOM     19  F   UNL d   1      13.815  19.101  -6.212  0.00  0.00    -0.204 F 
ATOM     20  C   UNL d   1      13.193  17.004  -6.236  0.00  0.00     0.015 A 
ENDBRANCH  11  14
ENDBRANCH  10  11
ENDBRANCH   1  10
BRANCH   4  21
ATOM     21  S   UNL d   1      13.691  12.314  -2.152  0.00  0.00     0.271 S 
ATOM     22  O   UNL d   1      12.866  11.779  -2.035  0.00  0.00    -0.200 OA
ATOM     23  O   UNL d   1      14.562  12.834  -2.191  0.00  0.00    -0.200 OA
BRANCH  21  24
ATOM     24  N   UNL d   1      14.005  12.103  -1.406  0.00  0.00    -0.229 N 
ATOM     25  C   UNL d   1      13.577  11.985  -0.709  0.00  0.00     0.092 A 
ATOM     26  C   UNL d   1      14.116  11.786  -0.117  0.00  0.00     0.021 A 
ATOM     27  C   UNL d   1      14.875  11.779  -0.442  0.00  0.00     0.021 A 
ATOM     28  C   UNL d   1      14.809  11.976  -1.242  0.00  0.00     0.092 A 
ENDBRANCH  21  24
ENDBRANCH   4  21
TORSDOF 5
ENDMDL
