MODEL 1
REMARK VINA RESULT:      -0.8      0.000      0.000
REMARK  4 active torsions:
REMARK  status: ('A' for Active; 'I' for Inactive)
REMARK    1  A    between atoms: C_3  and  C_1 
REMARK    2  A    between atoms: N_5  and  C_3 
REMARK    3  A    between atoms: C_10  and  C_3 
REMARK    4  A    between atoms: C_7  and  N_5 
ROOT
ATOM      1  C   UNL d   1      58.934  -0.673  29.422  0.00  0.00     0.086 C 
ENDROOT
BRANCH   1   2
ATOM      2  C   UNL d   1      58.420  -0.624  30.086  0.00  0.00     0.058 A 
ATOM      3  C   UNL d   1      57.851  -0.016  30.084  0.00  0.00     0.214 A 
ATOM      4  C   UNL d   1      57.351   0.025  30.740  0.00  0.00     0.120 A 
ATOM      5  O   UNL d   1      57.791   0.518  29.458  0.00  0.00    -0.285 OA
ATOM      6  N   UNL d   1      56.767   0.641  30.747  0.00  0.00    -0.241 NA
ATOM      7  C   UNL d   1      57.410  -0.509  31.366  0.00  0.00     0.021 A 
ATOM      8  C   UNL d   1      56.267   0.682  31.402  0.00  0.00     0.099 A 
ATOM      9  C   UNL d   1      56.327   0.148  32.028  0.00  0.00     0.021 A 
ATOM     10  C   UNL d   1      56.886  -0.426  32.000  0.00  0.00     0.003 A 
ATOM     11  C   UNL d   1      57.969  -1.084  31.337  0.00  0.00     0.002 A 
ATOM     12  C   UNL d   1      58.479  -1.158  30.712  0.00  0.00     0.005 A 
ENDBRANCH   1   2
BRANCH   1  13
ATOM     13  N   UNL d   1      58.718  -1.126  28.759  0.00  0.00    -0.227 NA
BRANCH  13  14
ATOM     14  C   UNL d   1      58.920  -1.904  28.693  0.00  0.00     0.162 A 
ATOM     15  N   UNL d   1      58.345  -2.486  28.802  0.00  0.00    -0.225 NA
ATOM     16  C   UNL d   1      58.535  -3.289  28.738  0.00  0.00     0.101 A 
ATOM     17  C   UNL d   1      59.313  -3.486  28.564  0.00  0.00     0.021 A 
ATOM     18  C   UNL d   1      59.888  -2.905  28.455  0.00  0.00     0.005 A 
ATOM     19  C   UNL d   1      59.685  -2.126  28.521  0.00  0.00     0.039 A 
ENDBRANCH  13  14
ENDBRANCH   1  13
BRANCH   1  20
ATOM     20  C   UNL d   1      59.646  -0.285  29.413  0.00  0.00     0.018 A 
ATOM     21  C   UNL d   1      60.204  -0.451  29.974  0.00  0.00     0.002 A 
ATOM     22  C   UNL d   1      60.928  -0.055  29.965  0.00  0.00     0.000 A 
ATOM     23  C   UNL d   1      61.094   0.506  29.394  0.00  0.00     0.000 A 
ATOM     24  C   UNL d   1      60.518   0.668  28.825  0.00  0.00     0.000 A 
ATOM     25  C   UNL d   1      59.794   0.273  28.835  0.00  0.00     0.002 A 
ENDBRANCH   1  20
TORSDOF 4
ENDMDL
MODEL 2
REMARK VINA RESULT:       0.5      0.843      2.389
REMARK  4 active torsions:
REMARK  status: ('A' for Active; 'I' for Inactive)
REMARK    1  A    between atoms: C_3  and  C_1 
REMARK    2  A    between atoms: N_5  and  C_3 
REMARK    3  A    between atoms: C_10  and  C_3 
REMARK    4  A    between atoms: C_7  and  N_5 
ROOT
ATOM      1  C   UNL d   1      58.451  -0.662  29.718  0.00  0.00     0.086 C 
ENDROOT
BRANCH   1   2
ATOM      2  C   UNL d   1      58.025  -0.591  30.440  0.00  0.00     0.058 A 
ATOM      3  C   UNL d   1      57.419  -0.021  30.472  0.00  0.00     0.214 A 
ATOM      4  C   UNL d   1      57.006   0.041  31.184  0.00  0.00     0.120 A 
ATOM      5  O   UNL d   1      57.242   0.457  29.824  0.00  0.00    -0.285 OA
ATOM      6  N   UNL d   1      56.387   0.620  31.226  0.00  0.00    -0.241 NA
ATOM      7  C   UNL d   1      57.183  -0.437  31.833  0.00  0.00     0.021 A 
ATOM      8  C   UNL d   1      55.974   0.682  31.938  0.00  0.00     0.099 A 
ATOM      9  C   UNL d   1      56.151   0.204  32.586  0.00  0.00     0.021 A 
ATOM     10  C   UNL d   1      56.741  -0.336  32.524  0.00  0.00     0.003 A 
ATOM     11  C   UNL d   1      57.773  -0.977  31.770  0.00  0.00     0.002 A 
ATOM     12  C   UNL d   1      58.202  -1.069  31.089  0.00  0.00     0.005 A 
ENDBRANCH   1   2
BRANCH   1  13
ATOM     13  N   UNL d   1      58.778   0.012  29.359  0.00  0.00    -0.227 NA
BRANCH  13  14
ATOM     14  C   UNL d   1      59.549   0.221  29.473  0.00  0.00     0.162 A 
ATOM     15  N   UNL d   1      60.080   0.182  28.843  0.00  0.00    -0.225 NA
ATOM     16  C   UNL d   1      60.875   0.392  28.942  0.00  0.00     0.101 A 
ATOM     17  C   UNL d   1      61.115   0.641  29.687  0.00  0.00     0.021 A 
ATOM     18  C   UNL d   1      60.584   0.680  30.317  0.00  0.00     0.005 A 
ATOM     19  C   UNL d   1      59.813   0.471  30.202  0.00  0.00     0.039 A 
ENDBRANCH  13  14
ENDBRANCH   1  13
BRANCH   1  20
ATOM     20  C   UNL d   1      58.553  -1.382  29.360  0.00  0.00     0.018 A 
ATOM     21  C   UNL d   1      59.200  -1.835  29.537  0.00  0.00     0.002 A 
ATOM     22  C   UNL d   1      59.303  -2.567  29.172  0.00  0.00     0.000 A 
ATOM     23  C   UNL d   1      58.759  -2.848  28.630  0.00  0.00     0.000 A 
ATOM     24  C   UNL d   1      58.102  -2.380  28.456  0.00  0.00     0.000 A 
ATOM     25  C   UNL d   1      57.999  -1.647  28.821  0.00  0.00     0.002 A 
ENDBRANCH   1  20
TORSDOF 4
ENDMDL
MODEL 3
REMARK VINA RESULT:       0.6      1.637      4.532
REMARK  4 active torsions:
REMARK  status: ('A' for Active; 'I' for Inactive)
REMARK    1  A    between atoms: C_3  and  C_1 
REMARK    2  A    between atoms: N_5  and  C_3 
REMARK    3  A    between atoms: C_10  and  C_3 
REMARK    4  A    between atoms: C_7  and  N_5 
ROOT
ATOM      1  C   UNL d   1      57.071  -0.162  31.970  0.00  0.00     0.086 C 
ENDROOT
BRANCH   1   2
ATOM      2  C   UNL d   1      57.447  -0.517  31.306  0.00  0.00     0.058 A 
ATOM      3  C   UNL d   1      57.477  -0.075  30.601  0.00  0.00     0.214 A 
ATOM      4  C   UNL d   1      57.847  -0.430  29.956  0.00  0.00     0.120 A 
ATOM      5  O   UNL d   1      57.150   0.682  30.553  0.00  0.00    -0.285 OA
ATOM      6  N   UNL d   1      57.882   0.013  29.233  0.00  0.00    -0.241 NA
ATOM      7  C   UNL d   1      58.174  -1.186  30.004  0.00  0.00     0.021 A 
ATOM      8  C   UNL d   1      58.253  -0.342  28.587  0.00  0.00     0.099 A 
ATOM      9  C   UNL d   1      58.579  -1.099  28.635  0.00  0.00     0.021 A 
ATOM     10  C   UNL d   1      58.535  -1.499  29.329  0.00  0.00     0.003 A 
ATOM     11  C   UNL d   1      58.129  -1.587  30.698  0.00  0.00     0.002 A 
ATOM     12  C   UNL d   1      57.774  -1.273  31.354  0.00  0.00     0.005 A 
ENDBRANCH   1   2
BRANCH   1  13
ATOM     13  N   UNL d   1      57.344   0.565  32.266  0.00  0.00    -0.227 NA
BRANCH  13  14
ATOM     14  C   UNL d   1      57.853   0.603  32.891  0.00  0.00     0.162 A 
ATOM     15  N   UNL d   1      58.666   0.619  32.755  0.00  0.00    -0.225 NA
ATOM     16  C   UNL d   1      59.202   0.658  33.384  0.00  0.00     0.101 A 
ATOM     17  C   UNL d   1      58.897   0.682  34.146  0.00  0.00     0.021 A 
ATOM     18  C   UNL d   1      58.084   0.667  34.282  0.00  0.00     0.005 A 
ATOM     19  C   UNL d   1      57.575   0.628  33.656  0.00  0.00     0.039 A 
ENDBRANCH  13  14
ENDBRANCH   1  13
BRANCH   1  20
ATOM     20  C   UNL d   1      56.439  -0.518  32.333  0.00  0.00     0.018 A 
ATOM     21  C   UNL d   1      56.499  -1.282  32.592  0.00  0.00     0.002 A 
ATOM     22  C   UNL d   1      55.857  -1.644  32.961  0.00  0.00     0.000 A 
ATOM     23  C   UNL d   1      55.154  -1.241  33.072  0.00  0.00     0.000 A 
ATOM     24  C   UNL d   1      55.102  -0.462  32.805  0.00  0.00     0.000 A 
ATOM     25  C   UNL d   1      55.745  -0.100  32.436  0.00  0.00     0.002 A 
ENDBRANCH   1  20
TORSDOF 4
ENDMDL
