MODEL 1
REMARK VINA RESULT:      43.3      0.000      0.000
REMARK  2 active torsions:
REMARK  status: ('A' for Active; 'I' for Inactive)
REMARK    1  A    between atoms: C_18  and  N_5 
REMARK    2  A    between atoms: C_21  and  C_18 
ROOT
ATOM      1  C   UNL d   1      14.089  13.729  -2.710  0.00  0.00     0.155 A 
ATOM      2  C   UNL d   1      14.030  12.918  -2.575  0.00  0.00     0.092 A 
ATOM      3  N   UNL d   1      14.422  14.216  -2.128  0.00  0.00    -0.210 NA
ATOM      4  N   UNL d   1      14.628  13.082  -1.296  0.00  0.00    -0.258 N 
ATOM      5  N   UNL d   1      13.819  14.051  -3.418  0.00  0.00    -0.275 N 
ATOM      6  C   UNL d   1      14.688  13.895  -1.428  0.00  0.00     0.152 A 
ATOM      7  C   UNL d   1      14.300  12.592  -1.867  0.00  0.00     0.269 A 
ATOM      8  C   UNL d   1      13.429  12.748  -3.861  0.00  0.00     0.105 A 
ATOM      9  C   UNL d   1      13.489  13.572  -3.998  0.00  0.00     0.180 A 
ATOM     10  C   UNL d   1      13.699  12.427  -3.153  0.00  0.00     0.021 A 
ATOM     11  C   UNL d   1      15.015  14.376  -0.857  0.00  0.00     0.035 A 
ATOM     12  C   UNL d   1      13.101  12.266  -4.436  0.00  0.00     0.104 C 
ATOM     13  N   UNL d   1      12.772  11.780  -5.010  0.00  0.00    -0.191 NA
ATOM     14  C   UNL d   1      14.897  12.753  -0.587  0.00  0.00     0.084 A 
ATOM     15  N   UNL d   1      13.176  13.725  -4.747  0.00  0.00    -0.128 N 
ATOM     16  O   UNL d   1      14.239  11.780  -1.736  0.00  0.00    -0.266 OA
ATOM     17  C   UNL d   1      15.227  13.252  -0.015  0.00  0.00     0.019 A 
ATOM     18  C   UNL d   1      15.286  14.064  -0.149  0.00  0.00     0.005 A 
ATOM     19  C   UNL d   1      15.074  15.188  -0.992  0.00  0.00     0.003 C 
ENDROOT
BRANCH   5  20
ATOM     20  C   UNL d   1      13.882  14.864  -3.546  0.00  0.00     0.067 C 
ATOM     21  C   UNL d   1      13.213  15.327  -3.395  0.00  0.00     0.019 C 
BRANCH  20  22
ATOM     22  C   UNL d   1      14.561  15.265  -3.815  0.00  0.00     0.018 C 
ATOM     23  C   UNL d   1      14.594  16.056  -4.066  0.00  0.00     0.002 C 
ENDBRANCH  20  22
ENDBRANCH   5  20
TORSDOF 2
ENDMDL
