MODEL 1
REMARK VINA RESULT:      -8.5      0.000      0.000
REMARK  1 active torsions:
REMARK  status: ('A' for Active; 'I' for Inactive)
REMARK    1  A    between atoms: N_3  and  C_1 
ROOT
ATOM      1  C   UNL d   1     -47.811  13.570  22.783  0.00  0.00     0.110 A 
ATOM      2  C   UNL d   1     -47.688  12.796  23.073  0.00  0.00     0.212 A 
ATOM      3  C   UNL d   1     -46.924  12.488  23.100  0.00  0.00     0.046 A 
ATOM      4  C   UNL d   1     -47.164  14.022  22.524  0.00  0.00     0.056 A 
ATOM      5  S   UNL d   1     -46.396  13.698  22.556  0.00  0.00    -0.085 SA
ATOM      6  C   UNL d   1     -46.280  12.937  22.842  0.00  0.00     0.033 A 
ATOM      7  C   UNL d   1     -46.798  11.725  23.385  0.00  0.00     0.004 A 
ATOM      8  O   UNL d   1     -48.327  12.347  23.330  0.00  0.00    -0.285 OA
ATOM      9  C   UNL d   1     -45.519  12.623  22.871  0.00  0.00     0.007 A 
ATOM     10  C   UNL d   1     -46.047  11.412  23.415  0.00  0.00     0.000 A 
ATOM     11  C   UNL d   1     -45.395  11.867  23.154  0.00  0.00     0.001 A 
ATOM     12  C   UNL d   1     -45.916  10.653  23.698  0.00  0.00     0.000 C 
ENDROOT
BRANCH   1  13
ATOM     13  N   UNL d   1     -48.574  13.888  22.753  0.00  0.00    -0.301 N 
ATOM     14  C   UNL d   1     -48.777  14.512  23.235  0.00  0.00     0.080 A 
ATOM     15  C   UNL d   1     -49.541  14.834  23.209  0.00  0.00     0.018 A 
ATOM     16  C   UNL d   1     -49.744  15.462  23.693  0.00  0.00     0.002 A 
ATOM     17  C   UNL d   1     -50.096  14.518  22.691  0.00  0.00     0.003 A 
ATOM     18  C   UNL d   1     -50.505  15.781  23.666  0.00  0.00     0.000 A 
ATOM     19  C   UNL d   1     -51.063  15.464  23.146  0.00  0.00     0.000 A 
ATOM     20  C   UNL d   1     -50.858  14.829  22.657  0.00  0.00     0.000 A 
ATOM     21  C   UNL d   1     -49.895  13.877  22.194  0.00  0.00     0.019 A 
ATOM     22  C   UNL d   1     -49.135  13.569  22.232  0.00  0.00     0.080 A 
ENDBRANCH   1  13
TORSDOF 1
ENDMDL
MODEL 2
REMARK VINA RESULT:      -8.4      0.822      1.281
REMARK  1 active torsions:
REMARK  status: ('A' for Active; 'I' for Inactive)
REMARK    1  A    between atoms: N_3  and  C_1 
ROOT
ATOM      1  C   UNL d   1     -48.100  13.240  23.016  0.00  0.00     0.110 A 
ATOM      2  C   UNL d   1     -47.422  13.479  22.589  0.00  0.00     0.212 A 
ATOM      3  C   UNL d   1     -46.717  13.060  22.678  0.00  0.00     0.046 A 
ATOM      4  C   UNL d   1     -48.059  12.585  23.525  0.00  0.00     0.056 A 
ATOM      5  S   UNL d   1     -47.339  12.170  23.605  0.00  0.00    -0.085 SA
ATOM      6  C   UNL d   1     -46.676  12.408  23.184  0.00  0.00     0.033 A 
ATOM      7  C   UNL d   1     -46.047  13.291  22.258  0.00  0.00     0.004 A 
ATOM      8  O   UNL d   1     -47.461  14.127  22.085  0.00  0.00    -0.285 OA
ATOM      9  C   UNL d   1     -45.968  11.994  23.267  0.00  0.00     0.007 A 
ATOM     10  C   UNL d   1     -45.346  12.884  22.339  0.00  0.00     0.000 A 
ATOM     11  C   UNL d   1     -45.304  12.224  22.852  0.00  0.00     0.001 A 
ATOM     12  C   UNL d   1     -44.676  13.110  21.924  0.00  0.00     0.000 C 
ENDROOT
BRANCH   1  13
ATOM     13  N   UNL d   1     -48.812  13.654  22.934  0.00  0.00    -0.301 N 
ATOM     14  C   UNL d   1     -48.935  14.343  23.350  0.00  0.00     0.080 A 
ATOM     15  C   UNL d   1     -49.646  14.762  23.271  0.00  0.00     0.018 A 
ATOM     16  C   UNL d   1     -49.769  15.455  23.690  0.00  0.00     0.002 A 
ATOM     17  C   UNL d   1     -50.230  14.478  22.767  0.00  0.00     0.003 A 
ATOM     18  C   UNL d   1     -50.477  15.871  23.610  0.00  0.00     0.000 A 
ATOM     19  C   UNL d   1     -51.064  15.585  23.104  0.00  0.00     0.000 A 
ATOM     20  C   UNL d   1     -50.940  14.885  22.681  0.00  0.00     0.000 A 
ATOM     21  C   UNL d   1     -50.111  13.771  22.336  0.00  0.00     0.019 A 
ATOM     22  C   UNL d   1     -49.401  13.368  22.426  0.00  0.00     0.080 A 
ENDBRANCH   1  13
TORSDOF 1
ENDMDL
MODEL 3
REMARK VINA RESULT:      -7.6      1.110      4.429
REMARK  1 active torsions:
REMARK  status: ('A' for Active; 'I' for Inactive)
REMARK    1  A    between atoms: N_3  and  C_1 
ROOT
ATOM      1  C   UNL d   1     -47.799  13.599  22.619  0.00  0.00     0.110 A 
ATOM      2  C   UNL d   1     -48.421  13.293  22.151  0.00  0.00     0.212 A 
ATOM      3  C   UNL d   1     -49.129  13.711  22.093  0.00  0.00     0.046 A 
ATOM      4  C   UNL d   1     -47.900  14.319  23.020  0.00  0.00     0.056 A 
ATOM      5  S   UNL d   1     -48.621  14.732  22.952  0.00  0.00    -0.085 SA
ATOM      6  C   UNL d   1     -49.229  14.428  22.491  0.00  0.00     0.033 A 
ATOM      7  C   UNL d   1     -49.745  13.414  21.632  0.00  0.00     0.004 A 
ATOM      8  O   UNL d   1     -48.324  12.580  21.753  0.00  0.00    -0.285 OA
ATOM      9  C   UNL d   1     -49.940  14.840  22.428  0.00  0.00     0.007 A 
ATOM     10  C   UNL d   1     -50.448  13.820  21.568  0.00  0.00     0.000 A 
ATOM     11  C   UNL d   1     -50.549  14.546  21.972  0.00  0.00     0.001 A 
ATOM     12  C   UNL d   1     -51.064  13.528  21.112  0.00  0.00     0.000 C 
ENDROOT
BRANCH   1  13
ATOM     13  N   UNL d   1     -47.085  13.186  22.684  0.00  0.00    -0.301 N 
ATOM     14  C   UNL d   1     -46.451  13.391  22.216  0.00  0.00     0.080 A 
ATOM     15  C   UNL d   1     -45.733  12.980  22.277  0.00  0.00     0.018 A 
ATOM     16  C   UNL d   1     -45.095  13.186  21.806  0.00  0.00     0.002 A 
ATOM     17  C   UNL d   1     -45.663  12.362  22.815  0.00  0.00     0.003 A 
ATOM     18  C   UNL d   1     -44.381  12.777  21.868  0.00  0.00     0.000 A 
ATOM     19  C   UNL d   1     -44.311  12.156  22.409  0.00  0.00     0.000 A 
ATOM     20  C   UNL d   1     -44.956  11.947  22.884  0.00  0.00     0.000 A 
ATOM     21  C   UNL d   1     -46.311  12.146  23.299  0.00  0.00     0.019 A 
ATOM     22  C   UNL d   1     -47.015  12.563  23.226  0.00  0.00     0.080 A 
ENDBRANCH   1  13
TORSDOF 1
ENDMDL
MODEL 4
REMARK VINA RESULT:      -7.5      1.040      4.435
REMARK  1 active torsions:
REMARK  status: ('A' for Active; 'I' for Inactive)
REMARK    1  A    between atoms: N_3  and  C_1 
ROOT
ATOM      1  C   UNL d   1     -48.120  13.468  22.813  0.00  0.00     0.110 A 
ATOM      2  C   UNL d   1     -48.622  13.348  22.156  0.00  0.00     0.212 A 
ATOM      3  C   UNL d   1     -49.348  13.739  22.122  0.00  0.00     0.046 A 
ATOM      4  C   UNL d   1     -48.355  13.977  23.425  0.00  0.00     0.056 A 
ATOM      5  S   UNL d   1     -49.091  14.366  23.378  0.00  0.00    -0.085 SA
ATOM      6  C   UNL d   1     -49.582  14.246  22.730  0.00  0.00     0.033 A 
ATOM      7  C   UNL d   1     -49.846  13.624  21.475  0.00  0.00     0.004 A 
ATOM      8  O   UNL d   1     -48.392  12.844  21.548  0.00  0.00    -0.285 OA
ATOM      9  C   UNL d   1     -50.308  14.632  22.690  0.00  0.00     0.007 A 
ATOM     10  C   UNL d   1     -50.564  14.005  21.433  0.00  0.00     0.000 A 
ATOM     11  C   UNL d   1     -50.801  14.519  22.050  0.00  0.00     0.001 A 
ATOM     12  C   UNL d   1     -51.064  13.894  20.792  0.00  0.00     0.000 C 
ENDROOT
BRANCH   1  13
ATOM     13  N   UNL d   1     -47.390  13.080  22.856  0.00  0.00    -0.301 N 
ATOM     14  C   UNL d   1     -47.331  12.360  23.231  0.00  0.00     0.080 A 
ATOM     15  C   UNL d   1     -46.602  11.967  23.276  0.00  0.00     0.018 A 
ATOM     16  C   UNL d   1     -46.543  11.243  23.654  0.00  0.00     0.002 A 
ATOM     17  C   UNL d   1     -45.935  12.310  22.939  0.00  0.00     0.003 A 
ATOM     18  C   UNL d   1     -45.816  10.853  23.698  0.00  0.00     0.000 A 
ATOM     19  C   UNL d   1     -45.146  11.198  23.359  0.00  0.00     0.000 A 
ATOM     20  C   UNL d   1     -45.206  11.930  22.978  0.00  0.00     0.000 A 
ATOM     21  C   UNL d   1     -45.988  13.050  22.552  0.00  0.00     0.019 A 
ATOM     22  C   UNL d   1     -46.718  13.426  22.516  0.00  0.00     0.080 A 
ENDBRANCH   1  13
TORSDOF 1
ENDMDL
MODEL 5
REMARK VINA RESULT:      -6.8      8.546     10.581
REMARK  1 active torsions:
REMARK  status: ('A' for Active; 'I' for Inactive)
REMARK    1  A    between atoms: N_3  and  C_1 
ROOT
ATOM      1  C   UNL d   1     -39.759  14.957  18.648  0.00  0.00     0.110 A 
ATOM      2  C   UNL d   1     -39.374  14.933  19.389  0.00  0.00     0.212 A 
ATOM      3  C   UNL d   1     -39.746  15.255  20.051  0.00  0.00     0.046 A 
ATOM      4  C   UNL d   1     -40.511  15.304  18.584  0.00  0.00     0.056 A 
ATOM      5  S   UNL d   1     -40.876  15.626  19.261  0.00  0.00    -0.085 SA
ATOM      6  C   UNL d   1     -40.494  15.600  19.988  0.00  0.00     0.033 A 
ATOM      7  C   UNL d   1     -39.370  15.234  20.784  0.00  0.00     0.004 A 
ATOM      8  O   UNL d   1     -38.630  14.591  19.455  0.00  0.00    -0.285 OA
ATOM      9  C   UNL d   1     -40.860  15.920  20.653  0.00  0.00     0.007 A 
ATOM     10  C   UNL d   1     -39.729  15.549  21.443  0.00  0.00     0.000 A 
ATOM     11  C   UNL d   1     -40.487  15.898  21.379  0.00  0.00     0.001 A 
ATOM     12  C   UNL d   1     -39.360  15.530  22.176  0.00  0.00     0.000 C 
ENDROOT
BRANCH   1  13
ATOM     13  N   UNL d   1     -39.394  14.637  17.978  0.00  0.00    -0.301 N 
ATOM     14  C   UNL d   1     -39.035  15.126  17.434  0.00  0.00     0.080 A 
ATOM     15  C   UNL d   1     -38.668  14.810  16.762  0.00  0.00     0.018 A 
ATOM     16  C   UNL d   1     -38.307  15.302  16.215  0.00  0.00     0.002 A 
ATOM     17  C   UNL d   1     -38.667  13.996  16.645  0.00  0.00     0.003 A 
ATOM     18  C   UNL d   1     -37.941  14.986  15.546  0.00  0.00     0.000 A 
ATOM     19  C   UNL d   1     -37.940  14.168  15.428  0.00  0.00     0.000 A 
ATOM     20  C   UNL d   1     -38.305  13.671  15.980  0.00  0.00     0.000 A 
ATOM     21  C   UNL d   1     -39.033  13.488  17.199  0.00  0.00     0.019 A 
ATOM     22  C   UNL d   1     -39.393  13.816  17.860  0.00  0.00     0.080 A 
ENDBRANCH   1  13
TORSDOF 1
ENDMDL
MODEL 6
REMARK VINA RESULT:      -6.7      9.216     10.051
REMARK  1 active torsions:
REMARK  status: ('A' for Active; 'I' for Inactive)
REMARK    1  A    between atoms: N_3  and  C_1 
ROOT
ATOM      1  C   UNL d   1     -39.333  15.429  19.333  0.00  0.00     0.110 A 
ATOM      2  C   UNL d   1     -40.087  15.501  18.980  0.00  0.00     0.212 A 
ATOM      3  C   UNL d   1     -40.144  15.640  18.169  0.00  0.00     0.046 A 
ATOM      4  C   UNL d   1     -38.650  15.499  18.867  0.00  0.00     0.056 A 
ATOM      5  S   UNL d   1     -38.722  15.641  18.048  0.00  0.00    -0.085 SA
ATOM      6  C   UNL d   1     -39.465  15.710  17.705  0.00  0.00     0.033 A 
ATOM      7  C   UNL d   1     -40.886  15.711  17.817  0.00  0.00     0.004 A 
ATOM      8  O   UNL d   1     -40.765  15.432  19.440  0.00  0.00    -0.285 OA
ATOM      9  C   UNL d   1     -39.530  15.849  16.896  0.00  0.00     0.007 A 
ATOM     10  C   UNL d   1     -40.953  15.849  17.017  0.00  0.00     0.000 A 
ATOM     11  C   UNL d   1     -40.264  15.920  16.546  0.00  0.00     0.001 A 
ATOM     12  C   UNL d   1     -41.688  15.921  16.660  0.00  0.00     0.000 C 
ENDROOT
BRANCH   1  13
ATOM     13  N   UNL d   1     -39.265  15.289  20.146  0.00  0.00    -0.301 N 
ATOM     14  C   UNL d   1     -39.139  14.534  20.422  0.00  0.00     0.080 A 
ATOM     15  C   UNL d   1     -39.071  14.388  21.235  0.00  0.00     0.018 A 
ATOM     16  C   UNL d   1     -38.943  13.627  21.512  0.00  0.00     0.002 A 
ATOM     17  C   UNL d   1     -39.131  15.013  21.766  0.00  0.00     0.003 A 
ATOM     18  C   UNL d   1     -38.876  13.484  22.322  0.00  0.00     0.000 A 
ATOM     19  C   UNL d   1     -38.937  14.112  22.855  0.00  0.00     0.000 A 
ATOM     20  C   UNL d   1     -39.065  14.880  22.576  0.00  0.00     0.000 A 
ATOM     21  C   UNL d   1     -39.261  15.792  21.490  0.00  0.00     0.019 A 
ATOM     22  C   UNL d   1     -39.326  15.920  20.681  0.00  0.00     0.080 A 
ENDBRANCH   1  13
TORSDOF 1
ENDMDL
MODEL 7
REMARK VINA RESULT:      -6.6      8.714     10.635
REMARK  1 active torsions:
REMARK  status: ('A' for Active; 'I' for Inactive)
REMARK    1  A    between atoms: N_3  and  C_1 
ROOT
ATOM      1  C   UNL d   1     -39.128  14.909  18.038  0.00  0.00     0.110 A 
ATOM      2  C   UNL d   1     -38.963  14.292  17.498  0.00  0.00     0.212 A 
ATOM      3  C   UNL d   1     -38.623  14.470  16.768  0.00  0.00     0.046 A 
ATOM      4  C   UNL d   1     -38.948  15.693  17.836  0.00  0.00     0.056 A 
ATOM      5  S   UNL d   1     -38.604  15.860  17.094  0.00  0.00    -0.085 SA
ATOM      6  C   UNL d   1     -38.444  15.251  16.567  0.00  0.00     0.033 A 
ATOM      7  C   UNL d   1     -38.459  13.866  16.233  0.00  0.00     0.004 A 
ATOM      8  O   UNL d   1     -39.140  13.514  17.695  0.00  0.00    -0.285 OA
ATOM      9  C   UNL d   1     -38.104  15.422  15.836  0.00  0.00     0.007 A 
ATOM     10  C   UNL d   1     -38.123  14.032  15.510  0.00  0.00     0.000 A 
ATOM     11  C   UNL d   1     -37.941  14.823  15.307  0.00  0.00     0.001 A 
ATOM     12  C   UNL d   1     -37.957  13.434  14.973  0.00  0.00     0.000 C 
ENDROOT
BRANCH   1  13
ATOM     13  N   UNL d   1     -39.469  14.739  18.772  0.00  0.00    -0.301 N 
ATOM     14  C   UNL d   1     -38.997  14.598  19.420  0.00  0.00     0.080 A 
ATOM     15  C   UNL d   1     -39.334  14.428  20.158  0.00  0.00     0.018 A 
ATOM     16  C   UNL d   1     -38.858  14.287  20.810  0.00  0.00     0.002 A 
ATOM     17  C   UNL d   1     -40.152  14.401  20.234  0.00  0.00     0.003 A 
ATOM     18  C   UNL d   1     -39.196  14.117  21.544  0.00  0.00     0.000 A 
ATOM     19  C   UNL d   1     -40.018  14.090  21.620  0.00  0.00     0.000 A 
ATOM     20  C   UNL d   1     -40.498  14.233  20.962  0.00  0.00     0.000 A 
ATOM     21  C   UNL d   1     -40.644  14.544  19.573  0.00  0.00     0.019 A 
ATOM     22  C   UNL d   1     -40.295  14.712  18.849  0.00  0.00     0.080 A 
ENDBRANCH   1  13
TORSDOF 1
ENDMDL
MODEL 8
REMARK VINA RESULT:      -6.4      8.866      9.588
REMARK  1 active torsions:
REMARK  status: ('A' for Active; 'I' for Inactive)
REMARK    1  A    between atoms: N_3  and  C_1 
ROOT
ATOM      1  C   UNL d   1     -39.648  14.938  20.409  0.00  0.00     0.110 A 
ATOM      2  C   UNL d   1     -39.213  14.309  20.746  0.00  0.00     0.212 A 
ATOM      3  C   UNL d   1     -39.006  14.338  21.544  0.00  0.00     0.046 A 
ATOM      4  C   UNL d   1     -39.867  15.587  20.879  0.00  0.00     0.056 A 
ATOM      5  S   UNL d   1     -39.651  15.604  21.685  0.00  0.00    -0.085 SA
ATOM      6  C   UNL d   1     -39.223  14.983  22.011  0.00  0.00     0.033 A 
ATOM      7  C   UNL d   1     -38.577  13.719  21.879  0.00  0.00     0.004 A 
ATOM      8  O   UNL d   1     -38.995  13.665  20.283  0.00  0.00    -0.285 OA
ATOM      9  C   UNL d   1     -39.013  15.006  22.808  0.00  0.00     0.007 A 
ATOM     10  C   UNL d   1     -38.368  13.740  22.666  0.00  0.00     0.000 A 
ATOM     11  C   UNL d   1     -38.589  14.393  23.140  0.00  0.00     0.001 A 
ATOM     12  C   UNL d   1     -37.941  13.126  23.006  0.00  0.00     0.000 C 
ENDROOT
BRANCH   1  13
ATOM     13  N   UNL d   1     -39.860  14.917  19.610  0.00  0.00    -0.301 N 
ATOM     14  C   UNL d   1     -39.430  15.338  19.061  0.00  0.00     0.080 A 
ATOM     15  C   UNL d   1     -39.638  15.320  18.259  0.00  0.00     0.018 A 
ATOM     16  C   UNL d   1     -39.205  15.743  17.707  0.00  0.00     0.002 A 
ATOM     17  C   UNL d   1     -40.285  14.874  18.018  0.00  0.00     0.003 A 
ATOM     18  C   UNL d   1     -39.414  15.724  16.909  0.00  0.00     0.000 A 
ATOM     19  C   UNL d   1     -40.064  15.276  16.667  0.00  0.00     0.000 A 
ATOM     20  C   UNL d   1     -40.502  14.849  17.224  0.00  0.00     0.000 A 
ATOM     21  C   UNL d   1     -40.732  14.440  18.576  0.00  0.00     0.019 A 
ATOM     22  C   UNL d   1     -40.513  14.468  19.367  0.00  0.00     0.080 A 
ENDBRANCH   1  13
TORSDOF 1
ENDMDL
MODEL 9
REMARK VINA RESULT:      -6.1      1.584      2.256
REMARK  1 active torsions:
REMARK  status: ('A' for Active; 'I' for Inactive)
REMARK    1  A    between atoms: N_3  and  C_1 
ROOT
ATOM      1  C   UNL d   1     -47.383  13.138  22.925  0.00  0.00     0.110 A 
ATOM      2  C   UNL d   1     -46.755  12.718  22.568  0.00  0.00     0.212 A 
ATOM      3  C   UNL d   1     -46.055  13.112  22.383  0.00  0.00     0.046 A 
ATOM      4  C   UNL d   1     -47.297  13.947  23.090  0.00  0.00     0.056 A 
ATOM      5  S   UNL d   1     -46.583  14.334  22.898  0.00  0.00    -0.085 SA
ATOM      6  C   UNL d   1     -45.969  13.917  22.547  0.00  0.00     0.033 A 
ATOM      7  C   UNL d   1     -45.433  12.701  22.031  0.00  0.00     0.004 A 
ATOM      8  O   UNL d   1     -46.838  11.916  22.403  0.00  0.00    -0.285 OA
ATOM      9  C   UNL d   1     -45.266  14.304  22.360  0.00  0.00     0.007 A 
ATOM     10  C   UNL d   1     -44.738  13.081  21.845  0.00  0.00     0.000 A 
ATOM     11  C   UNL d   1     -44.651  13.897  22.011  0.00  0.00     0.001 A 
ATOM     12  C   UNL d   1     -44.115  12.677  21.494  0.00  0.00     0.000 C 
ENDROOT
BRANCH   1  13
ATOM     13  N   UNL d   1     -48.089  12.751  23.114  0.00  0.00    -0.301 N 
ATOM     14  C   UNL d   1     -48.805  13.100  22.944  0.00  0.00     0.080 A 
ATOM     15  C   UNL d   1     -49.516  12.716  23.131  0.00  0.00     0.018 A 
ATOM     16  C   UNL d   1     -50.236  13.067  22.959  0.00  0.00     0.002 A 
ATOM     17  C   UNL d   1     -49.495  11.978  23.492  0.00  0.00     0.003 A 
ATOM     18  C   UNL d   1     -50.942  12.684  23.146  0.00  0.00     0.000 A 
ATOM     19  C   UNL d   1     -50.922  11.942  23.509  0.00  0.00     0.000 A 
ATOM     20  C   UNL d   1     -50.194  11.587  23.682  0.00  0.00     0.000 A 
ATOM     21  C   UNL d   1     -48.764  11.613  23.670  0.00  0.00     0.019 A 
ATOM     22  C   UNL d   1     -48.068  12.007  23.478  0.00  0.00     0.080 A 
ENDBRANCH   1  13
TORSDOF 1
ENDMDL
