MODEL 1
REMARK VINA RESULT:      -2.7      0.000      0.000
REMARK  4 active torsions:
REMARK  status: ('A' for Active; 'I' for Inactive)
REMARK    1  A    between atoms: C_7  and  N_1 
REMARK    2  A    between atoms: C_10  and  C_5 
REMARK    3  A    between atoms: N_6  and  C_9 
REMARK    4  A    between atoms: O_18  and  C_13 
ROOT
ATOM      1  N   UNL d   1      32.367  18.213 -23.754  0.00  0.00    -0.279 N 
ATOM      2  C   UNL d   1      32.919  18.639 -24.196  0.00  0.00     0.206 A 
ATOM      3  N   UNL d   1      33.219  19.213 -23.718  0.00  0.00    -0.217 NA
ATOM      4  C   UNL d   1      32.344  18.543 -23.004  0.00  0.00     0.101 A 
ATOM      5  C   UNL d   1      32.870  19.150 -23.005  0.00  0.00     0.101 A 
ATOM      6  S   UNL d   1      33.121  18.488 -25.002  0.00  0.00    -0.038 SA
ENDROOT
BRANCH   5   7
ATOM      7  C   UNL d   1      32.976  19.594 -22.329  0.00  0.00     0.019 A 
ATOM      8  C   UNL d   1      33.165  19.381 -21.562  0.00  0.00     0.003 A 
ATOM      9  C   UNL d   1      33.241  19.965 -20.964  0.00  0.00     0.024 A 
ATOM     10  C   UNL d   1      33.126  20.752 -21.148  0.00  0.00     0.127 A 
ATOM     11  C   UNL d   1      32.933  20.966 -21.936  0.00  0.00     0.024 A 
ATOM     12  C   UNL d   1      32.861  20.381 -22.513  0.00  0.00     0.003 A 
BRANCH  10  13
ATOM     13  N   UNL d   1      33.200  21.328 -20.561  0.00  0.00    -0.114 N 
ATOM     14  O   UNL d   1      33.238  21.111 -19.775  0.00  0.00    -0.532 OA
ATOM     15  O   UNL d   1      33.237  22.128 -20.772  0.00  0.00    -0.532 OA
ENDBRANCH  10  13
ENDBRANCH   5   7
BRANCH   1  16
ATOM     16  C   UNL d   1      31.947  17.570 -24.088  0.00  0.00     0.088 A 
ATOM     17  C   UNL d   1      32.104  16.795 -23.847  0.00  0.00     0.110 A 
ATOM     18  C   UNL d   1      31.697  16.181 -24.173  0.00  0.00     0.026 A 
ATOM     19  C   UNL d   1      31.115  16.310 -24.754  0.00  0.00     0.002 A 
ATOM     20  C   UNL d   1      30.947  17.080 -25.006  0.00  0.00     0.002 A 
ATOM     21  C   UNL d   1      31.379  17.716 -24.658  0.00  0.00     0.020 A 
BRANCH  17  22
ATOM     22  O   UNL d   1      32.707  16.674 -23.247  0.00  0.00    -0.327 OA
ATOM     23  C   UNL d   1      32.916  15.884 -23.056  0.00  0.00     0.181 C 
ENDBRANCH  17  22
ENDBRANCH   1  16
TORSDOF 4
ENDMDL
MODEL 2
REMARK VINA RESULT:      -2.1      2.157      4.665
REMARK  4 active torsions:
REMARK  status: ('A' for Active; 'I' for Inactive)
REMARK    1  A    between atoms: C_7  and  N_1 
REMARK    2  A    between atoms: C_10  and  C_5 
REMARK    3  A    between atoms: N_6  and  C_9 
REMARK    4  A    between atoms: O_18  and  C_13 
ROOT
ATOM      1  N   UNL d   1      32.084  18.170 -24.433  0.00  0.00    -0.279 N 
ATOM      2  C   UNL d   1      32.453  17.514 -24.771  0.00  0.00     0.206 A 
ATOM      3  N   UNL d   1      31.936  16.898 -24.732  0.00  0.00    -0.217 NA
ATOM      4  C   UNL d   1      31.337  17.935 -24.191  0.00  0.00     0.101 A 
ATOM      5  C   UNL d   1      31.268  17.157 -24.383  0.00  0.00     0.101 A 
ATOM      6  S   UNL d   1      33.234  17.505 -25.096  0.00  0.00    -0.038 SA
ENDROOT
BRANCH   5   7
ATOM      7  C   UNL d   1      30.579  16.758 -24.212  0.00  0.00     0.019 A 
ATOM      8  C   UNL d   1      30.444  16.035 -23.854  0.00  0.00     0.003 A 
ATOM      9  C   UNL d   1      29.661  15.752 -23.745  0.00  0.00     0.024 A 
ATOM     10  C   UNL d   1      29.029  16.201 -23.999  0.00  0.00     0.127 A 
ATOM     11  C   UNL d   1      29.171  16.942 -24.366  0.00  0.00     0.024 A 
ATOM     12  C   UNL d   1      29.947  17.207 -24.465  0.00  0.00     0.003 A 
BRANCH  10  13
ATOM     13  N   UNL d   1      28.257  15.925 -23.893  0.00  0.00    -0.114 N 
ATOM     14  O   UNL d   1      27.841  16.117 -23.217  0.00  0.00    -0.532 OA
ATOM     15  O   UNL d   1      27.906  15.453 -24.476  0.00  0.00    -0.532 OA
ENDBRANCH  10  13
ENDBRANCH   5   7
BRANCH   1  16
ATOM     16  C   UNL d   1      32.474  18.910 -24.384  0.00  0.00     0.088 A 
ATOM     17  C   UNL d   1      32.788  19.172 -23.667  0.00  0.00     0.110 A 
ATOM     18  C   UNL d   1      33.162  19.885 -23.627  0.00  0.00     0.026 A 
ATOM     19  C   UNL d   1      33.240  20.369 -24.300  0.00  0.00     0.002 A 
ATOM     20  C   UNL d   1      32.930  20.120 -25.025  0.00  0.00     0.002 A 
ATOM     21  C   UNL d   1      32.541  19.372 -25.056  0.00  0.00     0.020 A 
BRANCH  17  22
ATOM     22  O   UNL d   1      32.702  18.665 -22.979  0.00  0.00    -0.327 OA
ATOM     23  C   UNL d   1      33.089  18.895 -22.271  0.00  0.00     0.181 C 
ENDBRANCH  17  22
ENDBRANCH   1  16
TORSDOF 4
ENDMDL
MODEL 3
REMARK VINA RESULT:      -1.9      2.083      5.186
REMARK  4 active torsions:
REMARK  status: ('A' for Active; 'I' for Inactive)
REMARK    1  A    between atoms: C_7  and  N_1 
REMARK    2  A    between atoms: C_10  and  C_5 
REMARK    3  A    between atoms: N_6  and  C_9 
REMARK    4  A    between atoms: O_18  and  C_13 
ROOT
ATOM      1  N   UNL d   1      32.585  21.514 -21.247  0.00  0.00    -0.279 N 
ATOM      2  C   UNL d   1      33.028  21.045 -20.733  0.00  0.00     0.206 A 
ATOM      3  N   UNL d   1      33.241  20.380 -21.136  0.00  0.00    -0.217 NA
ATOM      4  C   UNL d   1      32.536  21.118 -21.963  0.00  0.00     0.101 A 
ATOM      5  C   UNL d   1      32.943  20.431 -21.872  0.00  0.00     0.101 A 
ATOM      6  S   UNL d   1      33.217  21.239 -19.933  0.00  0.00    -0.038 SA
ENDROOT
BRANCH   5   7
ATOM      7  C   UNL d   1      32.997  19.908 -22.495  0.00  0.00     0.019 A 
ATOM      8  C   UNL d   1      33.167  20.022 -23.288  0.00  0.00     0.003 A 
ATOM      9  C   UNL d   1      33.187  19.371 -23.817  0.00  0.00     0.024 A 
ATOM     10  C   UNL d   1      33.035  18.618 -23.541  0.00  0.00     0.127 A 
ATOM     11  C   UNL d   1      32.861  18.506 -22.728  0.00  0.00     0.024 A 
ATOM     12  C   UNL d   1      32.846  19.155 -22.219  0.00  0.00     0.003 A 
BRANCH  10  13
ATOM     13  N   UNL d   1      33.054  17.976 -24.061  0.00  0.00    -0.114 N 
ATOM     14  O   UNL d   1      33.137  18.100 -24.863  0.00  0.00    -0.532 OA
ATOM     15  O   UNL d   1      32.988  17.206 -23.764  0.00  0.00    -0.532 OA
ENDBRANCH  10  13
ENDBRANCH   5   7
BRANCH   1  16
ATOM     16  C   UNL d   1      32.275  22.252 -21.001  0.00  0.00     0.088 A 
ATOM     17  C   UNL d   1      32.282  22.902 -21.511  0.00  0.00     0.110 A 
ATOM     18  C   UNL d   1      31.982  23.610 -21.267  0.00  0.00     0.026 A 
ATOM     19  C   UNL d   1      31.661  23.702 -20.505  0.00  0.00     0.002 A 
ATOM     20  C   UNL d   1      31.646  23.060 -19.983  0.00  0.00     0.002 A 
ATOM     21  C   UNL d   1      31.963  22.324 -20.248  0.00  0.00     0.020 A 
BRANCH  17  22
ATOM     22  O   UNL d   1      32.616  22.795 -22.295  0.00  0.00    -0.327 OA
ATOM     23  C   UNL d   1      32.581  23.442 -22.828  0.00  0.00     0.181 C 
ENDBRANCH  17  22
ENDBRANCH   1  16
TORSDOF 4
ENDMDL
MODEL 4
REMARK VINA RESULT:      -1.1      1.881      2.419
REMARK  4 active torsions:
REMARK  status: ('A' for Active; 'I' for Inactive)
REMARK    1  A    between atoms: C_7  and  N_1 
REMARK    2  A    between atoms: C_10  and  C_5 
REMARK    3  A    between atoms: N_6  and  C_9 
REMARK    4  A    between atoms: O_18  and  C_13 
ROOT
ATOM      1  N   UNL d   1      32.463  17.685 -24.084  0.00  0.00    -0.279 N 
ATOM      2  C   UNL d   1      32.978  17.726 -23.440  0.00  0.00     0.206 A 
ATOM      3  N   UNL d   1      33.241  18.486 -23.388  0.00  0.00    -0.217 NA
ATOM      4  C   UNL d   1      32.423  18.434 -24.416  0.00  0.00     0.101 A 
ATOM      5  C   UNL d   1      32.904  18.905 -23.976  0.00  0.00     0.101 A 
ATOM      6  S   UNL d   1      33.183  17.080 -22.936  0.00  0.00    -0.038 SA
ENDROOT
BRANCH   5   7
ATOM      7  C   UNL d   1      32.984  19.693 -24.169  0.00  0.00     0.019 A 
ATOM      8  C   UNL d   1      33.115  20.068 -24.884  0.00  0.00     0.003 A 
ATOM      9  C   UNL d   1      33.175  20.903 -24.923  0.00  0.00     0.024 A 
ATOM     10  C   UNL d   1      33.103  21.348 -24.242  0.00  0.00     0.127 A 
ATOM     11  C   UNL d   1      32.969  20.960 -23.510  0.00  0.00     0.024 A 
ATOM     12  C   UNL d   1      32.912  20.137 -23.488  0.00  0.00     0.003 A 
BRANCH  10  13
ATOM     13  N   UNL d   1      33.162  22.171 -24.278  0.00  0.00    -0.114 N 
ATOM     14  O   UNL d   1      33.152  22.614 -23.593  0.00  0.00    -0.532 OA
ATOM     15  O   UNL d   1      33.232  22.547 -25.013  0.00  0.00    -0.532 OA
ENDBRANCH  10  13
ENDBRANCH   5   7
BRANCH   1  16
ATOM     16  C   UNL d   1      32.089  16.966 -24.295  0.00  0.00     0.088 A 
ATOM     17  C   UNL d   1      31.265  16.915 -24.324  0.00  0.00     0.110 A 
ATOM     18  C   UNL d   1      30.911  16.219 -24.527  0.00  0.00     0.026 A 
ATOM     19  C   UNL d   1      31.362  15.544 -24.711  0.00  0.00     0.002 A 
ATOM     20  C   UNL d   1      32.188  15.580 -24.686  0.00  0.00     0.002 A 
ATOM     21  C   UNL d   1      32.548  16.313 -24.472  0.00  0.00     0.020 A 
BRANCH  17  22
ATOM     22  O   UNL d   1      30.810  17.618 -24.133  0.00  0.00    -0.327 OA
ATOM     23  C   UNL d   1      29.991  17.616 -24.315  0.00  0.00     0.181 C 
ENDBRANCH  17  22
ENDBRANCH   1  16
TORSDOF 4
ENDMDL
MODEL 5
REMARK VINA RESULT:      -0.7      1.457      4.652
REMARK  4 active torsions:
REMARK  status: ('A' for Active; 'I' for Inactive)
REMARK    1  A    between atoms: C_7  and  N_1 
REMARK    2  A    between atoms: C_10  and  C_5 
REMARK    3  A    between atoms: N_6  and  C_9 
REMARK    4  A    between atoms: O_18  and  C_13 
ROOT
ATOM      1  N   UNL d   1      33.002  20.864 -22.358  0.00  0.00    -0.279 N 
ATOM      2  C   UNL d   1      33.142  21.044 -23.151  0.00  0.00     0.206 A 
ATOM      3  N   UNL d   1      33.168  20.348 -23.556  0.00  0.00    -0.217 NA
ATOM      4  C   UNL d   1      32.944  20.049 -22.297  0.00  0.00     0.101 A 
ATOM      5  C   UNL d   1      33.048  19.755 -23.038  0.00  0.00     0.101 A 
ATOM      6  S   UNL d   1      33.240  21.822 -23.467  0.00  0.00    -0.038 SA
ENDROOT
BRANCH   5   7
ATOM      7  C   UNL d   1      33.021  18.950 -23.162  0.00  0.00     0.019 A 
ATOM      8  C   UNL d   1      33.212  18.318 -22.678  0.00  0.00     0.003 A 
ATOM      9  C   UNL d   1      33.129  17.530 -22.953  0.00  0.00     0.024 A 
ATOM     10  C   UNL d   1      32.855  17.391 -23.709  0.00  0.00     0.127 A 
ATOM     11  C   UNL d   1      32.659  18.041 -24.202  0.00  0.00     0.024 A 
ATOM     12  C   UNL d   1      32.746  18.811 -23.918  0.00  0.00     0.003 A 
BRANCH  10  13
ATOM     13  N   UNL d   1      32.772  16.615 -23.982  0.00  0.00    -0.114 N 
ATOM     14  O   UNL d   1      32.992  16.423 -24.744  0.00  0.00    -0.532 OA
ATOM     15  O   UNL d   1      32.465  16.033 -23.479  0.00  0.00    -0.532 OA
ENDBRANCH  10  13
ENDBRANCH   5   7
BRANCH   1  16
ATOM     16  C   UNL d   1      32.943  21.467 -21.781  0.00  0.00     0.088 A 
ATOM     17  C   UNL d   1      33.059  21.296 -20.981  0.00  0.00     0.110 A 
ATOM     18  C   UNL d   1      33.001  21.882 -20.430  0.00  0.00     0.026 A 
ATOM     19  C   UNL d   1      32.824  22.665 -20.651  0.00  0.00     0.002 A 
ATOM     20  C   UNL d   1      32.705  22.852 -21.449  0.00  0.00     0.002 A 
ATOM     21  C   UNL d   1      32.769  22.231 -22.017  0.00  0.00     0.020 A 
BRANCH  17  22
ATOM     22  O   UNL d   1      33.241  20.485 -20.764  0.00  0.00    -0.327 OA
ATOM     23  C   UNL d   1      33.241  20.288 -19.949  0.00  0.00     0.181 C 
ENDBRANCH  17  22
ENDBRANCH   1  16
TORSDOF 4
ENDMDL
