MODEL 1
REMARK VINA RESULT:      50.9      0.000      0.000
REMARK  5 active torsions:
REMARK  status: ('A' for Active; 'I' for Inactive)
REMARK    1  A    between atoms: C_9  and  N_1 
REMARK    2  A    between atoms: C_10  and  C_2 
REMARK    3  A    between atoms: C_3  and  C_11 
REMARK    4  A    between atoms: O_14  and  C_9 
REMARK    5  A    between atoms: C_11  and  O_14 
ROOT
ATOM      1  C   UNL d   1      14.549  13.456  -2.648  0.00  0.00     0.305 C 
ATOM      2  O   UNL d   1      15.360  13.305  -2.731  0.00  0.00    -0.259 OA
ENDROOT
BRANCH   1   3
ATOM      3  C   UNL d   1      14.004  12.864  -2.814  0.00  0.00     0.108 A 
ATOM      4  C   UNL d   1      13.806  12.229  -2.323  0.00  0.00     0.116 A 
ATOM      5  N   UNL d   1      13.245  11.781  -2.707  0.00  0.00    -0.126 NA
ATOM      6  O   UNL d   1      13.088  12.126  -3.433  0.00  0.00    -0.211 OA
ATOM      7  C   UNL d   1      13.560  12.798  -3.497  0.00  0.00     0.132 A 
ATOM      8  C   UNL d   1      13.583  13.319  -4.140  0.00  0.00     0.029 C 
BRANCH   4   9
ATOM      9  C   UNL d   1      14.123  12.078  -1.577  0.00  0.00     0.031 A 
ATOM     10  C   UNL d   1      13.620  11.931  -0.945  0.00  0.00     0.059 A 
ATOM     11 CL   UNL d   1      12.818  11.934  -1.051  0.00  0.00    -0.082 Cl
ATOM     12  C   UNL d   1      13.936  11.783  -0.207  0.00  0.00     0.011 A 
ATOM     13  C   UNL d   1      14.757  11.779  -0.092  0.00  0.00     0.001 A 
ATOM     14  C   UNL d   1      15.260  11.926  -0.723  0.00  0.00     0.000 A 
ATOM     15  C   UNL d   1      14.943  12.077  -1.471  0.00  0.00     0.002 A 
ENDBRANCH   4   9
ENDBRANCH   1   3
BRANCH   1  16
ATOM     16  O   UNL d   1      14.292  14.201  -2.398  0.00  0.00    -0.252 OA
BRANCH  16  17
ATOM     17  C   UNL d   1      14.428  14.445  -1.618  0.00  0.00     0.216 C 
BRANCH  17  18
ATOM     18  N   UNL d   1      14.734  15.199  -1.469  0.00  0.00    -0.218 N 
ATOM     19  C   UNL d   1      14.731  15.830  -1.991  0.00  0.00     0.269 A 
ATOM     20  C   UNL d   1      15.092  16.475  -1.619  0.00  0.00     0.061 A 
ATOM     21  O   UNL d   1      14.423  15.828  -2.761  0.00  0.00    -0.267 OA
ATOM     22  C   UNL d   1      15.246  17.246  -1.866  0.00  0.00     0.005 A 
ATOM     23  C   UNL d   1      15.317  16.234  -0.862  0.00  0.00     0.061 A 
ATOM     24  C   UNL d   1      15.620  17.773  -1.363  0.00  0.00     0.000 A 
ATOM     25  C   UNL d   1      15.845  17.532  -0.605  0.00  0.00     0.000 A 
ATOM     26  C   UNL d   1      15.695  16.764  -0.349  0.00  0.00     0.005 A 
ATOM     27  C   UNL d   1      15.096  15.439  -0.763  0.00  0.00     0.269 A 
ATOM     28  O   UNL d   1      15.213  14.978  -0.092  0.00  0.00    -0.267 OA
ENDBRANCH  17  18
ENDBRANCH  16  17
ENDBRANCH   1  16
TORSDOF 5
ENDMDL
