MODEL 1
REMARK VINA RESULT:      -6.2      0.000      0.000
REMARK  3 active torsions:
REMARK  status: ('A' for Active; 'I' for Inactive)
REMARK    1  A    between atoms: C_9  and  C_3 
REMARK    2  A    between atoms: N_10  and  C_9 
REMARK    3  A    between atoms: C_11  and  C_9 
ROOT
ATOM      1  C   UNL d   1     -48.559  13.589  22.672  0.00  0.00     0.075 C 
ENDROOT
BRANCH   1   2
ATOM      2  C   UNL d   1     -47.755  13.474  22.528  0.00  0.00     0.106 A 
ATOM      3  C   UNL d   1     -47.419  13.204  21.816  0.00  0.00     0.289 A 
ATOM      4  N   UNL d   1     -46.604  13.171  21.915  0.00  0.00    -0.169 N 
ATOM      5  O   UNL d   1     -47.836  13.006  21.131  0.00  0.00    -0.265 OA
ATOM      6  C   UNL d   1     -46.432  13.418  22.683  0.00  0.00     0.200 A 
ATOM      7  N   UNL d   1     -45.895  12.988  21.546  0.00  0.00    -0.141 NA
ATOM      8  S   UNL d   1     -47.137  13.604  23.061  0.00  0.00    -0.042 SA
ATOM      9  N   UNL d   1     -45.615  13.385  22.783  0.00  0.00    -0.200 NA
ATOM     10  C   UNL d   1     -45.283  13.119  22.079  0.00  0.00     0.184 A 
ATOM     11  C   UNL d   1     -44.480  13.002  21.927  0.00  0.00     0.044 C 
ENDBRANCH   1   2
BRANCH   1  12
ATOM     12  N   UNL d   1     -48.874  14.346  22.616  0.00  0.00    -0.300 N 
ATOM     13  C   UNL d   1     -49.042  14.668  21.885  0.00  0.00     0.107 A 
ATOM     14  C   UNL d   1     -49.361  15.434  21.837  0.00  0.00     0.142 A 
ATOM     15  O   UNL d   1     -49.507  15.870  22.522  0.00  0.00    -0.300 OA
ATOM     16  C   UNL d   1     -49.331  15.529  23.252  0.00  0.00     0.142 A 
ATOM     17  C   UNL d   1     -49.015  14.769  23.304  0.00  0.00     0.107 A 
ENDBRANCH   1  12
BRANCH   1  18
ATOM     18  C   UNL d   1     -49.035  12.952  22.869  0.00  0.00     0.017 A 
ATOM     19  C   UNL d   1     -49.717  12.799  22.429  0.00  0.00     0.002 A 
ATOM     20  C   UNL d   1     -50.202  12.154  22.627  0.00  0.00     0.000 A 
ATOM     21  C   UNL d   1     -49.998  11.681  23.253  0.00  0.00     0.000 A 
ATOM     22  C   UNL d   1     -49.311  11.841  23.689  0.00  0.00     0.000 A 
ATOM     23  C   UNL d   1     -50.479  11.025  23.465  0.00  0.00     0.000 C 
ATOM     24  C   UNL d   1     -48.840  12.470  23.495  0.00  0.00     0.002 A 
ENDBRANCH   1  18
TORSDOF 3
ENDMDL
MODEL 2
REMARK VINA RESULT:      -5.5      8.990     10.045
REMARK  3 active torsions:
REMARK  status: ('A' for Active; 'I' for Inactive)
REMARK    1  A    between atoms: C_9  and  C_3 
REMARK    2  A    between atoms: N_10  and  C_9 
REMARK    3  A    between atoms: C_11  and  C_9 
ROOT
ATOM      1  C   UNL d   1     -39.632  14.646  18.196  0.00  0.00     0.075 C 
ENDROOT
BRANCH   1   2
ATOM      2  C   UNL d   1     -39.575  14.895  18.979  0.00  0.00     0.106 A 
ATOM      3  C   UNL d   1     -39.032  15.452  19.278  0.00  0.00     0.289 A 
ATOM      4  N   UNL d   1     -39.169  15.534  20.084  0.00  0.00    -0.169 N 
ATOM      5  O   UNL d   1     -38.458  15.849  18.837  0.00  0.00    -0.265 OA
ATOM      6  C   UNL d   1     -39.793  15.033  20.288  0.00  0.00     0.200 A 
ATOM      7  N   UNL d   1     -38.926  15.922  20.764  0.00  0.00    -0.141 NA
ATOM      8  S   UNL d   1     -40.042  14.641  19.611  0.00  0.00    -0.042 SA
ATOM      9  N   UNL d   1     -39.930  15.116  21.095  0.00  0.00    -0.200 NA
ATOM     10  C   UNL d   1     -39.394  15.666  21.390  0.00  0.00     0.184 A 
ATOM     11  C   UNL d   1     -39.331  15.920  22.173  0.00  0.00     0.044 C 
ENDBRANCH   1   2
BRANCH   1  12
ATOM     12  N   UNL d   1     -40.114  15.061  17.675  0.00  0.00    -0.300 N 
ATOM     13  C   UNL d   1     -40.926  15.031  17.754  0.00  0.00     0.107 A 
ATOM     14  C   UNL d   1     -41.406  15.454  17.223  0.00  0.00     0.142 A 
ATOM     15  O   UNL d   1     -41.068  15.903  16.620  0.00  0.00    -0.300 OA
ATOM     16  C   UNL d   1     -40.246  15.922  16.555  0.00  0.00     0.142 A 
ATOM     17  C   UNL d   1     -39.766  15.504  17.079  0.00  0.00     0.107 A 
ENDBRANCH   1  12
BRANCH   1  18
ATOM     18  C   UNL d   1     -39.212  13.990  17.942  0.00  0.00     0.017 A 
ATOM     19  C   UNL d   1     -38.467  14.088  17.601  0.00  0.00     0.002 A 
ATOM     20  C   UNL d   1     -38.039  13.424  17.342  0.00  0.00     0.000 A 
ATOM     21  C   UNL d   1     -38.361  12.685  17.429  0.00  0.00     0.000 A 
ATOM     22  C   UNL d   1     -39.110  12.596  17.773  0.00  0.00     0.000 A 
ATOM     23  C   UNL d   1     -37.940  12.004  17.172  0.00  0.00     0.000 C 
ATOM     24  C   UNL d   1     -39.525  13.243  18.024  0.00  0.00     0.002 A 
ENDBRANCH   1  18
TORSDOF 3
ENDMDL
MODEL 3
REMARK VINA RESULT:      -4.6      7.261      9.375
REMARK  3 active torsions:
REMARK  status: ('A' for Active; 'I' for Inactive)
REMARK    1  A    between atoms: C_9  and  C_3 
REMARK    2  A    between atoms: N_10  and  C_9 
REMARK    3  A    between atoms: C_11  and  C_9 
ROOT
ATOM      1  C   UNL d   1     -39.731  14.807  20.653  0.00  0.00     0.075 C 
ENDROOT
BRANCH   1   2
ATOM      2  C   UNL d   1     -39.377  14.949  19.922  0.00  0.00     0.106 A 
ATOM      3  C   UNL d   1     -39.381  14.435  19.267  0.00  0.00     0.289 A 
ATOM      4  N   UNL d   1     -38.966  14.795  18.657  0.00  0.00    -0.169 N 
ATOM      5  O   UNL d   1     -39.741  13.692  19.241  0.00  0.00    -0.265 OA
ATOM      6  C   UNL d   1     -38.704  15.530  18.927  0.00  0.00     0.200 A 
ATOM      7  N   UNL d   1     -38.711  14.707  17.883  0.00  0.00    -0.141 NA
ATOM      8  S   UNL d   1     -38.956  15.625  19.703  0.00  0.00    -0.042 SA
ATOM      9  N   UNL d   1     -38.288  15.891  18.316  0.00  0.00    -0.200 NA
ATOM     10  C   UNL d   1     -38.292  15.383  17.670  0.00  0.00     0.184 A 
ATOM     11  C   UNL d   1     -37.941  15.518  16.935  0.00  0.00     0.044 C 
ENDBRANCH   1   2
BRANCH   1  12
ATOM     12  N   UNL d   1     -40.530  14.973  20.753  0.00  0.00    -0.300 N 
ATOM     13  C   UNL d   1     -41.081  14.372  20.723  0.00  0.00     0.107 A 
ATOM     14  C   UNL d   1     -41.887  14.548  20.825  0.00  0.00     0.142 A 
ATOM     15  O   UNL d   1     -42.132  15.324  20.958  0.00  0.00    -0.300 OA
ATOM     16  C   UNL d   1     -41.561  15.919  20.985  0.00  0.00     0.142 A 
ATOM     17  C   UNL d   1     -40.761  15.749  20.884  0.00  0.00     0.107 A 
ENDBRANCH   1  12
BRANCH   1  18
ATOM     18  C   UNL d   1     -39.287  14.503  21.271  0.00  0.00     0.017 A 
ATOM     19  C   UNL d   1     -39.216  13.685  21.360  0.00  0.00     0.002 A 
ATOM     20  C   UNL d   1     -38.766  13.375  21.986  0.00  0.00     0.000 A 
ATOM     21  C   UNL d   1     -38.402  13.882  22.504  0.00  0.00     0.000 A 
ATOM     22  C   UNL d   1     -38.480  14.701  22.407  0.00  0.00     0.000 A 
ATOM     23  C   UNL d   1     -37.945  13.581  23.142  0.00  0.00     0.000 C 
ATOM     24  C   UNL d   1     -38.917  15.002  21.797  0.00  0.00     0.002 A 
ENDBRANCH   1  18
TORSDOF 3
ENDMDL
MODEL 4
REMARK VINA RESULT:      -3.3      5.525      8.775
REMARK  3 active torsions:
REMARK  status: ('A' for Active; 'I' for Inactive)
REMARK    1  A    between atoms: C_9  and  C_3 
REMARK    2  A    between atoms: N_10  and  C_9 
REMARK    3  A    between atoms: C_11  and  C_9 
ROOT
ATOM      1  C   UNL d   1     -40.238  14.788  20.244  0.00  0.00     0.075 C 
ENDROOT
BRANCH   1   2
ATOM      2  C   UNL d   1     -40.901  14.381  20.518  0.00  0.00     0.106 A 
ATOM      3  C   UNL d   1     -41.591  14.725  20.832  0.00  0.00     0.289 A 
ATOM      4  N   UNL d   1     -42.108  14.119  21.035  0.00  0.00    -0.169 N 
ATOM      5  O   UNL d   1     -41.728  15.534  20.924  0.00  0.00    -0.265 OA
ATOM      6  C   UNL d   1     -41.744  13.402  20.848  0.00  0.00     0.200 A 
ATOM      7  N   UNL d   1     -42.846  13.951  21.350  0.00  0.00    -0.141 NA
ATOM      8  S   UNL d   1     -41.004  13.562  20.531  0.00  0.00    -0.042 SA
ATOM      9  N   UNL d   1     -42.262  12.795  21.050  0.00  0.00    -0.200 NA
ATOM     10  C   UNL d   1     -42.944  13.134  21.361  0.00  0.00     0.184 A 
ATOM     11  C   UNL d   1     -43.611  12.734  21.636  0.00  0.00     0.044 C 
ENDBRANCH   1   2
BRANCH   1  12
ATOM     12  N   UNL d   1     -39.642  14.990  20.774  0.00  0.00    -0.300 N 
ATOM     13  C   UNL d   1     -39.646  15.722  21.136  0.00  0.00     0.107 A 
ATOM     14  C   UNL d   1     -39.040  15.918  21.671  0.00  0.00     0.142 A 
ATOM     15  O   UNL d   1     -38.438  15.380  21.836  0.00  0.00    -0.300 OA
ATOM     16  C   UNL d   1     -38.450  14.645  21.461  0.00  0.00     0.142 A 
ATOM     17  C   UNL d   1     -39.049  14.446  20.930  0.00  0.00     0.107 A 
ENDBRANCH   1  12
BRANCH   1  18
ATOM     18  C   UNL d   1     -40.177  14.988  19.452  0.00  0.00     0.017 A 
ATOM     19  C   UNL d   1     -39.878  14.439  18.913  0.00  0.00     0.002 A 
ATOM     20  C   UNL d   1     -39.815  14.640  18.109  0.00  0.00     0.000 A 
ATOM     21  C   UNL d   1     -40.050  15.376  17.864  0.00  0.00     0.000 A 
ATOM     22  C   UNL d   1     -40.349  15.921  18.412  0.00  0.00     0.000 A 
ATOM     23  C   UNL d   1     -39.991  15.593  17.054  0.00  0.00     0.000 C 
ATOM     24  C   UNL d   1     -40.409  15.725  19.194  0.00  0.00     0.002 A 
ENDBRANCH   1  18
TORSDOF 3
ENDMDL
