MODEL 1
REMARK VINA RESULT:      12.8      0.000      0.000
REMARK  3 active torsions:
REMARK  status: ('A' for Active; 'I' for Inactive)
REMARK    1  A    between atoms: S_9  and  C_2 
REMARK    2  A    between atoms: C_15  and  S_9 
REMARK    3  A    between atoms: C_14  and  C_15 
ROOT
ATOM      1  C   UNL d   1      13.625  12.083  -4.584  0.00  0.00     0.119 A 
ATOM      2  C   UNL d   1      13.111  12.727  -4.664  0.00  0.00     0.119 A 
ATOM      3  O   UNL d   1      13.877  11.873  -5.336  0.00  0.00    -0.300 OA
ATOM      4  O   UNL d   1      13.052  12.907  -5.463  0.00  0.00    -0.300 OA
ATOM      5  C   UNL d   1      13.523  12.381  -5.872  0.00  0.00     0.304 A 
ATOM      6  C   UNL d   1      13.791  11.780  -3.843  0.00  0.00     0.027 A 
ATOM      7  C   UNL d   1      12.773  13.056  -4.000  0.00  0.00     0.026 A 
ATOM      8  C   UNL d   1      13.447  12.114  -3.172  0.00  0.00     0.009 A 
ATOM      9  C   UNL d   1      12.933  12.759  -3.251  0.00  0.00     0.003 A 
ENDROOT
BRANCH   8  10
ATOM     10  C   UNL d   1      13.612  11.811  -2.427  0.00  0.00     0.037 C 
BRANCH  10  11
ATOM     11  S   UNL d   1      14.379  11.856  -2.116  0.00  0.00    -0.059 SA
BRANCH  11  12
ATOM     12  C   UNL d   1      14.512  12.213  -1.358  0.00  0.00     0.164 A 
ATOM     13  S   UNL d   1      14.944  12.913  -1.227  0.00  0.00    -0.039 SA
ATOM     14  C   UNL d   1      14.934  13.063  -0.393  0.00  0.00     0.134 A 
ATOM     15  N   UNL d   1      14.501  12.457  -0.037  0.00  0.00    -0.140 NA
ATOM     16  C   UNL d   1      15.303  13.713  -0.015  0.00  0.00     0.030 C 
ATOM     17  N   UNL d   1      14.234  11.924  -0.629  0.00  0.00    -0.134 NA
ENDBRANCH  11  12
ENDBRANCH  10  11
ENDBRANCH   8  10
TORSDOF 3
ENDMDL
MODEL 2
REMARK VINA RESULT:      13.5      2.493      4.186
REMARK  3 active torsions:
REMARK  status: ('A' for Active; 'I' for Inactive)
REMARK    1  A    between atoms: S_9  and  C_2 
REMARK    2  A    between atoms: C_15  and  S_9 
REMARK    3  A    between atoms: C_14  and  C_15 
ROOT
ATOM      1  C   UNL d   1      14.631  13.344  -0.961  0.00  0.00     0.119 A 
ATOM      2  C   UNL d   1      15.220  12.898  -0.589  0.00  0.00     0.119 A 
ATOM      3  O   UNL d   1      14.636  14.092  -0.624  0.00  0.00    -0.300 OA
ATOM      4  O   UNL d   1      15.582  13.375  -0.026  0.00  0.00    -0.300 OA
ATOM      5  C   UNL d   1      15.221  14.106  -0.051  0.00  0.00     0.304 A 
ATOM      6  C   UNL d   1      14.174  13.009  -1.552  0.00  0.00     0.027 A 
ATOM      7  C   UNL d   1      15.342  12.125  -0.814  0.00  0.00     0.026 A 
ATOM      8  C   UNL d   1      14.300  12.226  -1.778  0.00  0.00     0.009 A 
ATOM      9  C   UNL d   1      14.889  11.779  -1.406  0.00  0.00     0.003 A 
ENDROOT
BRANCH   8  10
ATOM     10  C   UNL d   1      13.842  11.888  -2.371  0.00  0.00     0.037 C 
BRANCH  10  11
ATOM     11  S   UNL d   1      13.212  12.309  -2.706  0.00  0.00    -0.059 SA
BRANCH  11  12
ATOM     12  C   UNL d   1      13.164  12.407  -3.547  0.00  0.00     0.164 A 
ATOM     13  S   UNL d   1      13.390  11.835  -4.110  0.00  0.00    -0.039 SA
ATOM     14  C   UNL d   1      13.248  12.166  -4.876  0.00  0.00     0.134 A 
ATOM     15  N   UNL d   1      12.941  12.924  -4.768  0.00  0.00    -0.140 NA
ATOM     16  C   UNL d   1      13.398  11.779  -5.605  0.00  0.00     0.030 C 
ATOM     17  N   UNL d   1      12.886  13.083  -3.944  0.00  0.00    -0.134 NA
ENDBRANCH  11  12
ENDBRANCH  10  11
ENDBRANCH   8  10
TORSDOF 3
ENDMDL
