MODEL 1
REMARK VINA RESULT:      -8.3      0.000      0.000
REMARK  5 active torsions:
REMARK  status: ('A' for Active; 'I' for Inactive)
REMARK    1  A    between atoms: N_2  and  S_1 
REMARK    2  A    between atoms: C_3  and  S_1 
REMARK    3  A    between atoms: C_6  and  C_4 
REMARK    4  A    between atoms: O_15  and  C_6 
REMARK    5  A    between atoms: C_18  and  O_15 
ROOT
ATOM      1  N   UNL d   1      52.838  32.629  53.298  0.00  0.00    -0.229 N 
ATOM      2  C   UNL d   1      53.429  31.345  53.438  0.00  0.00     0.082 A 
ATOM      3  C   UNL d   1      52.769  31.816  53.291  0.00  0.00     0.097 A 
ATOM      4  C   UNL d   1      53.566  32.985  53.451  0.00  0.00     0.092 A 
ATOM      5  C   UNL d   1      54.158  31.688  53.591  0.00  0.00     0.008 A 
ATOM      6  C   UNL d   1      54.227  32.510  53.597  0.00  0.00     0.020 A 
ENDROOT
BRANCH   1   7
ATOM      7  S   UNL d   1      52.177  33.100  53.151  0.00  0.00     0.277 S 
ATOM      8  O   UNL d   1      52.240  32.936  52.346  0.00  0.00    -0.199 OA
ATOM      9  O   UNL d   1      52.115  33.264  53.958  0.00  0.00    -0.199 OA
BRANCH   7  10
ATOM     10  C   UNL d   1      51.515  33.571  53.004  0.00  0.00     0.133 A 
ATOM     11  S   UNL d   1      50.782  33.787  53.291  0.00  0.00    -0.074 SA
ATOM     12  C   UNL d   1      50.447  34.333  52.767  0.00  0.00     0.036 A 
ATOM     13  C   UNL d   1      50.992  34.446  52.152  0.00  0.00     0.008 A 
ATOM     14  C   UNL d   1      51.652  33.976  52.299  0.00  0.00     0.020 A 
ENDBRANCH   7  10
ENDBRANCH   1   7
BRANCH   2  15
ATOM     15  C   UNL d   1      53.353  30.520  53.430  0.00  0.00     0.302 C 
ATOM     16  O   UNL d   1      53.240  30.116  52.722  0.00  0.00    -0.259 OA
BRANCH  15  17
ATOM     17  O   UNL d   1      53.391  30.100  54.141  0.00  0.00    -0.271 OA
BRANCH  17  18
ATOM     18  C   UNL d   1      53.274  29.289  54.146  0.00  0.00     0.126 C 
ATOM     19  C   UNL d   1      53.345  28.865  54.851  0.00  0.00     0.029 C 
ENDBRANCH  17  18
ENDBRANCH  15  17
ENDBRANCH   2  15
TORSDOF 5
ENDMDL
MODEL 2
REMARK VINA RESULT:      -8.2      1.717      2.693
REMARK  5 active torsions:
REMARK  status: ('A' for Active; 'I' for Inactive)
REMARK    1  A    between atoms: N_2  and  S_1 
REMARK    2  A    between atoms: C_3  and  S_1 
REMARK    3  A    between atoms: C_6  and  C_4 
REMARK    4  A    between atoms: O_15  and  C_6 
REMARK    5  A    between atoms: C_18  and  O_15 
ROOT
ATOM      1  N   UNL d   1      53.530  32.228  53.672  0.00  0.00    -0.229 N 
ATOM      2  C   UNL d   1      53.074  30.923  53.343  0.00  0.00     0.082 A 
ATOM      3  C   UNL d   1      53.592  31.417  53.751  0.00  0.00     0.097 A 
ATOM      4  C   UNL d   1      52.950  32.556  53.186  0.00  0.00     0.092 A 
ATOM      5  C   UNL d   1      52.494  31.239  52.857  0.00  0.00     0.008 A 
ATOM      6  C   UNL d   1      52.432  32.058  52.778  0.00  0.00     0.020 A 
ENDROOT
BRANCH   1   7
ATOM      7  S   UNL d   1      54.048  32.722  54.080  0.00  0.00     0.277 S 
ATOM      8  O   UNL d   1      53.484  32.824  54.672  0.00  0.00    -0.199 OA
ATOM      9  O   UNL d   1      54.613  32.619  53.487  0.00  0.00    -0.199 OA
BRANCH   7  10
ATOM     10  C   UNL d   1      54.567  33.217  54.489  0.00  0.00     0.133 A 
ATOM     11  S   UNL d   1      55.191  33.736  54.401  0.00  0.00    -0.074 SA
ATOM     12  C   UNL d   1      55.405  34.017  55.149  0.00  0.00     0.036 A 
ATOM     13  C   UNL d   1      54.898  33.658  55.698  0.00  0.00     0.008 A 
ATOM     14  C   UNL d   1      54.380  33.164  55.291  0.00  0.00     0.020 A 
ENDBRANCH   7  10
ENDBRANCH   1   7
BRANCH   2  15
ATOM     15  C   UNL d   1      53.142  30.101  53.426  0.00  0.00     0.302 C 
ATOM     16  O   UNL d   1      53.130  29.610  52.766  0.00  0.00    -0.259 OA
BRANCH  15  17
ATOM     17  O   UNL d   1      53.222  29.773  54.180  0.00  0.00    -0.271 OA
BRANCH  17  18
ATOM     18  C   UNL d   1      53.289  28.962  54.271  0.00  0.00     0.126 C 
ATOM     19  C   UNL d   1      53.392  28.635  55.023  0.00  0.00     0.029 C 
ENDBRANCH  17  18
ENDBRANCH  15  17
ENDBRANCH   2  15
TORSDOF 5
ENDMDL
MODEL 3
REMARK VINA RESULT:      -7.8      1.443      2.324
REMARK  5 active torsions:
REMARK  status: ('A' for Active; 'I' for Inactive)
REMARK    1  A    between atoms: N_2  and  S_1 
REMARK    2  A    between atoms: C_3  and  S_1 
REMARK    3  A    between atoms: C_6  and  C_4 
REMARK    4  A    between atoms: O_15  and  C_6 
REMARK    5  A    between atoms: C_18  and  O_15 
ROOT
ATOM      1  N   UNL d   1      52.506  32.667  53.222  0.00  0.00    -0.229 N 
ATOM      2  C   UNL d   1      53.582  32.413  54.113  0.00  0.00     0.082 A 
ATOM      3  C   UNL d   1      52.997  32.916  53.824  0.00  0.00     0.097 A 
ATOM      4  C   UNL d   1      52.591  31.913  52.899  0.00  0.00     0.092 A 
ATOM      5  C   UNL d   1      53.676  31.661  53.799  0.00  0.00     0.008 A 
ATOM      6  C   UNL d   1      53.179  31.410  53.190  0.00  0.00     0.020 A 
ENDROOT
BRANCH   1   7
ATOM      7  S   UNL d   1      51.920  33.170  52.933  0.00  0.00     0.277 S 
ATOM      8  O   UNL d   1      52.384  33.329  52.271  0.00  0.00    -0.199 OA
ATOM      9  O   UNL d   1      51.456  33.012  53.598  0.00  0.00    -0.199 OA
BRANCH   7  10
ATOM     10  C   UNL d   1      51.334  33.675  52.644  0.00  0.00     0.133 A 
ATOM     11  S   UNL d   1      51.116  34.138  52.007  0.00  0.00    -0.074 SA
ATOM     12  C   UNL d   1      50.387  34.489  52.177  0.00  0.00     0.036 A 
ATOM     13  C   UNL d   1      50.162  34.231  52.933  0.00  0.00     0.008 A 
ATOM     14  C   UNL d   1      50.747  33.728  53.221  0.00  0.00     0.020 A 
ENDBRANCH   7  10
ENDBRANCH   1   7
BRANCH   2  15
ATOM     15  C   UNL d   1      54.079  32.671  54.724  0.00  0.00     0.302 C 
ATOM     16  O   UNL d   1      53.989  32.379  55.489  0.00  0.00    -0.259 OA
BRANCH  15  17
ATOM     17  O   UNL d   1      54.668  33.227  54.564  0.00  0.00    -0.271 OA
BRANCH  17  18
ATOM     18  C   UNL d   1      55.059  33.601  55.179  0.00  0.00     0.126 C 
ATOM     19  C   UNL d   1      55.679  34.123  55.020  0.00  0.00     0.029 C 
ENDBRANCH  17  18
ENDBRANCH  15  17
ENDBRANCH   2  15
TORSDOF 5
ENDMDL
MODEL 4
REMARK VINA RESULT:      -7.7      1.279      3.910
REMARK  5 active torsions:
REMARK  status: ('A' for Active; 'I' for Inactive)
REMARK    1  A    between atoms: N_2  and  S_1 
REMARK    2  A    between atoms: C_3  and  S_1 
REMARK    3  A    between atoms: C_6  and  C_4 
REMARK    4  A    between atoms: O_15  and  C_6 
REMARK    5  A    between atoms: C_18  and  O_15 
ROOT
ATOM      1  N   UNL d   1      52.813  33.011  53.239  0.00  0.00    -0.229 N 
ATOM      2  C   UNL d   1      51.927  34.033  52.802  0.00  0.00     0.082 A 
ATOM      3  C   UNL d   1      52.115  33.234  52.879  0.00  0.00     0.097 A 
ATOM      4  C   UNL d   1      53.334  33.582  53.526  0.00  0.00     0.092 A 
ATOM      5  C   UNL d   1      52.439  34.609  53.085  0.00  0.00     0.008 A 
ATOM      6  C   UNL d   1      53.144  34.383  53.448  0.00  0.00     0.020 A 
ENDROOT
BRANCH   1   7
ATOM      7  S   UNL d   1      53.000  32.213  53.316  0.00  0.00     0.277 S 
ATOM      8  O   UNL d   1      53.043  32.143  52.496  0.00  0.00    -0.199 OA
ATOM      9  O   UNL d   1      52.957  32.282  54.138  0.00  0.00    -0.199 OA
BRANCH   7  10
ATOM     10  C   UNL d   1      53.188  31.412  53.393  0.00  0.00     0.133 A 
ATOM     11  S   UNL d   1      53.712  30.887  53.734  0.00  0.00    -0.074 SA
ATOM     12  C   UNL d   1      53.490  30.120  53.518  0.00  0.00     0.036 A 
ATOM     13  C   UNL d   1      52.818  30.186  53.037  0.00  0.00     0.008 A 
ATOM     14  C   UNL d   1      52.630  30.985  52.960  0.00  0.00     0.020 A 
ENDBRANCH   7  10
ENDBRANCH   1   7
BRANCH   2  15
ATOM     15  C   UNL d   1      51.217  34.253  52.436  0.00  0.00     0.302 C 
ATOM     16  O   UNL d   1      51.157  34.275  51.616  0.00  0.00    -0.259 OA
BRANCH  15  17
ATOM     17  O   UNL d   1      50.564  34.452  52.901  0.00  0.00    -0.271 OA
BRANCH  17  18
ATOM     18  C   UNL d   1      49.838  34.598  52.549  0.00  0.00     0.126 C 
ATOM     19  C   UNL d   1      49.255  35.015  52.959  0.00  0.00     0.029 C 
ENDBRANCH  17  18
ENDBRANCH  15  17
ENDBRANCH   2  15
TORSDOF 5
ENDMDL
MODEL 5
REMARK VINA RESULT:      -7.1      1.851      3.918
REMARK  5 active torsions:
REMARK  status: ('A' for Active; 'I' for Inactive)
REMARK    1  A    between atoms: N_2  and  S_1 
REMARK    2  A    between atoms: C_3  and  S_1 
REMARK    3  A    between atoms: C_6  and  C_4 
REMARK    4  A    between atoms: O_15  and  C_6 
REMARK    5  A    between atoms: C_18  and  O_15 
ROOT
ATOM      1  N   UNL d   1      53.031  32.861  53.519  0.00  0.00    -0.229 N 
ATOM      2  C   UNL d   1      51.881  33.184  52.750  0.00  0.00     0.082 A 
ATOM      3  C   UNL d   1      52.525  33.420  53.207  0.00  0.00     0.097 A 
ATOM      4  C   UNL d   1      52.902  32.058  53.380  0.00  0.00     0.092 A 
ATOM      5  C   UNL d   1      51.743  32.388  52.606  0.00  0.00     0.008 A 
ATOM      6  C   UNL d   1      52.255  31.824  52.921  0.00  0.00     0.020 A 
ENDROOT
BRANCH   1   7
ATOM      7  S   UNL d   1      53.675  33.098  53.976  0.00  0.00     0.277 S 
ATOM      8  O   UNL d   1      53.171  33.243  54.611  0.00  0.00    -0.199 OA
ATOM      9  O   UNL d   1      54.180  32.952  53.339  0.00  0.00    -0.199 OA
BRANCH   7  10
ATOM     10  C   UNL d   1      54.321  33.335  54.433  0.00  0.00     0.133 A 
ATOM     11  S   UNL d   1      55.046  33.709  54.407  0.00  0.00    -0.074 SA
ATOM     12  C   UNL d   1      55.362  33.717  55.172  0.00  0.00     0.036 A 
ATOM     13  C   UNL d   1      54.814  33.340  55.667  0.00  0.00     0.008 A 
ATOM     14  C   UNL d   1      54.170  33.103  55.211  0.00  0.00     0.020 A 
ENDBRANCH   7  10
ENDBRANCH   1   7
BRANCH   2  15
ATOM     15  C   UNL d   1      51.370  33.756  52.436  0.00  0.00     0.302 C 
ATOM     16  O   UNL d   1      51.512  34.082  51.694  0.00  0.00    -0.259 OA
BRANCH  15  17
ATOM     17  O   UNL d   1      50.713  34.001  52.874  0.00  0.00    -0.271 OA
BRANCH  17  18
ATOM     18  C   UNL d   1      50.154  34.494  52.534  0.00  0.00     0.126 C 
ATOM     19  C   UNL d   1      49.564  34.834  53.001  0.00  0.00     0.029 C 
ENDBRANCH  17  18
ENDBRANCH  15  17
ENDBRANCH   2  15
TORSDOF 5
ENDMDL
