MODEL 1
REMARK VINA RESULT:       6.8      0.000      0.000
REMARK  5 active torsions:
REMARK  status: ('A' for Active; 'I' for Inactive)
REMARK    1  A    between atoms: S_5  and  C_3 
REMARK    2  A    between atoms: C_13  and  S_5 
REMARK    3  A    between atoms: C_23  and  N_7 
REMARK    4  A    between atoms: C_30  and  C_23 
REMARK    5  A    between atoms: O_29  and  C_30 
ROOT
ATOM      1  C   UNL d   1     -41.877-121.981 -50.965  0.00  0.00     0.155 A 
ATOM      2  C   UNL d   1     -42.285-122.602 -51.303  0.00  0.00     0.092 A 
ATOM      3  C   UNL d   1     -42.019-122.077 -52.589  0.00  0.00     0.124 A 
ATOM      4  N   UNL d   1     -41.802-121.927 -50.155  0.00  0.00    -0.210 NA
ATOM      5  N   UNL d   1     -42.545-123.120 -50.004  0.00  0.00    -0.258 N 
ATOM      6  N   UNL d   1     -41.537-121.404 -51.436  0.00  0.00    -0.271 N 
ATOM      7  C   UNL d   1     -42.135-122.496 -49.674  0.00  0.00     0.152 A 
ATOM      8  C   UNL d   1     -41.612-121.457 -52.251  0.00  0.00     0.181 A 
ATOM      9  C   UNL d   1     -42.620-123.174 -50.825  0.00  0.00     0.269 A 
ATOM     10  C   UNL d   1     -42.359-122.656 -52.114  0.00  0.00     0.022 A 
ATOM     11  C   UNL d   1     -42.060-122.442 -48.864  0.00  0.00     0.035 A 
ATOM     12  C   UNL d   1     -42.880-123.691 -49.527  0.00  0.00     0.084 A 
ATOM     13  N   UNL d   1     -41.264-120.866 -52.734  0.00  0.00    -0.128 N 
ATOM     14  O   UNL d   1     -43.041-123.814 -51.165  0.00  0.00    -0.266 OA
ATOM     15  C   UNL d   1     -42.803-123.634 -48.714  0.00  0.00     0.019 A 
ATOM     16  C   UNL d   1     -42.393-123.010 -48.383  0.00  0.00     0.005 A 
ATOM     17  C   UNL d   1     -41.640-121.801 -48.525  0.00  0.00     0.003 C 
ENDROOT
BRANCH   3  18
ATOM     18  S   UNL d   1     -42.091-122.125 -53.415  0.00  0.00     0.213 S 
ATOM     19  O   UNL d   1     -41.335-122.474 -53.475  0.00  0.00    -0.217 OA
ATOM     20  O   UNL d   1     -42.843-121.779 -53.364  0.00  0.00    -0.217 OA
BRANCH  18  21
ATOM     21  C   UNL d   1     -42.176-122.168 -54.245  0.00  0.00     0.088 A 
ATOM     22  C   UNL d   1     -42.591-121.580 -54.652  0.00  0.00     0.014 A 
ATOM     23  C   UNL d   1     -42.674-121.626 -55.478  0.00  0.00     0.030 A 
ATOM     24  C   UNL d   1     -42.337-122.264 -55.894  0.00  0.00     0.140 A 
ATOM     25  C   UNL d   1     -41.916-122.858 -55.475  0.00  0.00     0.030 A 
ATOM     26  F   UNL d   1     -42.417-122.315 -56.727  0.00  0.00    -0.204 F 
ATOM     27  C   UNL d   1     -41.839-122.806 -54.654  0.00  0.00     0.014 A 
ENDBRANCH  18  21
ENDBRANCH   3  18
BRANCH   6  28
ATOM     28  C   UNL d   1     -41.123-120.774 -51.092  0.00  0.00     0.109 C 
BRANCH  28  29
ATOM     29  C   UNL d   1     -41.261-119.996 -51.351  0.00  0.00     0.135 C 
BRANCH  29  30
ATOM     30  O   UNL d   1     -41.211-119.359 -50.808  0.00  0.00    -0.325 OA
ATOM     31  C   UNL d   1     -41.123-118.581 -51.087  0.00  0.00     0.182 C 
ENDBRANCH  29  30
ENDBRANCH  28  29
ENDBRANCH   6  28
TORSDOF 5
ENDMDL
