MODEL 1
REMARK VINA RESULT:      64.3      0.000      0.000
REMARK  5 active torsions:
REMARK  status: ('A' for Active; 'I' for Inactive)
REMARK    1  A    between atoms: C_2  and  C_1 
REMARK    2  A    between atoms: O_16  and  C_13 
REMARK    3  A    between atoms: C_21  and  O_16 
REMARK    4  A    between atoms: O_22  and  C_17 
REMARK    5  A    between atoms: C_20  and  C_21 
ROOT
ATOM      1  C   UNL d   1      59.133  49.690  51.947  0.00  0.00     0.030 A 
ATOM      2  C   UNL d   1      59.941  49.693  51.780  0.00  0.00     0.027 A 
ATOM      3  C   UNL d   1      60.487  49.690  52.399  0.00  0.00     0.103 A 
ATOM      4  O   UNL d   1      60.229  49.684  53.182  0.00  0.00    -0.273 OA
ATOM      5  C   UNL d   1      59.422  49.682  53.350  0.00  0.00     0.300 A 
ATOM      6  C   UNL d   1      58.876  49.685  52.730  0.00  0.00     0.071 A 
ATOM      7  C   UNL d   1      60.211  49.698  50.993  0.00  0.00     0.027 A 
ATOM      8  C   UNL d   1      61.014  49.700  50.843  0.00  0.00     0.100 A 
ATOM      9  C   UNL d   1      61.299  49.692  52.235  0.00  0.00     0.027 A 
ATOM     10  C   UNL d   1      61.564  49.697  51.459  0.00  0.00     0.025 A 
ATOM     11  O   UNL d   1      59.156  49.677  54.126  0.00  0.00    -0.259 OA
ATOM     12  C   UNL d   1      62.364  49.699  51.298  0.00  0.00     0.002 C 
ENDROOT
BRANCH   1  13
ATOM     13  C   UNL d   1      58.592  49.694  51.324  0.00  0.00     0.100 A 
ATOM     14  O   UNL d   1      57.770  49.692  51.405  0.00  0.00    -0.305 OA
ATOM     15  C   UNL d   1      57.439  49.696  50.652  0.00  0.00     0.122 A 
ATOM     16  C   UNL d   1      56.659  49.697  50.390  0.00  0.00     0.117 A 
ATOM     17  C   UNL d   1      58.054  49.700  50.102  0.00  0.00     0.027 A 
ATOM     18  C   UNL d   1      56.491  49.702  49.590  0.00  0.00     0.026 A 
ATOM     19  C   UNL d   1      57.102  49.706  49.036  0.00  0.00     0.002 A 
ATOM     20  C   UNL d   1      57.887  49.705  49.295  0.00  0.00     0.002 A 
ATOM     21  C   UNL d   1      58.765  49.699  50.517  0.00  0.00     0.027 A 
BRANCH  16  22
ATOM     22  O   UNL d   1      56.051  49.693  50.933  0.00  0.00    -0.326 OA
ATOM     23  C   UNL d   1      56.167  49.362  51.679  0.00  0.00     0.181 C 
ENDBRANCH  16  22
ENDBRANCH   1  13
BRANCH   8  24
ATOM     24  O   UNL d   1      61.276  49.705  50.057  0.00  0.00    -0.302 OA
BRANCH  24  25
ATOM     25  C   UNL d   1      61.871  49.187  49.818  0.00  0.00     0.165 C 
BRANCH  25  26
ATOM     26  C   UNL d   1      61.725  48.380  49.778  0.00  0.00     0.220 C 
ATOM     27  O   UNL d   1      60.978  48.109  49.555  0.00  0.00    -0.284 OA
ATOM     28  C   UNL d   1      62.308  47.846  49.956  0.00  0.00     0.048 C 
ENDBRANCH  25  26
ENDBRANCH  24  25
ENDBRANCH   8  24
TORSDOF 5
ENDMDL
