MODEL 1
REMARK VINA RESULT:      -5.9      0.000      0.000
REMARK  3 active torsions:
REMARK  status: ('A' for Active; 'I' for Inactive)
REMARK    1  A    between atoms: C_6  and  C_1 
REMARK    2  A    between atoms: C_7  and  C_5 
REMARK    3  A    between atoms: O_15  and  C_12 
ROOT
ATOM      1  C   UNL d   1      57.952  -0.180  30.317  0.00  0.00     0.169 A 
ATOM      2  C   UNL d   1      57.722   0.420  30.728  0.00  0.00     0.048 A 
ATOM      3  N   UNL d   1      57.229  -0.974  31.071  0.00  0.00    -0.148 NA
ATOM      4  N   UNL d   1      57.705  -0.871  30.491  0.00  0.00    -0.142 NA
ATOM      5  C   UNL d   1      56.999  -0.373  31.482  0.00  0.00     0.105 A 
ENDROOT
BRANCH   5   6
ATOM      6  C   UNL d   1      56.504  -0.268  32.127  0.00  0.00     0.020 A 
ATOM      7  C   UNL d   1      56.281   0.495  32.358  0.00  0.00     0.004 A 
ATOM      8  C   UNL d   1      55.783   0.602  33.008  0.00  0.00     0.024 A 
ATOM      9  C   UNL d   1      55.505  -0.054  33.430  0.00  0.00     0.094 A 
ATOM     10  C   UNL d   1      55.729  -0.817  33.199  0.00  0.00     0.024 A 
ATOM     11  C   UNL d   1      56.229  -0.921  32.546  0.00  0.00     0.004 A 
BRANCH   9  12
ATOM     12  O   UNL d   1      55.011   0.051  34.075  0.00  0.00    -0.328 OA
ATOM     13  C   UNL d   1      55.143   0.671  34.599  0.00  0.00     0.181 C 
ENDBRANCH   9  12
ENDBRANCH   5   6
BRANCH   1  14
ATOM     14  C   UNL d   1      58.429  -0.077  29.736  0.00  0.00     0.231 C 
ATOM     15  O   UNL d   1      59.161   0.081  29.874  0.00  0.00    -0.643 OA
ATOM     16  O   UNL d   1      58.183  -0.129  29.026  0.00  0.00    -0.643 OA
ENDBRANCH   1  14
TORSDOF 3
ENDMDL
MODEL 2
REMARK VINA RESULT:      -4.9      0.604      1.079
REMARK  3 active torsions:
REMARK  status: ('A' for Active; 'I' for Inactive)
REMARK    1  A    between atoms: C_6  and  C_1 
REMARK    2  A    between atoms: C_7  and  C_5 
REMARK    3  A    between atoms: O_15  and  C_12 
ROOT
ATOM      1  C   UNL d   1      58.544   0.097  30.094  0.00  0.00     0.169 A 
ATOM      2  C   UNL d   1      58.414   0.592  30.660  0.00  0.00     0.048 A 
ATOM      3  N   UNL d   1      57.546  -0.645  30.513  0.00  0.00    -0.148 NA
ATOM      4  N   UNL d   1      58.111  -0.516  30.024  0.00  0.00    -0.142 NA
ATOM      5  C   UNL d   1      57.416  -0.151  31.079  0.00  0.00     0.105 A 
ENDROOT
BRANCH   5   6
ATOM      6  C   UNL d   1      56.876  -0.104  31.694  0.00  0.00     0.020 A 
ATOM      7  C   UNL d   1      56.731  -0.766  32.169  0.00  0.00     0.004 A 
ATOM      8  C   UNL d   1      56.188  -0.720  32.789  0.00  0.00     0.024 A 
ATOM      9  C   UNL d   1      55.786  -0.011  32.936  0.00  0.00     0.094 A 
ATOM     10  C   UNL d   1      55.932   0.651  32.461  0.00  0.00     0.024 A 
ATOM     11  C   UNL d   1      56.478   0.602  31.839  0.00  0.00     0.004 A 
BRANCH   9  12
ATOM     12  O   UNL d   1      55.246   0.036  33.551  0.00  0.00    -0.328 OA
ATOM     13  C   UNL d   1      55.507   0.020  34.331  0.00  0.00     0.181 C 
ENDBRANCH   9  12
ENDBRANCH   5   6
BRANCH   1  14
ATOM     14  C   UNL d   1      59.109   0.227  29.605  0.00  0.00     0.231 C 
ATOM     15  O   UNL d   1      59.015   0.060  28.868  0.00  0.00    -0.643 OA
ATOM     16  O   UNL d   1      59.762   0.520  29.844  0.00  0.00    -0.643 OA
ENDBRANCH   1  14
TORSDOF 3
ENDMDL
MODEL 3
REMARK VINA RESULT:      -4.9      0.973      4.117
REMARK  3 active torsions:
REMARK  status: ('A' for Active; 'I' for Inactive)
REMARK    1  A    between atoms: C_6  and  C_1 
REMARK    2  A    between atoms: C_7  and  C_5 
REMARK    3  A    between atoms: O_15  and  C_12 
ROOT
ATOM      1  C   UNL d   1      55.546   0.117  33.338  0.00  0.00     0.169 A 
ATOM      2  C   UNL d   1      55.892   0.682  32.959  0.00  0.00     0.048 A 
ATOM      3  N   UNL d   1      56.158  -0.764  32.584  0.00  0.00    -0.148 NA
ATOM      4  N   UNL d   1      55.681  -0.600  33.148  0.00  0.00    -0.142 NA
ATOM      5  C   UNL d   1      56.504  -0.200  32.204  0.00  0.00     0.105 A 
ENDROOT
BRANCH   5   6
ATOM      6  C   UNL d   1      57.037  -0.161  31.583  0.00  0.00     0.020 A 
ATOM      7  C   UNL d   1      57.264  -0.853  31.188  0.00  0.00     0.004 A 
ATOM      8  C   UNL d   1      57.801  -0.815  30.562  0.00  0.00     0.024 A 
ATOM      9  C   UNL d   1      58.114  -0.086  30.328  0.00  0.00     0.094 A 
ATOM     10  C   UNL d   1      57.887   0.606  30.723  0.00  0.00     0.024 A 
ATOM     11  C   UNL d   1      57.348   0.565  31.351  0.00  0.00     0.004 A 
BRANCH   9  12
ATOM     12  O   UNL d   1      58.647  -0.047  29.706  0.00  0.00    -0.328 OA
ATOM     13  C   UNL d   1      58.446   0.349  29.014  0.00  0.00     0.181 C 
ENDBRANCH   9  12
ENDBRANCH   5   6
BRANCH   1  14
ATOM     14  C   UNL d   1      55.069   0.283  33.903  0.00  0.00     0.231 C 
ATOM     15  O   UNL d   1      54.364   0.523  33.743  0.00  0.00    -0.643 OA
ATOM     16  O   UNL d   1      55.287   0.212  34.622  0.00  0.00    -0.643 OA
ENDBRANCH   1  14
TORSDOF 3
ENDMDL
MODEL 4
REMARK VINA RESULT:      -4.1      1.123      1.607
REMARK  3 active torsions:
REMARK  status: ('A' for Active; 'I' for Inactive)
REMARK    1  A    between atoms: C_6  and  C_1 
REMARK    2  A    between atoms: C_7  and  C_5 
REMARK    3  A    between atoms: O_15  and  C_12 
ROOT
ATOM      1  C   UNL d   1      57.234  -0.511  31.323  0.00  0.00     0.169 A 
ATOM      2  C   UNL d   1      56.769  -0.925  31.763  0.00  0.00     0.048 A 
ATOM      3  N   UNL d   1      57.063   0.522  32.112  0.00  0.00    -0.148 NA
ATOM      4  N   UNL d   1      57.378   0.208  31.500  0.00  0.00    -0.142 NA
ATOM      5  C   UNL d   1      56.598   0.108  32.553  0.00  0.00     0.105 A 
ENDROOT
BRANCH   5   6
ATOM      6  C   UNL d   1      56.169   0.251  33.237  0.00  0.00     0.020 A 
ATOM      7  C   UNL d   1      55.349   0.139  33.243  0.00  0.00     0.004 A 
ATOM      8  C   UNL d   1      54.916   0.282  33.930  0.00  0.00     0.024 A 
ATOM      9  C   UNL d   1      55.301   0.539  34.617  0.00  0.00     0.094 A 
ATOM     10  C   UNL d   1      56.122   0.652  34.611  0.00  0.00     0.024 A 
ATOM     11  C   UNL d   1      56.553   0.507  33.918  0.00  0.00     0.004 A 
BRANCH   9  12
ATOM     12  O   UNL d   1      54.873   0.682  35.300  0.00  0.00    -0.328 OA
ATOM     13  C   UNL d   1      54.050   0.682  35.280  0.00  0.00     0.181 C 
ENDBRANCH   9  12
ENDBRANCH   5   6
BRANCH   1  14
ATOM     14  C   UNL d   1      57.549  -0.827  30.709  0.00  0.00     0.231 C 
ATOM     15  O   UNL d   1      57.491  -1.579  30.601  0.00  0.00    -0.643 OA
ATOM     16  O   UNL d   1      57.918  -0.403  30.207  0.00  0.00    -0.643 OA
ENDBRANCH   1  14
TORSDOF 3
ENDMDL
MODEL 5
REMARK VINA RESULT:      -3.3      0.943      4.169
REMARK  3 active torsions:
REMARK  status: ('A' for Active; 'I' for Inactive)
REMARK    1  A    between atoms: C_6  and  C_1 
REMARK    2  A    between atoms: C_7  and  C_5 
REMARK    3  A    between atoms: O_15  and  C_12 
ROOT
ATOM      1  C   UNL d   1      56.353  -0.196  32.369  0.00  0.00     0.169 A 
ATOM      2  C   UNL d   1      56.779   0.394  32.139  0.00  0.00     0.048 A 
ATOM      3  N   UNL d   1      56.927  -0.960  31.470  0.00  0.00    -0.148 NA
ATOM      4  N   UNL d   1      56.430  -0.867  32.034  0.00  0.00    -0.142 NA
ATOM      5  C   UNL d   1      57.353  -0.369  31.240  0.00  0.00     0.105 A 
ENDROOT
BRANCH   5   6
ATOM      6  C   UNL d   1      57.929  -0.259  30.668  0.00  0.00     0.020 A 
ATOM      7  C   UNL d   1      57.910   0.412  30.184  0.00  0.00     0.004 A 
ATOM      8  C   UNL d   1      58.490   0.524  29.608  0.00  0.00     0.024 A 
ATOM      9  C   UNL d   1      59.093  -0.035  29.513  0.00  0.00     0.094 A 
ATOM     10  C   UNL d   1      59.113  -0.705  29.997  0.00  0.00     0.024 A 
ATOM     11  C   UNL d   1      58.529  -0.815  30.575  0.00  0.00     0.004 A 
BRANCH   9  12
ATOM     12  O   UNL d   1      59.670   0.076  28.941  0.00  0.00    -0.328 OA
ATOM     13  C   UNL d   1      60.109  -0.564  28.669  0.00  0.00     0.181 C 
ENDBRANCH   9  12
ENDBRANCH   5   6
BRANCH   1  14
ATOM     14  C   UNL d   1      55.856  -0.103  32.934  0.00  0.00     0.231 C 
ATOM     15  O   UNL d   1      55.797   0.576  33.276  0.00  0.00    -0.643 OA
ATOM     16  O   UNL d   1      55.419  -0.675  33.158  0.00  0.00    -0.643 OA
ENDBRANCH   1  14
TORSDOF 3
ENDMDL
