MODEL 1
REMARK VINA RESULT:      37.6      0.000      0.000
REMARK  5 active torsions:
REMARK  status: ('A' for Active; 'I' for Inactive)
REMARK    1  A    between atoms: N_2  and  C_1 
REMARK    2  A    between atoms: C_5  and  C_1 
REMARK    3  A    between atoms: O_4  and  N_2 
REMARK    4  A    between atoms: C_3  and  O_4 
REMARK    5  A    between atoms: C_6  and  C_3 
ROOT
ATOM      1  O   UNL d   1     -51.312  25.474  33.874  0.00  0.00    -0.168 OA
ENDROOT
BRANCH   1   2
ATOM      2  C   UNL d   1     -51.431  24.605  33.625  0.00  0.00     0.319 C 
ATOM      3  O   UNL d   1     -50.738  24.116  33.330  0.00  0.00    -0.257 OA
BRANCH   2   4
ATOM      4  C   UNL d   1     -52.184  24.262  33.670  0.00  0.00     0.065 A 
ATOM      5  C   UNL d   1     -52.312  23.524  33.309  0.00  0.00     0.005 A 
ATOM      6  C   UNL d   1     -53.071  23.188  33.360  0.00  0.00     0.000 A 
ATOM      7  C   UNL d   1     -53.683  23.571  33.755  0.00  0.00     0.000 A 
ATOM      8  C   UNL d   1     -53.525  24.302  34.103  0.00  0.00     0.000 A 
ATOM      9  C   UNL d   1     -54.431  23.224  33.796  0.00  0.00     0.000 C 
ATOM     10  C   UNL d   1     -52.795  24.644  34.065  0.00  0.00     0.005 A 
ENDBRANCH   2   4
ENDBRANCH   1   2
BRANCH   1  11
ATOM     11  N   UNL d   1     -50.839  25.977  33.441  0.00  0.00    -0.100 NA
BRANCH  11  12
ATOM     12  C   UNL d   1     -50.904  26.792  33.507  0.00  0.00     0.228 C 
ATOM     13  N   UNL d   1     -51.618  27.154  33.310  0.00  0.00    -0.123 N 
BRANCH  12  14
ATOM     14  C   UNL d   1     -50.280  27.253  33.762  0.00  0.00     0.121 A 
ATOM     15  N   UNL d   1     -50.192  28.015  33.487  0.00  0.00    -0.241 NA
ATOM     16  C   UNL d   1     -49.552  28.481  33.751  0.00  0.00     0.099 A 
ATOM     17  C   UNL d   1     -49.011  28.165  34.291  0.00  0.00     0.021 A 
ATOM     18  C   UNL d   1     -49.102  27.388  34.570  0.00  0.00     0.003 A 
ATOM     19  C   UNL d   1     -49.739  26.937  34.302  0.00  0.00     0.022 A 
ENDBRANCH  12  14
ENDBRANCH  11  12
ENDBRANCH   1  11
TORSDOF 5
ENDMDL
