MODEL 1
REMARK VINA RESULT:       8.9      0.000      0.000
REMARK  8 active torsions:
REMARK  status: ('A' for Active; 'I' for Inactive)
REMARK    1  A    between atoms: C_7  and  C_1 
REMARK    2  A    between atoms: N_5  and  C_2 
REMARK       I    between atoms: C_8  and  N_5 
REMARK    3  A    between atoms: N_9  and  C_7 
REMARK    4  A    between atoms: C_12  and  C_7 
REMARK    5  A    between atoms: C_10  and  C_8 
REMARK    6  A    between atoms: C_11  and  C_14 
REMARK    7  A    between atoms: O_25  and  C_11 
REMARK    8  A    between atoms: C_31  and  O_25 
ROOT
ATOM      1  C   UNL d   1      32.032  17.694 -23.206  0.00  0.00     0.068 C 
ENDROOT
BRANCH   1   2
ATOM      2  C   UNL d   1      32.417  18.378 -23.478  0.00  0.00     0.041 A 
ATOM      3  C   UNL d   1      32.685  19.044 -23.080  0.00  0.00     0.115 A 
ATOM      4  S   UNL d   1      33.025  19.547 -23.639  0.00  0.00    -0.068 SA
ATOM      5  C   UNL d   1      32.962  19.185 -24.375  0.00  0.00     0.031 A 
ATOM      6  C   UNL d   1      32.579  18.447 -24.281  0.00  0.00     0.009 A 
ATOM      7  C   UNL d   1      33.239  19.510 -25.096  0.00  0.00     0.007 C 
ATOM      8  C   UNL d   1      32.404  17.904 -24.876  0.00  0.00     0.001 C 
BRANCH   3   9
ATOM      9  N   UNL d   1      32.631  19.201 -22.251  0.00  0.00    -0.200 NA
ATOM     10  C   UNL d   1      32.740  19.985 -21.965  0.00  0.00     0.302 C 
ATOM     11  O   UNL d   1      32.896  20.579 -22.491  0.00  0.00    -0.263 OA
BRANCH  10  12
ATOM     12  C   UNL d   1      32.684  20.126 -21.145  0.00  0.00     0.158 A 
ATOM     13  O   UNL d   1      33.191  19.913 -20.527  0.00  0.00    -0.300 OA
ATOM     14  C   UNL d   1      32.851  20.202 -19.826  0.00  0.00     0.123 A 
ATOM     15  C   UNL d   1      32.127  20.593 -20.045  0.00  0.00     0.029 A 
ATOM     16  C   UNL d   1      32.049  20.530 -20.861  0.00  0.00     0.032 A 
ENDBRANCH  10  12
ENDBRANCH   3   9
ENDBRANCH   1   2
BRANCH   1  17
ATOM     17  N   UNL d   1      31.212  17.560 -23.357  0.00  0.00    -0.304 N 
ATOM     18  C   UNL d   1      30.682  17.362 -22.753  0.00  0.00     0.080 A 
ATOM     19  C   UNL d   1      29.892  17.238 -22.934  0.00  0.00     0.024 A 
ATOM     20  C   UNL d   1      29.628  17.309 -23.698  0.00  0.00     0.067 A 
ATOM     21  C   UNL d   1      30.130  17.504 -24.318  0.00  0.00     0.024 A 
ATOM     22  C   UNL d   1      30.933  17.632 -24.150  0.00  0.00     0.080 A 
BRANCH  20  23
ATOM     23  C   UNL d   1      28.840  17.178 -23.832  0.00  0.00     0.300 C 
ATOM     24  O   UNL d   1      28.332  17.782 -24.061  0.00  0.00    -0.259 OA
BRANCH  23  25
ATOM     25  O   UNL d   1      28.500  16.421 -23.745  0.00  0.00    -0.271 OA
BRANCH  25  26
ATOM     26  C   UNL d   1      27.708  16.431 -24.214  0.00  0.00     0.126 C 
ATOM     27  C   UNL d   1      27.172  15.992 -23.878  0.00  0.00     0.029 C 
ENDBRANCH  25  26
ENDBRANCH  23  25
ENDBRANCH  20  23
ENDBRANCH   1  17
BRANCH   1  28
ATOM     28  C   UNL d   1      32.442  17.104 -22.767  0.00  0.00     0.035 A 
ATOM     29  C   UNL d   1      32.814  17.308 -22.061  0.00  0.00     0.100 A 
ATOM     30  N   UNL d   1      33.214  16.736 -21.633  0.00  0.00    -0.242 NA
ATOM     31  C   UNL d   1      33.241  15.914 -21.929  0.00  0.00     0.099 A 
ATOM     32  C   UNL d   1      32.847  15.753 -22.654  0.00  0.00     0.021 A 
ATOM     33  C   UNL d   1      32.457  16.329 -23.065  0.00  0.00     0.005 A 
ENDBRANCH   1  28
TORSDOF 8
ENDMDL
MODEL 2
REMARK VINA RESULT:       9.7      1.013      2.220
REMARK  8 active torsions:
REMARK  status: ('A' for Active; 'I' for Inactive)
REMARK    1  A    between atoms: C_7  and  C_1 
REMARK    2  A    between atoms: N_5  and  C_2 
REMARK       I    between atoms: C_8  and  N_5 
REMARK    3  A    between atoms: N_9  and  C_7 
REMARK    4  A    between atoms: C_12  and  C_7 
REMARK    5  A    between atoms: C_10  and  C_8 
REMARK    6  A    between atoms: C_11  and  C_14 
REMARK    7  A    between atoms: O_25  and  C_11 
REMARK    8  A    between atoms: C_31  and  O_25 
ROOT
ATOM      1  C   UNL d   1      31.817  18.540 -23.808  0.00  0.00     0.068 C 
ENDROOT
BRANCH   1   2
ATOM      2  C   UNL d   1      32.255  18.187 -23.197  0.00  0.00     0.041 A 
ATOM      3  C   UNL d   1      32.537  18.489 -22.487  0.00  0.00     0.115 A 
ATOM      4  S   UNL d   1      32.937  17.880 -22.100  0.00  0.00    -0.068 SA
ATOM      5  C   UNL d   1      32.897  17.210 -22.575  0.00  0.00     0.031 A 
ATOM      6  C   UNL d   1      32.469  17.397 -23.268  0.00  0.00     0.009 A 
ATOM      7  C   UNL d   1      33.235  16.466 -22.387  0.00  0.00     0.007 C 
ATOM      8  C   UNL d   1      32.298  16.887 -23.894  0.00  0.00     0.001 C 
BRANCH   3   9
ATOM      9  N   UNL d   1      32.443  19.276 -22.193  0.00  0.00    -0.200 NA
ATOM     10  C   UNL d   1      32.775  19.488 -21.449  0.00  0.00     0.302 C 
ATOM     11  O   UNL d   1      33.181  18.932 -21.026  0.00  0.00    -0.263 OA
BRANCH  10  12
ATOM     12  C   UNL d   1      32.674  20.268 -21.171  0.00  0.00     0.158 A 
ATOM     13  O   UNL d   1      33.208  20.779 -20.801  0.00  0.00    -0.300 OA
ATOM     14  C   UNL d   1      32.799  21.486 -20.649  0.00  0.00     0.123 A 
ATOM     15  C   UNL d   1      32.005  21.380 -20.939  0.00  0.00     0.029 A 
ATOM     16  C   UNL d   1      31.957  20.623 -21.255  0.00  0.00     0.032 A 
ENDBRANCH  10  12
ENDBRANCH   3   9
ENDBRANCH   1   2
BRANCH   1  17
ATOM     17  N   UNL d   1      31.053  18.254 -24.025  0.00  0.00    -0.304 N 
ATOM     18  C   UNL d   1      30.596  17.793 -23.511  0.00  0.00     0.080 A 
ATOM     19  C   UNL d   1      29.858  17.530 -23.752  0.00  0.00     0.024 A 
ATOM     20  C   UNL d   1      29.574  17.719 -24.489  0.00  0.00     0.067 A 
ATOM     21  C   UNL d   1      30.004  18.174 -25.020  0.00  0.00     0.024 A 
ATOM     22  C   UNL d   1      30.754  18.447 -24.790  0.00  0.00     0.080 A 
BRANCH  20  23
ATOM     23  C   UNL d   1      28.841  17.439 -24.686  0.00  0.00     0.300 C 
ATOM     24  O   UNL d   1      28.248  17.933 -24.969  0.00  0.00    -0.259 OA
BRANCH  23  25
ATOM     25  O   UNL d   1      28.646  16.630 -24.614  0.00  0.00    -0.271 OA
BRANCH  25  26
ATOM     26  C   UNL d   1      27.728  16.583 -24.568  0.00  0.00     0.126 C 
ATOM     27  C   UNL d   1      27.472  15.868 -24.697  0.00  0.00     0.029 C 
ENDBRANCH  25  26
ENDBRANCH  23  25
ENDBRANCH  20  23
ENDBRANCH   1  17
BRANCH   1  28
ATOM     28  C   UNL d   1      32.115  19.199 -24.238  0.00  0.00     0.035 A 
ATOM     29  C   UNL d   1      31.638  19.861 -24.350  0.00  0.00     0.100 A 
ATOM     30  N   UNL d   1      31.925  20.503 -24.769  0.00  0.00    -0.242 NA
ATOM     31  C   UNL d   1      32.737  20.479 -25.093  0.00  0.00     0.099 A 
ATOM     32  C   UNL d   1      33.187  19.783 -24.954  0.00  0.00     0.021 A 
ATOM     33  C   UNL d   1      32.888  19.158 -24.539  0.00  0.00     0.005 A 
ENDBRANCH   1  28
TORSDOF 8
ENDMDL
MODEL 3
REMARK VINA RESULT:      10.6      1.862      4.672
REMARK  8 active torsions:
REMARK  status: ('A' for Active; 'I' for Inactive)
REMARK    1  A    between atoms: C_7  and  C_1 
REMARK    2  A    between atoms: N_5  and  C_2 
REMARK       I    between atoms: C_8  and  N_5 
REMARK    3  A    between atoms: N_9  and  C_7 
REMARK    4  A    between atoms: C_12  and  C_7 
REMARK    5  A    between atoms: C_10  and  C_8 
REMARK    6  A    between atoms: C_11  and  C_14 
REMARK    7  A    between atoms: O_25  and  C_11 
REMARK    8  A    between atoms: C_31  and  O_25 
ROOT
ATOM      1  C   UNL d   1      31.004  17.777 -24.142  0.00  0.00     0.068 C 
ENDROOT
BRANCH   1   2
ATOM      2  C   UNL d   1      31.244  16.990 -24.254  0.00  0.00     0.041 A 
ATOM      3  C   UNL d   1      30.923  16.282 -23.991  0.00  0.00     0.115 A 
ATOM      4  S   UNL d   1      31.400  15.672 -24.276  0.00  0.00    -0.068 SA
ATOM      5  C   UNL d   1      32.010  16.011 -24.711  0.00  0.00     0.031 A 
ATOM      6  C   UNL d   1      31.918  16.842 -24.701  0.00  0.00     0.009 A 
ATOM      7  C   UNL d   1      32.619  15.584 -25.097  0.00  0.00     0.007 C 
ATOM      8  C   UNL d   1      32.407  17.396 -25.068  0.00  0.00     0.001 C 
BRANCH   3   9
ATOM      9  N   UNL d   1      30.231  16.180 -23.516  0.00  0.00    -0.200 NA
ATOM     10  C   UNL d   1      30.280  15.757 -22.790  0.00  0.00     0.302 C 
ATOM     11  O   UNL d   1      30.992  15.453 -22.558  0.00  0.00    -0.263 OA
BRANCH  10  12
ATOM     12  C   UNL d   1      29.590  15.664 -22.331  0.00  0.00     0.158 A 
ATOM     13  O   UNL d   1      29.484  15.683 -21.511  0.00  0.00    -0.300 OA
ATOM     14  C   UNL d   1      28.674  15.557 -21.370  0.00  0.00     0.123 A 
ATOM     15  C   UNL d   1      28.302  15.463 -22.130  0.00  0.00     0.029 A 
ATOM     16  C   UNL d   1      28.888  15.534 -22.702  0.00  0.00     0.032 A 
ENDBRANCH  10  12
ENDBRANCH   3   9
ENDBRANCH   1   2
BRANCH   1  17
ATOM     17  N   UNL d   1      31.475  18.323 -23.701  0.00  0.00    -0.304 N 
ATOM     18  C   UNL d   1      32.254  18.503 -23.916  0.00  0.00     0.080 A 
ATOM     19  C   UNL d   1      32.684  19.036 -23.467  0.00  0.00     0.024 A 
ATOM     20  C   UNL d   1      32.352  19.388 -22.815  0.00  0.00     0.067 A 
ATOM     21  C   UNL d   1      31.582  19.229 -22.577  0.00  0.00     0.024 A 
ATOM     22  C   UNL d   1      31.134  18.691 -23.022  0.00  0.00     0.080 A 
BRANCH  20  23
ATOM     23  C   UNL d   1      32.812  19.909 -22.400  0.00  0.00     0.300 C 
ATOM     24  O   UNL d   1      33.211  19.688 -21.716  0.00  0.00    -0.259 OA
BRANCH  23  25
ATOM     25  O   UNL d   1      32.907  20.701 -22.645  0.00  0.00    -0.271 OA
BRANCH  25  26
ATOM     26  C   UNL d   1      32.829  21.222 -21.889  0.00  0.00     0.126 C 
ATOM     27  C   UNL d   1      32.712  21.963 -22.064  0.00  0.00     0.029 C 
ENDBRANCH  25  26
ENDBRANCH  23  25
ENDBRANCH  20  23
ENDBRANCH   1  17
BRANCH   1  28
ATOM     28  C   UNL d   1      30.282  18.067 -24.461  0.00  0.00     0.035 A 
ATOM     29  C   UNL d   1      29.648  17.551 -24.565  0.00  0.00     0.100 A 
ATOM     30  N   UNL d   1      28.944  17.830 -24.876  0.00  0.00    -0.242 NA
ATOM     31  C   UNL d   1      28.872  18.673 -25.094  0.00  0.00     0.099 A 
ATOM     32  C   UNL d   1      29.545  19.162 -24.970  0.00  0.00     0.021 A 
ATOM     33  C   UNL d   1      30.232  18.871 -24.663  0.00  0.00     0.005 A 
ENDBRANCH   1  28
TORSDOF 8
ENDMDL
MODEL 4
REMARK VINA RESULT:      11.3      1.543      2.748
REMARK  8 active torsions:
REMARK  status: ('A' for Active; 'I' for Inactive)
REMARK    1  A    between atoms: C_7  and  C_1 
REMARK    2  A    between atoms: N_5  and  C_2 
REMARK       I    between atoms: C_8  and  N_5 
REMARK    3  A    between atoms: N_9  and  C_7 
REMARK    4  A    between atoms: C_12  and  C_7 
REMARK    5  A    between atoms: C_10  and  C_8 
REMARK    6  A    between atoms: C_11  and  C_14 
REMARK    7  A    between atoms: O_25  and  C_11 
REMARK    8  A    between atoms: C_31  and  O_25 
ROOT
ATOM      1  C   UNL d   1      30.685  17.341 -24.149  0.00  0.00     0.068 C 
ENDROOT
BRANCH   1   2
ATOM      2  C   UNL d   1      31.452  17.029 -24.217  0.00  0.00     0.041 A 
ATOM      3  C   UNL d   1      32.172  17.288 -23.920  0.00  0.00     0.115 A 
ATOM      4  S   UNL d   1      32.750  16.753 -24.166  0.00  0.00    -0.068 SA
ATOM      5  C   UNL d   1      32.379  16.171 -24.613  0.00  0.00     0.031 A 
ATOM      6  C   UNL d   1      31.561  16.338 -24.649  0.00  0.00     0.009 A 
ATOM      7  C   UNL d   1      32.768  15.519 -24.970  0.00  0.00     0.007 C 
ATOM      8  C   UNL d   1      30.985  15.896 -25.040  0.00  0.00     0.001 C 
BRANCH   3   9
ATOM      9  N   UNL d   1      32.312  17.975 -23.446  0.00  0.00    -0.200 NA
ATOM     10  C   UNL d   1      32.840  17.932 -22.792  0.00  0.00     0.302 C 
ATOM     11  O   UNL d   1      33.207  17.231 -22.627  0.00  0.00    -0.263 OA
BRANCH  10  12
ATOM     12  C   UNL d   1      32.968  18.616 -22.333  0.00  0.00     0.158 A 
ATOM     13  O   UNL d   1      32.959  19.415 -22.546  0.00  0.00    -0.300 OA
ATOM     14  C   UNL d   1      33.125  19.850 -21.858  0.00  0.00     0.123 A 
ATOM     15  C   UNL d   1      33.234  19.286 -21.229  0.00  0.00     0.029 A 
ATOM     16  C   UNL d   1      33.132  18.537 -21.550  0.00  0.00     0.032 A 
ENDBRANCH  10  12
ENDBRANCH   3   9
ENDBRANCH   1   2
BRANCH   1  17
ATOM     17  N   UNL d   1      30.071  16.918 -23.754  0.00  0.00    -0.304 N 
ATOM     18  C   UNL d   1      29.911  17.026 -22.949  0.00  0.00     0.080 A 
ATOM     19  C   UNL d   1      29.308  16.600 -22.596  0.00  0.00     0.024 A 
ATOM     20  C   UNL d   1      28.867  16.073 -23.029  0.00  0.00     0.067 A 
ATOM     21  C   UNL d   1      29.001  15.944 -23.828  0.00  0.00     0.024 A 
ATOM     22  C   UNL d   1      29.610  16.370 -24.200  0.00  0.00     0.080 A 
BRANCH  20  23
ATOM     23  C   UNL d   1      28.280  15.673 -22.640  0.00  0.00     0.300 C 
ATOM     24  O   UNL d   1      28.351  15.456 -21.850  0.00  0.00    -0.259 OA
BRANCH  23  25
ATOM     25  O   UNL d   1      27.570  15.457 -23.021  0.00  0.00    -0.271 OA
BRANCH  25  26
ATOM     26  C   UNL d   1      26.958  16.120 -22.835  0.00  0.00     0.126 C 
ATOM     27  C   UNL d   1      26.235  15.858 -22.865  0.00  0.00     0.029 C 
ENDBRANCH  25  26
ENDBRANCH  23  25
ENDBRANCH  20  23
ENDBRANCH   1  17
BRANCH   1  28
ATOM     28  C   UNL d   1      30.487  18.093 -24.471  0.00  0.00     0.035 A 
ATOM     29  C   UNL d   1      31.081  18.573 -24.778  0.00  0.00     0.100 A 
ATOM     30  N   UNL d   1      30.891  19.305 -25.092  0.00  0.00    -0.242 NA
ATOM     31  C   UNL d   1      30.058  19.569 -25.097  0.00  0.00     0.099 A 
ATOM     32  C   UNL d   1      29.486  19.046 -24.772  0.00  0.00     0.021 A 
ATOM     33  C   UNL d   1      29.690  18.327 -24.467  0.00  0.00     0.005 A 
ENDBRANCH   1  28
TORSDOF 8
ENDMDL
