MODEL 1
REMARK VINA RESULT:      12.3      0.000      0.000
REMARK  4 active torsions:
REMARK  status: ('A' for Active; 'I' for Inactive)
REMARK    1  A    between atoms: S_6  and  C_1 
REMARK    2  A    between atoms: N_9  and  N_2 
REMARK    3  A    between atoms: C_12  and  S_6 
REMARK       I    between atoms: C_10  and  N_9 
REMARK    4  A    between atoms: C_11  and  C_10 
ROOT
ATOM      1  C   UNL d   1     -41.689-122.501 -51.605  0.00  0.00     0.146 A 
ATOM      2  N   UNL d   1     -41.370-122.458 -52.908  0.00  0.00    -0.188 N 
ATOM      3  C   UNL d   1     -41.564-122.959 -52.280  0.00  0.00     0.199 A 
ATOM      4  C   UNL d   1     -41.374-121.681 -52.623  0.00  0.00     0.184 A 
ATOM      5  C   UNL d   1     -41.570-121.705 -51.819  0.00  0.00     0.131 A 
ATOM      6  N   UNL d   1     -41.225-120.956 -52.984  0.00  0.00    -0.224 NA
ATOM      7  N   UNL d   1     -41.616-121.010 -51.386  0.00  0.00    -0.240 NA
ATOM      8  C   UNL d   1     -41.272-120.258 -52.546  0.00  0.00     0.101 A 
ATOM      9  C   UNL d   1     -41.470-120.294 -51.743  0.00  0.00     0.099 A 
ATOM     10  N   UNL d   1     -41.623-123.778 -52.324  0.00  0.00    -0.126 N 
ATOM     11  C   UNL d   1     -41.124-119.533 -52.908  0.00  0.00     0.021 A 
ATOM     12  C   UNL d   1     -41.517-119.595 -51.301  0.00  0.00     0.021 A 
ATOM     13  C   UNL d   1     -41.368-118.870 -51.666  0.00  0.00     0.002 A 
ATOM     14  C   UNL d   1     -41.171-118.834 -52.470  0.00  0.00     0.002 A 
ENDROOT
BRANCH   1  15
ATOM     15  S   UNL d   1     -41.891-122.771 -50.865  0.00  0.00     0.214 S 
ATOM     16  O   UNL d   1     -42.653-123.087 -50.951  0.00  0.00    -0.217 OA
ATOM     17  O   UNL d   1     -41.136-122.458 -50.777  0.00  0.00    -0.217 OA
BRANCH  15  18
ATOM     18  C   UNL d   1     -42.086-123.042 -50.108  0.00  0.00     0.088 A 
ATOM     19  C   UNL d   1     -42.827-123.304 -49.859  0.00  0.00     0.011 A 
ATOM     20  C   UNL d   1     -42.935-123.558 -49.084  0.00  0.00     0.001 A 
ATOM     21  C   UNL d   1     -42.303-123.550 -48.557  0.00  0.00     0.000 A 
ATOM     22  C   UNL d   1     -41.563-123.289 -48.804  0.00  0.00     0.001 A 
ATOM     23  C   UNL d   1     -42.410-123.804 -47.782  0.00  0.00     0.000 C 
ATOM     24  C   UNL d   1     -41.449-123.031 -49.587  0.00  0.00     0.011 A 
ENDBRANCH  15  18
ENDBRANCH   1  15
BRANCH   2  25
ATOM     25  N   UNL d   1     -41.202-122.680 -53.681  0.00  0.00    -0.120 NA
ATOM     26  C   UNL d   1     -41.786-122.627 -54.264  0.00  0.00     0.295 C 
ATOM     27  O   UNL d   1     -41.612-122.850 -55.033  0.00  0.00    -0.264 OA
BRANCH  26  28
ATOM     28  C   UNL d   1     -42.539-122.352 -54.072  0.00  0.00     0.059 A 
ATOM     29  C   UNL d   1     -43.087-121.733 -54.035  0.00  0.00     0.005 A 
ATOM     30  C   UNL d   1     -43.297-122.487 -53.776  0.00  0.00     0.005 A 
ENDBRANCH  26  28
ENDBRANCH   2  25
TORSDOF 4
ENDMDL
MODEL 2
REMARK VINA RESULT:      14.5      1.195      3.752
REMARK  4 active torsions:
REMARK  status: ('A' for Active; 'I' for Inactive)
REMARK    1  A    between atoms: S_6  and  C_1 
REMARK    2  A    between atoms: N_9  and  N_2 
REMARK    3  A    between atoms: C_12  and  S_6 
REMARK       I    between atoms: C_10  and  N_9 
REMARK    4  A    between atoms: C_11  and  C_10 
ROOT
ATOM      1  C   UNL d   1     -41.655-122.398 -52.447  0.00  0.00     0.146 A 
ATOM      2  N   UNL d   1     -41.353-122.690 -51.173  0.00  0.00    -0.188 N 
ATOM      3  C   UNL d   1     -41.536-123.014 -51.910  0.00  0.00     0.199 A 
ATOM      4  C   UNL d   1     -41.358-121.865 -51.249  0.00  0.00     0.184 A 
ATOM      5  C   UNL d   1     -41.544-121.684 -52.035  0.00  0.00     0.131 A 
ATOM      6  N   UNL d   1     -41.219-121.257 -50.712  0.00  0.00    -0.224 NA
ATOM      7  N   UNL d   1     -41.590-120.901 -52.276  0.00  0.00    -0.240 NA
ATOM      8  C   UNL d   1     -41.265-120.470 -50.957  0.00  0.00     0.101 A 
ATOM      9  C   UNL d   1     -41.452-120.300 -51.746  0.00  0.00     0.099 A 
ATOM     10  N   UNL d   1     -41.589-123.817 -52.079  0.00  0.00    -0.126 N 
ATOM     11  C   UNL d   1     -41.126-119.862 -50.420  0.00  0.00     0.021 A 
ATOM     12  C   UNL d   1     -41.499-119.511 -51.993  0.00  0.00     0.021 A 
ATOM     13  C   UNL d   1     -41.359-118.904 -51.453  0.00  0.00     0.002 A 
ATOM     14  C   UNL d   1     -41.172-119.074 -50.664  0.00  0.00     0.002 A 
ENDROOT
BRANCH   1  15
ATOM     15  S   UNL d   1     -41.846-122.470 -53.234  0.00  0.00     0.214 S 
ATOM     16  O   UNL d   1     -41.138-122.688 -53.609  0.00  0.00    -0.217 OA
ATOM     17  O   UNL d   1     -42.548-122.255 -52.866  0.00  0.00    -0.217 OA
BRANCH  15  18
ATOM     18  C   UNL d   1     -42.051-122.540 -54.032  0.00  0.00     0.088 A 
ATOM     19  C   UNL d   1     -42.085-121.927 -54.584  0.00  0.00     0.011 A 
ATOM     20  C   UNL d   1     -42.300-122.086 -55.362  0.00  0.00     0.001 A 
ATOM     21  C   UNL d   1     -42.480-122.855 -55.591  0.00  0.00     0.000 A 
ATOM     22  C   UNL d   1     -42.446-123.467 -55.043  0.00  0.00     0.001 A 
ATOM     23  C   UNL d   1     -42.694-123.014 -56.369  0.00  0.00     0.000 C 
ATOM     24  C   UNL d   1     -42.229-123.313 -54.254  0.00  0.00     0.011 A 
ENDBRANCH  15  18
ENDBRANCH   1  15
BRANCH   2  25
ATOM     25  N   UNL d   1     -41.193-123.102 -50.480  0.00  0.00    -0.120 NA
ATOM     26  C   UNL d   1     -41.808-123.303 -49.965  0.00  0.00     0.295 C 
ATOM     27  O   UNL d   1     -41.642-123.714 -49.276  0.00  0.00    -0.264 OA
BRANCH  26  28
ATOM     28  C   UNL d   1     -42.584-123.090 -50.145  0.00  0.00     0.059 A 
ATOM     29  C   UNL d   1     -43.270-122.664 -49.963  0.00  0.00     0.005 A 
ATOM     30  C   UNL d   1     -43.246-123.142 -50.634  0.00  0.00     0.005 A 
ENDBRANCH  26  28
ENDBRANCH   2  25
TORSDOF 4
ENDMDL
