MODEL 1
REMARK VINA RESULT:      -2.0      0.000      0.000
REMARK  2 active torsions:
REMARK  status: ('A' for Active; 'I' for Inactive)
REMARK    1  A    between atoms: C_4  and  S_1 
REMARK    2  A    between atoms: C_6  and  C_4 
ROOT
ATOM      1  C   UNL d   1      24.257  12.569  -1.183  0.00  0.00     0.013 A 
ATOM      2  C   UNL d   1      24.541  13.234  -1.584  0.00  0.00     0.001 A 
ATOM      3  C   UNL d   1      24.199  11.848  -1.563  0.00  0.00     0.001 A 
ATOM      4  C   UNL d   1      24.424  11.779  -2.349  0.00  0.00     0.000 A 
ATOM      5  C   UNL d   1      24.768  13.168  -2.372  0.00  0.00     0.000 A 
ATOM      6  C   UNL d   1      24.711  12.441  -2.760  0.00  0.00     0.000 A 
ENDROOT
BRANCH   1   7
ATOM      7  C   UNL d   1      24.030  12.639  -0.392  0.00  0.00     0.119 C 
BRANCH   7   8
ATOM      8  S   UNL d   1      23.290  12.951  -0.199  0.00  0.00     0.303 S 
ATOM      9  O   UNL d   1      23.650  13.762  -0.182  0.00  0.00    -0.197 OA
ATOM     10  O   UNL d   1      22.863  12.149  -0.202  0.00  0.00    -0.197 OA
ATOM     11  N   UNL d   1      22.592  13.265  -0.015  0.00  0.00    -0.043 N 
ENDBRANCH   7   8
ENDBRANCH   1   7
TORSDOF 2
ENDMDL
MODEL 2
REMARK VINA RESULT:      -1.3      1.881      2.637
REMARK  2 active torsions:
REMARK  status: ('A' for Active; 'I' for Inactive)
REMARK    1  A    between atoms: C_4  and  S_1 
REMARK    2  A    between atoms: C_6  and  C_4 
ROOT
ATOM      1  C   UNL d   1      24.023  12.892  -0.785  0.00  0.00     0.013 A 
ATOM      2  C   UNL d   1      23.464  12.285  -0.736  0.00  0.00     0.001 A 
ATOM      3  C   UNL d   1      23.871  13.624  -0.454  0.00  0.00     0.001 A 
ATOM      4  C   UNL d   1      23.160  13.760  -0.069  0.00  0.00     0.000 A 
ATOM      5  C   UNL d   1      22.750  12.419  -0.350  0.00  0.00     0.000 A 
ATOM      6  C   UNL d   1      22.592  13.157  -0.014  0.00  0.00     0.000 A 
ENDROOT
BRANCH   1   7
ATOM      7  C   UNL d   1      24.738  12.754  -1.173  0.00  0.00     0.119 C 
BRANCH   7   8
ATOM      8  S   UNL d   1      24.753  12.659  -1.994  0.00  0.00     0.303 S 
ATOM      9  O   UNL d   1      24.746  11.779  -1.880  0.00  0.00    -0.197 OA
ATOM     10  O   UNL d   1      24.762  13.549  -2.176  0.00  0.00    -0.197 OA
ATOM     11  N   UNL d   1      24.768  12.550  -2.773  0.00  0.00    -0.043 N 
ENDBRANCH   7   8
ENDBRANCH   1   7
TORSDOF 2
ENDMDL
