MODEL 1
REMARK VINA RESULT:      -8.9      0.000      0.000
REMARK  3 active torsions:
REMARK  status: ('A' for Active; 'I' for Inactive)
REMARK    1  A    between atoms: C_5  and  S_1 
REMARK    2  A    between atoms: N_7  and  S_1 
REMARK       I    between atoms: N_2  and  C_3 
REMARK    3  A    between atoms: C_3  and  C_9 
ROOT
ATOM      1  C   UNL d   1      52.317  33.207  53.000  0.00  0.00     0.104 A 
ATOM      2  C   UNL d   1      53.005  31.956  53.014  0.00  0.00     0.059 A 
ATOM      3  C   UNL d   1      52.318  32.393  52.875  0.00  0.00     0.018 A 
ATOM      4  C   UNL d   1      52.998  33.587  53.263  0.00  0.00     0.012 A 
ATOM      5  C   UNL d   1      53.690  32.334  53.278  0.00  0.00     0.005 A 
ATOM      6  C   UNL d   1      53.686  33.150  53.402  0.00  0.00     0.001 A 
ATOM      7  C   UNL d   1      52.997  34.400  53.388  0.00  0.00     0.001 C 
ENDROOT
BRANCH   1   8
ATOM      8  S   UNL d   1      51.637  33.639  52.863  0.00  0.00     0.272 S 
ATOM      9  O   UNL d   1      51.269  33.321  53.680  0.00  0.00    -0.200 OA
ATOM     10  O   UNL d   1      51.956  33.916  52.152  0.00  0.00    -0.200 OA
BRANCH   8  11
ATOM     11  N   UNL d   1      50.925  34.056  52.777  0.00  0.00    -0.225 N 
ATOM     12  C   UNL d   1      50.579  34.405  53.431  0.00  0.00     0.118 A 
ATOM     13  C   UNL d   1      49.871  34.820  53.347  0.00  0.00     0.142 A 
ATOM     14  O   UNL d   1      49.512  34.881  52.601  0.00  0.00    -0.300 OA
ATOM     15  C   UNL d   1      49.870  34.524  51.946  0.00  0.00     0.142 A 
ATOM     16  C   UNL d   1      50.582  34.107  52.031  0.00  0.00     0.118 A 
ENDBRANCH   8  11
ENDBRANCH   1   8
BRANCH   2  17
ATOM     17  C   UNL d   1      53.014  31.142  52.891  0.00  0.00     0.280 C 
ATOM     18  N   UNL d   1      53.170  30.634  53.518  0.00  0.00    -0.195 N 
ATOM     19  N   UNL d   1      53.199  29.823  53.487  0.00  0.00    -0.163 NA
ATOM     20  C   UNL d   1      53.325  30.872  54.294  0.00  0.00     0.088 A 
ATOM     21  C   UNL d   1      53.372  29.534  54.240  0.00  0.00     0.103 A 
ATOM     22  C   UNL d   1      53.453  28.744  54.456  0.00  0.00     0.022 C 
ATOM     23  C   UNL d   1      53.450  30.186  54.739  0.00  0.00     0.040 A 
ATOM     24  C   UNL d   1      53.352  31.649  54.576  0.00  0.00     0.021 C 
ATOM     25  O   UNL d   1      52.867  30.838  52.142  0.00  0.00    -0.265 OA
ENDBRANCH   2  17
TORSDOF 3
ENDMDL
MODEL 2
REMARK VINA RESULT:      -8.5      1.205      4.382
REMARK  3 active torsions:
REMARK  status: ('A' for Active; 'I' for Inactive)
REMARK    1  A    between atoms: C_5  and  S_1 
REMARK    2  A    between atoms: N_7  and  S_1 
REMARK       I    between atoms: N_2  and  C_3 
REMARK    3  A    between atoms: C_3  and  C_9 
ROOT
ATOM      1  C   UNL d   1      52.545  33.017  53.186  0.00  0.00     0.104 A 
ATOM      2  C   UNL d   1      51.800  34.015  52.489  0.00  0.00     0.059 A 
ATOM      3  C   UNL d   1      52.019  33.225  52.588  0.00  0.00     0.018 A 
ATOM      4  C   UNL d   1      52.854  33.594  53.685  0.00  0.00     0.012 A 
ATOM      5  C   UNL d   1      52.108  34.596  52.988  0.00  0.00     0.005 A 
ATOM      6  C   UNL d   1      52.635  34.384  53.586  0.00  0.00     0.001 A 
ATOM      7  C   UNL d   1      53.380  33.386  54.283  0.00  0.00     0.001 C 
ENDROOT
BRANCH   1   8
ATOM      8  S   UNL d   1      52.762  32.235  53.284  0.00  0.00     0.272 S 
ATOM      9  O   UNL d   1      53.235  32.262  52.459  0.00  0.00    -0.200 OA
ATOM     10  O   UNL d   1      52.351  32.211  54.001  0.00  0.00    -0.200 OA
BRANCH   8  11
ATOM     11  N   UNL d   1      53.013  31.445  53.330  0.00  0.00    -0.225 N 
ATOM     12  C   UNL d   1      53.762  31.274  53.607  0.00  0.00     0.118 A 
ATOM     13  C   UNL d   1      54.013  30.489  53.653  0.00  0.00     0.142 A 
ATOM     14  O   UNL d   1      53.504  29.878  53.418  0.00  0.00    -0.300 OA
ATOM     15  C   UNL d   1      52.747  30.061  53.138  0.00  0.00     0.142 A 
ATOM     16  C   UNL d   1      52.496  30.850  53.092  0.00  0.00     0.118 A 
ENDBRANCH   8  11
ENDBRANCH   1   8
BRANCH   2  17
ATOM     17  C   UNL d   1      51.273  34.231  51.893  0.00  0.00     0.280 C 
ATOM     18  N   UNL d   1      50.494  34.408  52.079  0.00  0.00    -0.195 N 
ATOM     19  N   UNL d   1      49.910  34.629  51.558  0.00  0.00    -0.163 NA
ATOM     20  C   UNL d   1      50.170  34.390  52.840  0.00  0.00     0.088 A 
ATOM     21  C   UNL d   1      49.211  34.753  51.978  0.00  0.00     0.103 A 
ATOM     22  C   UNL d   1      48.485  34.983  51.666  0.00  0.00     0.022 C 
ATOM     23  C   UNL d   1      49.375  34.605  52.773  0.00  0.00     0.040 A 
ATOM     24  C   UNL d   1      50.567  34.193  53.540  0.00  0.00     0.021 C 
ATOM     25  O   UNL d   1      51.530  34.269  51.113  0.00  0.00    -0.265 OA
ENDBRANCH   2  17
TORSDOF 3
ENDMDL
MODEL 3
REMARK VINA RESULT:      -8.2      1.834      4.283
REMARK  3 active torsions:
REMARK  status: ('A' for Active; 'I' for Inactive)
REMARK    1  A    between atoms: C_5  and  S_1 
REMARK    2  A    between atoms: N_7  and  S_1 
REMARK       I    between atoms: N_2  and  C_3 
REMARK    3  A    between atoms: C_3  and  C_9 
ROOT
ATOM      1  C   UNL d   1      53.251  32.961  53.491  0.00  0.00     0.104 A 
ATOM      2  C   UNL d   1      52.193  33.323  52.603  0.00  0.00     0.059 A 
ATOM      3  C   UNL d   1      52.813  33.541  53.104  0.00  0.00     0.018 A 
ATOM      4  C   UNL d   1      53.074  32.165  53.381  0.00  0.00     0.012 A 
ATOM      5  C   UNL d   1      52.014  32.525  52.490  0.00  0.00     0.005 A 
ATOM      6  C   UNL d   1      52.455  31.946  52.880  0.00  0.00     0.001 A 
ATOM      7  C   UNL d   1      53.512  31.586  53.767  0.00  0.00     0.001 C 
ENDROOT
BRANCH   1   8
ATOM      8  S   UNL d   1      53.865  33.178  53.987  0.00  0.00     0.272 S 
ATOM      9  O   UNL d   1      53.237  33.397  54.667  0.00  0.00    -0.200 OA
ATOM     10  O   UNL d   1      54.410  32.987  53.395  0.00  0.00    -0.200 OA
BRANCH   8  11
ATOM     11  N   UNL d   1      54.444  33.411  54.532  0.00  0.00    -0.225 N 
ATOM     12  C   UNL d   1      54.286  33.366  55.333  0.00  0.00     0.118 A 
ATOM     13  C   UNL d   1      54.862  33.598  55.878  0.00  0.00     0.142 A 
ATOM     14  O   UNL d   1      55.597  33.874  55.611  0.00  0.00    -0.300 OA
ATOM     15  C   UNL d   1      55.747  33.915  54.798  0.00  0.00     0.142 A 
ATOM     16  C   UNL d   1      55.168  33.682  54.251  0.00  0.00     0.118 A 
ENDBRANCH   8  11
ENDBRANCH   1   8
BRANCH   2  17
ATOM     17  C   UNL d   1      51.750  33.896  52.212  0.00  0.00     0.280 C 
ATOM     18  N   UNL d   1      50.983  34.059  52.456  0.00  0.00    -0.195 N 
ATOM     19  N   UNL d   1      50.477  34.605  52.129  0.00  0.00    -0.163 NA
ATOM     20  C   UNL d   1      50.595  33.686  53.083  0.00  0.00     0.088 A 
ATOM     21  C   UNL d   1      49.764  34.587  52.543  0.00  0.00     0.103 A 
ATOM     22  C   UNL d   1      49.100  35.050  52.397  0.00  0.00     0.022 C 
ATOM     23  C   UNL d   1      49.839  34.017  53.134  0.00  0.00     0.040 A 
ATOM     24  C   UNL d   1      50.903  33.092  53.571  0.00  0.00     0.021 C 
ATOM     25  O   UNL d   1      52.076  34.305  51.578  0.00  0.00    -0.265 OA
ENDBRANCH   2  17
TORSDOF 3
ENDMDL
MODEL 4
REMARK VINA RESULT:      -7.3      1.484      2.224
REMARK  3 active torsions:
REMARK  status: ('A' for Active; 'I' for Inactive)
REMARK    1  A    between atoms: C_5  and  S_1 
REMARK    2  A    between atoms: N_7  and  S_1 
REMARK       I    between atoms: N_2  and  C_3 
REMARK    3  A    between atoms: C_3  and  C_9 
ROOT
ATOM      1  C   UNL d   1      52.845  32.874  53.431  0.00  0.00     0.104 A 
ATOM      2  C   UNL d   1      53.285  31.531  53.231  0.00  0.00     0.059 A 
ATOM      3  C   UNL d   1      53.349  32.253  53.627  0.00  0.00     0.018 A 
ATOM      4  C   UNL d   1      52.277  32.778  52.843  0.00  0.00     0.012 A 
ATOM      5  C   UNL d   1      52.717  31.432  52.640  0.00  0.00     0.005 A 
ATOM      6  C   UNL d   1      52.213  32.056  52.447  0.00  0.00     0.001 A 
ATOM      7  C   UNL d   1      51.774  33.399  52.648  0.00  0.00     0.001 C 
ENDROOT
BRANCH   1   8
ATOM      8  S   UNL d   1      52.908  33.589  53.823  0.00  0.00     0.272 S 
ATOM      9  O   UNL d   1      53.733  33.759  53.381  0.00  0.00    -0.200 OA
ATOM     10  O   UNL d   1      52.191  33.442  54.208  0.00  0.00    -0.200 OA
BRANCH   8  11
ATOM     11  N   UNL d   1      53.026  34.323  54.191  0.00  0.00    -0.225 N 
ATOM     12  C   UNL d   1      52.920  35.012  53.763  0.00  0.00     0.118 A 
ATOM     13  C   UNL d   1      53.037  35.743  54.128  0.00  0.00     0.142 A 
ATOM     14  O   UNL d   1      53.261  35.777  54.925  0.00  0.00    -0.300 OA
ATOM     15  C   UNL d   1      53.366  35.074  55.350  0.00  0.00     0.142 A 
ATOM     16  C   UNL d   1      53.249  34.340  54.983  0.00  0.00     0.118 A 
ENDBRANCH   8  11
ENDBRANCH   1   8
BRANCH   2  17
ATOM     17  C   UNL d   1      53.786  30.905  53.420  0.00  0.00     0.280 C 
ATOM     18  N   UNL d   1      53.481  30.228  53.769  0.00  0.00    -0.195 N 
ATOM     19  N   UNL d   1      53.899  29.566  53.988  0.00  0.00    -0.163 NA
ATOM     20  C   UNL d   1      52.685  30.107  53.958  0.00  0.00     0.088 A 
ATOM     21  C   UNL d   1      53.377  29.018  54.318  0.00  0.00     0.103 A 
ATOM     22  C   UNL d   1      53.569  28.274  54.612  0.00  0.00     0.022 C 
ATOM     23  C   UNL d   1      52.625  29.356  54.298  0.00  0.00     0.040 A 
ATOM     24  C   UNL d   1      52.062  30.638  53.832  0.00  0.00     0.021 C 
ATOM     25  O   UNL d   1      54.590  30.959  53.258  0.00  0.00    -0.265 OA
ENDBRANCH   2  17
TORSDOF 3
ENDMDL
MODEL 5
REMARK VINA RESULT:      -7.2      2.150      4.353
REMARK  3 active torsions:
REMARK  status: ('A' for Active; 'I' for Inactive)
REMARK    1  A    between atoms: C_5  and  S_1 
REMARK    2  A    between atoms: N_7  and  S_1 
REMARK       I    between atoms: N_2  and  C_3 
REMARK    3  A    between atoms: C_3  and  C_9 
ROOT
ATOM      1  C   UNL d   1      53.965  32.108  53.793  0.00  0.00     0.104 A 
ATOM      2  C   UNL d   1      54.122  33.365  54.451  0.00  0.00     0.059 A 
ATOM      3  C   UNL d   1      53.711  32.654  54.354  0.00  0.00     0.018 A 
ATOM      4  C   UNL d   1      54.626  32.266  53.328  0.00  0.00     0.012 A 
ATOM      5  C   UNL d   1      54.785  33.526  53.986  0.00  0.00     0.005 A 
ATOM      6  C   UNL d   1      55.036  32.976  53.425  0.00  0.00     0.001 A 
ATOM      7  C   UNL d   1      54.879  31.719  52.768  0.00  0.00     0.001 C 
ENDROOT
BRANCH   1   8
ATOM      8  S   UNL d   1      53.559  31.404  53.697  0.00  0.00     0.272 S 
ATOM      9  O   UNL d   1      53.859  31.114  54.551  0.00  0.00    -0.200 OA
ATOM     10  O   UNL d   1      53.297  31.657  52.954  0.00  0.00    -0.200 OA
BRANCH   8  11
ATOM     11  N   UNL d   1      53.167  30.674  53.656  0.00  0.00    -0.225 N 
ATOM     12  C   UNL d   1      53.457  30.036  54.077  0.00  0.00     0.118 A 
ATOM     13  C   UNL d   1      53.068  29.309  54.037  0.00  0.00     0.142 A 
ATOM     14  O   UNL d   1      52.387  29.228  53.570  0.00  0.00    -0.300 OA
ATOM     15  C   UNL d   1      52.102  29.880  53.147  0.00  0.00     0.142 A 
ATOM     16  C   UNL d   1      52.493  30.611  53.188  0.00  0.00     0.118 A 
ENDBRANCH   8  11
ENDBRANCH   1   8
BRANCH   2  17
ATOM     17  C   UNL d   1      53.875  33.917  55.009  0.00  0.00     0.280 C 
ATOM     18  N   UNL d   1      53.453  34.580  54.772  0.00  0.00    -0.195 N 
ATOM     19  N   UNL d   1      53.172  35.173  55.252  0.00  0.00    -0.163 NA
ATOM     20  C   UNL d   1      53.243  34.756  53.991  0.00  0.00     0.088 A 
ATOM     21  C   UNL d   1      52.782  35.730  54.786  0.00  0.00     0.103 A 
ATOM     22  C   UNL d   1      52.414  36.418  55.049  0.00  0.00     0.022 C 
ATOM     23  C   UNL d   1      52.827  35.470  54.005  0.00  0.00     0.040 A 
ATOM     24  C   UNL d   1      53.417  34.303  53.320  0.00  0.00     0.021 C 
ATOM     25  O   UNL d   1      54.050  33.803  55.804  0.00  0.00    -0.265 OA
ENDBRANCH   2  17
TORSDOF 3
ENDMDL
MODEL 6
REMARK VINA RESULT:      -6.9      1.572      2.497
REMARK  3 active torsions:
REMARK  status: ('A' for Active; 'I' for Inactive)
REMARK    1  A    between atoms: C_5  and  S_1 
REMARK    2  A    between atoms: N_7  and  S_1 
REMARK       I    between atoms: N_2  and  C_3 
REMARK    3  A    between atoms: C_3  and  C_9 
ROOT
ATOM      1  C   UNL d   1      52.121  32.892  53.053  0.00  0.00     0.104 A 
ATOM      2  C   UNL d   1      53.518  32.775  53.326  0.00  0.00     0.059 A 
ATOM      3  C   UNL d   1      52.860  33.243  53.151  0.00  0.00     0.018 A 
ATOM      4  C   UNL d   1      52.036  32.076  53.128  0.00  0.00     0.012 A 
ATOM      5  C   UNL d   1      53.436  31.957  53.402  0.00  0.00     0.005 A 
ATOM      6  C   UNL d   1      52.694  31.609  53.303  0.00  0.00     0.001 A 
ATOM      7  C   UNL d   1      51.299  31.726  53.030  0.00  0.00     0.001 C 
ENDROOT
BRANCH   1   8
ATOM      8  S   UNL d   1      51.470  33.355  52.880  0.00  0.00     0.272 S 
ATOM      9  O   UNL d   1      51.849  33.573  52.035  0.00  0.00    -0.200 OA
ATOM     10  O   UNL d   1      51.140  33.166  53.614  0.00  0.00    -0.200 OA
BRANCH   8  11
ATOM     11  N   UNL d   1      50.836  33.838  52.649  0.00  0.00    -0.225 N 
ATOM     12  C   UNL d   1      50.634  33.890  51.859  0.00  0.00     0.118 A 
ATOM     13  C   UNL d   1      50.003  34.370  51.628  0.00  0.00     0.142 A 
ATOM     14  O   UNL d   1      49.577  34.797  52.199  0.00  0.00    -0.300 OA
ATOM     15  C   UNL d   1      49.790  34.737  52.996  0.00  0.00     0.142 A 
ATOM     16  C   UNL d   1      50.424  34.254  53.227  0.00  0.00     0.118 A 
ENDBRANCH   8  11
ENDBRANCH   1   8
BRANCH   2  17
ATOM     17  C   UNL d   1      54.260  33.119  53.426  0.00  0.00     0.280 C 
ATOM     18  N   UNL d   1      54.535  33.287  54.181  0.00  0.00    -0.195 N 
ATOM     19  N   UNL d   1      55.251  33.623  54.370  0.00  0.00    -0.163 NA
ATOM     20  C   UNL d   1      54.122  33.139  54.882  0.00  0.00     0.088 A 
ATOM     21  C   UNL d   1      55.302  33.694  55.191  0.00  0.00     0.103 A 
ATOM     22  C   UNL d   1      55.932  34.005  55.618  0.00  0.00     0.022 C 
ATOM     23  C   UNL d   1      54.601  33.393  55.506  0.00  0.00     0.040 A 
ATOM     24  C   UNL d   1      53.370  32.801  54.949  0.00  0.00     0.021 C 
ATOM     25  O   UNL d   1      54.724  33.292  52.770  0.00  0.00    -0.265 OA
ENDBRANCH   2  17
TORSDOF 3
ENDMDL
