MODEL 1
REMARK VINA RESULT:      -5.5      0.000      0.000
REMARK  2 active torsions:
REMARK  status: ('A' for Active; 'I' for Inactive)
REMARK    1  A    between atoms: C_6  and  C_1 
REMARK    2  A    between atoms: C_7  and  C_4 
ROOT
ATOM      1  C   UNL d   1      57.538  -0.106  30.748  0.00  0.00     0.169 A 
ATOM      2  C   UNL d   1      57.299   0.602  31.098  0.00  0.00     0.048 A 
ATOM      3  N   UNL d   1      56.958  -0.840  31.817  0.00  0.00    -0.148 NA
ATOM      4  C   UNL d   1      56.718  -0.134  32.171  0.00  0.00     0.105 A 
ATOM      5  N   UNL d   1      57.371  -0.831  31.100  0.00  0.00    -0.142 NA
ENDROOT
BRANCH   4   6
ATOM      6  C   UNL d   1      56.310   0.069  32.860  0.00  0.00     0.019 A 
ATOM      7  C   UNL d   1      56.700   0.477  33.458  0.00  0.00     0.002 A 
ATOM      8  C   UNL d   1      56.300   0.681  34.143  0.00  0.00     0.000 A 
ATOM      9  C   UNL d   1      57.497   0.681  33.366  0.00  0.00     0.000 C 
ATOM     10  C   UNL d   1      55.503   0.477  34.236  0.00  0.00     0.000 A 
ATOM     11  C   UNL d   1      55.112   0.066  33.633  0.00  0.00     0.000 A 
ATOM     12  C   UNL d   1      55.100   0.682  34.926  0.00  0.00     0.000 C 
ATOM     13  C   UNL d   1      55.512  -0.137  32.948  0.00  0.00     0.002 A 
ENDBRANCH   4   6
BRANCH   1  14
ATOM     14  C   UNL d   1      57.950  -0.087  30.032  0.00  0.00     0.231 C 
ATOM     15  O   UNL d   1      58.538  -0.646  29.882  0.00  0.00    -0.643 OA
ATOM     16  O   UNL d   1      57.775   0.487  29.469  0.00  0.00    -0.643 OA
ENDBRANCH   1  14
TORSDOF 2
ENDMDL
MODEL 2
REMARK VINA RESULT:      -5.0      1.140      1.784
REMARK  2 active torsions:
REMARK  status: ('A' for Active; 'I' for Inactive)
REMARK    1  A    between atoms: C_6  and  C_1 
REMARK    2  A    between atoms: C_7  and  C_4 
ROOT
ATOM      1  C   UNL d   1      58.704   0.209  29.949  0.00  0.00     0.169 A 
ATOM      2  C   UNL d   1      58.839   0.174  30.762  0.00  0.00     0.048 A 
ATOM      3  N   UNL d   1      57.305   0.108  30.169  0.00  0.00    -0.148 NA
ATOM      4  C   UNL d   1      57.435   0.072  30.983  0.00  0.00     0.105 A 
ATOM      5  N   UNL d   1      57.940   0.177  29.643  0.00  0.00    -0.142 NA
ENDROOT
BRANCH   4   6
ATOM      6  C   UNL d   1      56.956   0.005  31.652  0.00  0.00     0.019 A 
ATOM      7  C   UNL d   1      56.700  -0.738  31.897  0.00  0.00     0.002 A 
ATOM      8  C   UNL d   1      56.226  -0.810  32.560  0.00  0.00     0.000 A 
ATOM      9  C   UNL d   1      56.924  -1.412  31.471  0.00  0.00     0.000 C 
ATOM     10  C   UNL d   1      56.002  -0.136  32.987  0.00  0.00     0.000 A 
ATOM     11  C   UNL d   1      56.260   0.610  32.740  0.00  0.00     0.000 A 
ATOM     12  C   UNL d   1      55.524  -0.209  33.655  0.00  0.00     0.000 C 
ATOM     13  C   UNL d   1      56.735   0.682  32.076  0.00  0.00     0.002 A 
ENDBRANCH   4   6
BRANCH   1  14
ATOM     14  C   UNL d   1      59.345   0.279  29.432  0.00  0.00     0.231 C 
ATOM     15  O   UNL d   1      60.075  -0.049  29.635  0.00  0.00    -0.643 OA
ATOM     16  O   UNL d   1      59.257   0.674  28.715  0.00  0.00    -0.643 OA
ENDBRANCH   1  14
TORSDOF 2
ENDMDL
MODEL 3
REMARK VINA RESULT:      -4.6      2.549      4.010
REMARK  2 active torsions:
REMARK  status: ('A' for Active; 'I' for Inactive)
REMARK    1  A    between atoms: C_6  and  C_1 
REMARK    2  A    between atoms: C_7  and  C_4 
ROOT
ATOM      1  C   UNL d   1      55.444   0.429  34.149  0.00  0.00     0.169 A 
ATOM      2  C   UNL d   1      56.192   0.086  34.086  0.00  0.00     0.048 A 
ATOM      3  N   UNL d   1      55.388   0.584  32.738  0.00  0.00    -0.148 NA
ATOM      4  C   UNL d   1      56.135   0.241  32.671  0.00  0.00     0.105 A 
ATOM      5  N   UNL d   1      55.035   0.681  33.480  0.00  0.00    -0.142 NA
ENDROOT
BRANCH   4   6
ATOM      6  C   UNL d   1      56.645   0.061  32.046  0.00  0.00     0.019 A 
ATOM      7  C   UNL d   1      56.742  -0.723  31.815  0.00  0.00     0.002 A 
ATOM      8  C   UNL d   1      57.246  -0.908  31.197  0.00  0.00     0.000 A 
ATOM      9  C   UNL d   1      56.331  -1.324  32.209  0.00  0.00     0.000 C 
ATOM     10  C   UNL d   1      57.659  -0.308  30.802  0.00  0.00     0.000 A 
ATOM     11  C   UNL d   1      57.559   0.480  31.036  0.00  0.00     0.000 A 
ATOM     12  C   UNL d   1      58.167  -0.494  30.180  0.00  0.00     0.000 C 
ATOM     13  C   UNL d   1      57.055   0.665  31.655  0.00  0.00     0.002 A 
ENDBRANCH   4   6
BRANCH   1  14
ATOM     14  C   UNL d   1      55.100   0.522  34.895  0.00  0.00     0.231 C 
ATOM     15  O   UNL d   1      54.279   0.507  34.973  0.00  0.00    -0.643 OA
ATOM     16  O   UNL d   1      55.575   0.630  35.559  0.00  0.00    -0.643 OA
ENDBRANCH   1  14
TORSDOF 2
ENDMDL
MODEL 4
REMARK VINA RESULT:      -4.1      2.037      4.053
REMARK  2 active torsions:
REMARK  status: ('A' for Active; 'I' for Inactive)
REMARK    1  A    between atoms: C_6  and  C_1 
REMARK    2  A    between atoms: C_7  and  C_4 
ROOT
ATOM      1  C   UNL d   1      56.589  -0.492  32.222  0.00  0.00     0.169 A 
ATOM      2  C   UNL d   1      57.021  -0.987  31.723  0.00  0.00     0.048 A 
ATOM      3  N   UNL d   1      57.173   0.649  31.611  0.00  0.00    -0.148 NA
ATOM      4  C   UNL d   1      57.607   0.158  31.110  0.00  0.00     0.105 A 
ATOM      5  N   UNL d   1      56.658   0.327  32.173  0.00  0.00    -0.142 NA
ENDROOT
BRANCH   4   6
ATOM      6  C   UNL d   1      58.156   0.274  30.504  0.00  0.00     0.019 A 
ATOM      7  C   UNL d   1      58.914   0.537  30.686  0.00  0.00     0.002 A 
ATOM      8  C   UNL d   1      59.462   0.653  30.088  0.00  0.00     0.000 A 
ATOM      9  C   UNL d   1      59.123   0.682  31.474  0.00  0.00     0.000 C 
ATOM     10  C   UNL d   1      59.255   0.508  29.299  0.00  0.00     0.000 A 
ATOM     11  C   UNL d   1      58.491   0.245  29.118  0.00  0.00     0.000 A 
ATOM     12  C   UNL d   1      59.806   0.626  28.698  0.00  0.00     0.000 C 
ATOM     13  C   UNL d   1      57.944   0.128  29.716  0.00  0.00     0.002 A 
ENDBRANCH   4   6
BRANCH   1  14
ATOM     14  C   UNL d   1      56.076  -0.823  32.781  0.00  0.00     0.231 C 
ATOM     15  O   UNL d   1      56.058  -1.641  32.888  0.00  0.00    -0.643 OA
ATOM     16  O   UNL d   1      55.585  -0.337  33.229  0.00  0.00    -0.643 OA
ENDBRANCH   1  14
TORSDOF 2
ENDMDL
