MODEL 1
REMARK VINA RESULT:       9.3      0.000      0.000
REMARK  5 active torsions:
REMARK  status: ('A' for Active; 'I' for Inactive)
REMARK    1  A    between atoms: C_2  and  C_1 
REMARK       I    between atoms: N_5  and  C_1 
REMARK    2  A    between atoms: C_3  and  C_14 
REMARK    3  A    between atoms: C_12  and  N_5 
REMARK    4  A    between atoms: O_13  and  C_9 
REMARK    5  A    between atoms: C_14  and  C_12 
ROOT
ATOM      1  C   UNL d   1      46.043 -17.742  44.153  0.00  0.00     0.279 C 
ATOM      2  O   UNL d   1      46.016 -17.895  44.954  0.00  0.00    -0.265 OA
ATOM      3  N   UNL d   1      45.922 -16.987  43.854  0.00  0.00    -0.206 NA
ENDROOT
BRANCH   1   4
ATOM      4  C   UNL d   1      46.196 -18.361  43.628  0.00  0.00     0.058 A 
ATOM      5  C   UNL d   1      46.333 -18.201  42.848  0.00  0.00     0.007 A 
ATOM      6  C   UNL d   1      46.487 -18.837  42.326  0.00  0.00     0.024 A 
ATOM      7  C   UNL d   1      46.498 -19.584  42.588  0.00  0.00     0.094 A 
ATOM      8  C   UNL d   1      46.358 -19.751  43.388  0.00  0.00     0.024 A 
ATOM      9  C   UNL d   1      46.205 -19.136  43.914  0.00  0.00     0.007 A 
BRANCH   7  10
ATOM     10  O   UNL d   1      46.647 -20.191  42.078  0.00  0.00    -0.328 OA
ATOM     11  C   UNL d   1      46.515 -20.092  41.265  0.00  0.00     0.181 C 
ENDBRANCH   7  10
ENDBRANCH   1   4
BRANCH   3  12
ATOM     12  C   UNL d   1      45.770 -16.374  44.390  0.00  0.00     0.102 C 
BRANCH  12  13
ATOM     13  C   UNL d   1      46.202 -15.701  44.378  0.00  0.00     0.021 C 
BRANCH  13  14
ATOM     14  C   UNL d   1      45.858 -14.978  44.551  0.00  0.00     0.002 A 
ATOM     15  C   UNL d   1      46.312 -14.297  44.578  0.00  0.00     0.000 A 
ATOM     16  C   UNL d   1      45.965 -13.568  44.752  0.00  0.00     0.000 A 
ATOM     17  C   UNL d   1      45.158 -13.505  44.903  0.00  0.00     0.000 A 
ATOM     18  C   UNL d   1      44.699 -14.199  44.875  0.00  0.00     0.000 A 
ATOM     19  C   UNL d   1      45.058 -14.932  44.698  0.00  0.00     0.000 A 
ENDBRANCH  13  14
ENDBRANCH  12  13
ENDBRANCH   3  12
TORSDOF 5
ENDMDL
MODEL 2
REMARK VINA RESULT:      12.0      1.464      5.045
REMARK  5 active torsions:
REMARK  status: ('A' for Active; 'I' for Inactive)
REMARK    1  A    between atoms: C_2  and  C_1 
REMARK       I    between atoms: N_5  and  C_1 
REMARK    2  A    between atoms: C_3  and  C_14 
REMARK    3  A    between atoms: C_12  and  N_5 
REMARK    4  A    between atoms: O_13  and  C_9 
REMARK    5  A    between atoms: C_14  and  C_12 
ROOT
ATOM      1  C   UNL d   1      45.561 -15.877  44.561  0.00  0.00     0.279 C 
ATOM      2  O   UNL d   1      44.935 -16.220  44.955  0.00  0.00    -0.265 OA
ATOM      3  N   UNL d   1      46.118 -16.329  44.161  0.00  0.00    -0.206 NA
ENDROOT
BRANCH   1   4
ATOM      4  C   UNL d   1      45.639 -15.055  44.563  0.00  0.00     0.058 A 
ATOM      5  C   UNL d   1      46.257 -14.712  44.955  0.00  0.00     0.007 A 
ATOM      6  C   UNL d   1      46.325 -13.877  44.950  0.00  0.00     0.024 A 
ATOM      7  C   UNL d   1      45.795 -13.429  44.569  0.00  0.00     0.094 A 
ATOM      8  C   UNL d   1      45.160 -13.778  44.167  0.00  0.00     0.024 A 
ATOM      9  C   UNL d   1      45.080 -14.599  44.162  0.00  0.00     0.007 A 
BRANCH   7  10
ATOM     10  O   UNL d   1      45.868 -12.625  44.569  0.00  0.00    -0.328 OA
ATOM     11  C   UNL d   1      45.490 -12.174  43.984  0.00  0.00     0.181 C 
ENDBRANCH   7  10
ENDBRANCH   1   4
BRANCH   3  12
ATOM     12  C   UNL d   1      46.030 -17.152  44.166  0.00  0.00     0.102 C 
BRANCH  12  13
ATOM     13  C   UNL d   1      46.521 -17.621  43.743  0.00  0.00     0.021 C 
BRANCH  13  14
ATOM     14  C   UNL d   1      46.437 -18.435  43.752  0.00  0.00     0.002 A 
ATOM     15  C   UNL d   1      46.203 -18.837  43.078  0.00  0.00     0.000 A 
ATOM     16  C   UNL d   1      46.118 -19.659  43.087  0.00  0.00     0.000 A 
ATOM     17  C   UNL d   1      46.265 -20.095  43.770  0.00  0.00     0.000 A 
ATOM     18  C   UNL d   1      46.503 -19.684  44.454  0.00  0.00     0.000 A 
ATOM     19  C   UNL d   1      46.586 -18.853  44.436  0.00  0.00     0.000 A 
ENDBRANCH  13  14
ENDBRANCH  12  13
ENDBRANCH   3  12
TORSDOF 5
ENDMDL
