MODEL 1
REMARK VINA RESULT:      24.6      0.000      0.000
REMARK  4 active torsions:
REMARK  status: ('A' for Active; 'I' for Inactive)
REMARK    1  A    between atoms: C_5  and  N_1 
REMARK    2  A    between atoms: C_7  and  C_5 
REMARK    3  A    between atoms: O_10  and  C_8 
REMARK    4  A    between atoms: C_14  and  O_10 
ROOT
ATOM      1  C   UNL d   1      14.233  12.899  -2.759  0.00  0.00     0.087 C 
ENDROOT
BRANCH   1   2
ATOM      2  N   UNL d   1      14.105  12.510  -2.050  0.00  0.00    -0.251 N 
ATOM      3  C   UNL d   1      13.444  12.059  -1.811  0.00  0.00     0.378 A 
ATOM      4  O   UNL d   1      13.585  11.782  -1.039  0.00  0.00    -0.258 OA
ATOM      5  O   UNL d   1      12.770  11.915  -2.264  0.00  0.00    -0.237 OA
ATOM      6  C   UNL d   1      14.326  12.056  -0.798  0.00  0.00     0.121 A 
ATOM      7  C   UNL d   1      14.646  12.504  -1.418  0.00  0.00     0.092 A 
ATOM      8  C   UNL d   1      14.762  11.963  -0.093  0.00  0.00     0.026 A 
ATOM      9  C   UNL d   1      15.395  12.855  -1.335  0.00  0.00     0.020 A 
ATOM     10  C   UNL d   1      15.820  12.758  -0.637  0.00  0.00     0.002 A 
ATOM     11  C   UNL d   1      15.503  12.312  -0.014  0.00  0.00     0.002 A 
ENDBRANCH   1   2
BRANCH   1  12
ATOM     12  C   UNL d   1      13.766  12.737  -3.416  0.00  0.00     0.041 A 
ATOM     13  C   UNL d   1      13.468  13.348  -3.872  0.00  0.00     0.101 A 
ATOM     14  C   UNL d   1      13.001  13.186  -4.528  0.00  0.00     0.025 A 
ATOM     15  C   UNL d   1      12.833  12.400  -4.727  0.00  0.00     0.002 A 
ATOM     16  C   UNL d   1      13.132  11.780  -4.270  0.00  0.00     0.000 A 
ATOM     17  C   UNL d   1      13.599  11.948  -3.613  0.00  0.00     0.004 A 
BRANCH  13  18
ATOM     18  O   UNL d   1      13.636  14.133  -3.673  0.00  0.00    -0.307 OA
BRANCH  18  19
ATOM     19  C   UNL d   1      13.492  14.737  -4.220  0.00  0.00     0.100 C 
ATOM     20  C   UNL d   1      14.058  15.318  -4.350  0.00  0.00     0.027 C 
ATOM     21  C   UNL d   1      12.779  14.754  -4.633  0.00  0.00     0.027 C 
ENDBRANCH  18  19
ENDBRANCH  13  18
ENDBRANCH   1  12
TORSDOF 4
ENDMDL
MODEL 2
REMARK VINA RESULT:      25.0      1.163      3.521
REMARK  4 active torsions:
REMARK  status: ('A' for Active; 'I' for Inactive)
REMARK    1  A    between atoms: C_5  and  N_1 
REMARK    2  A    between atoms: C_7  and  C_5 
REMARK    3  A    between atoms: O_10  and  C_8 
REMARK    4  A    between atoms: C_14  and  O_10 
ROOT
ATOM      1  C   UNL d   1      14.140  13.196  -1.925  0.00  0.00     0.087 C 
ENDROOT
BRANCH   1   2
ATOM      2  N   UNL d   1      13.653  12.721  -2.381  0.00  0.00    -0.251 N 
ATOM      3  C   UNL d   1      13.180  12.075  -2.145  0.00  0.00     0.378 A 
ATOM      4  O   UNL d   1      12.791  11.779  -2.818  0.00  0.00    -0.258 OA
ATOM      5  O   UNL d   1      13.113  11.782  -1.377  0.00  0.00    -0.237 OA
ATOM      6  C   UNL d   1      13.017  12.235  -3.468  0.00  0.00     0.121 A 
ATOM      7  C   UNL d   1      13.547  12.814  -3.201  0.00  0.00     0.092 A 
ATOM      8  C   UNL d   1      12.816  12.208  -4.277  0.00  0.00     0.026 A 
ATOM      9  C   UNL d   1      13.872  13.360  -3.736  0.00  0.00     0.020 A 
ATOM     10  C   UNL d   1      13.669  13.328  -4.533  0.00  0.00     0.002 A 
ATOM     11  C   UNL d   1      13.140  12.750  -4.804  0.00  0.00     0.002 A 
ENDBRANCH   1   2
BRANCH   1  12
ATOM     12  C   UNL d   1      14.581  12.876  -1.309  0.00  0.00     0.041 A 
ATOM     13  C   UNL d   1      14.720  13.311  -0.630  0.00  0.00     0.101 A 
ATOM     14  C   UNL d   1      15.160  12.990  -0.016  0.00  0.00     0.025 A 
ATOM     15  C   UNL d   1      15.463  12.223  -0.085  0.00  0.00     0.002 A 
ATOM     16  C   UNL d   1      15.325  11.780  -0.769  0.00  0.00     0.000 A 
ATOM     17  C   UNL d   1      14.883  12.106  -1.382  0.00  0.00     0.004 A 
BRANCH  13  18
ATOM     18  O   UNL d   1      14.418  14.077  -0.561  0.00  0.00    -0.307 OA
BRANCH  18  19
ATOM     19  C   UNL d   1      14.934  14.721  -0.499  0.00  0.00     0.100 C 
ATOM     20  C   UNL d   1      14.722  15.451  -0.810  0.00  0.00     0.027 C 
ATOM     21  C   UNL d   1      15.662  14.627  -0.125  0.00  0.00     0.027 C 
ENDBRANCH  18  19
ENDBRANCH  13  18
ENDBRANCH   1  12
TORSDOF 4
ENDMDL
MODEL 3
REMARK VINA RESULT:      26.9      2.080      3.354
REMARK  4 active torsions:
REMARK  status: ('A' for Active; 'I' for Inactive)
REMARK    1  A    between atoms: C_5  and  N_1 
REMARK    2  A    between atoms: C_7  and  C_5 
REMARK    3  A    between atoms: O_10  and  C_8 
REMARK    4  A    between atoms: C_14  and  O_10 
ROOT
ATOM      1  C   UNL d   1      14.988  13.499  -1.472  0.00  0.00     0.087 C 
ENDROOT
BRANCH   1   2
ATOM      2  N   UNL d   1      15.289  14.097  -1.001  0.00  0.00    -0.251 N 
ATOM      3  C   UNL d   1      15.790  14.040  -0.336  0.00  0.00     0.378 A 
ATOM      4  O   UNL d   1      15.936  14.809  -0.054  0.00  0.00    -0.258 OA
ATOM      5  O   UNL d   1      16.088  13.340  -0.016  0.00  0.00    -0.237 OA
ATOM      6  C   UNL d   1      15.531  15.342  -0.537  0.00  0.00     0.121 A 
ATOM      7  C   UNL d   1      15.133  14.906  -1.119  0.00  0.00     0.092 A 
ATOM      8  C   UNL d   1      15.465  16.173  -0.532  0.00  0.00     0.026 A 
ATOM      9  C   UNL d   1      14.673  15.297  -1.691  0.00  0.00     0.020 A 
ATOM     10  C   UNL d   1      14.612  16.118  -1.680  0.00  0.00     0.002 A 
ATOM     11  C   UNL d   1      15.009  16.557  -1.100  0.00  0.00     0.002 A 
ENDBRANCH   1   2
BRANCH   1  12
ATOM     12  C   UNL d   1      14.494  12.924  -1.154  0.00  0.00     0.041 A 
ATOM     13  C   UNL d   1      14.160  12.353  -1.636  0.00  0.00     0.101 A 
ATOM     14  C   UNL d   1      13.666  11.779  -1.317  0.00  0.00     0.025 A 
ATOM     15  C   UNL d   1      13.508  11.780  -0.504  0.00  0.00     0.002 A 
ATOM     16  C   UNL d   1      13.843  12.354  -0.014  0.00  0.00     0.000 A 
ATOM     17  C   UNL d   1      14.337  12.928  -0.338  0.00  0.00     0.004 A 
BRANCH  13  18
ATOM     18  O   UNL d   1      14.318  12.352  -2.447  0.00  0.00    -0.307 OA
BRANCH  18  19
ATOM     19  C   UNL d   1      13.694  12.304  -2.989  0.00  0.00     0.100 C 
ATOM     20  C   UNL d   1      13.698  12.771  -3.665  0.00  0.00     0.027 C 
ATOM     21  C   UNL d   1      13.069  11.786  -2.849  0.00  0.00     0.027 C 
ENDBRANCH  18  19
ENDBRANCH  13  18
ENDBRANCH   1  12
TORSDOF 4
ENDMDL
