MODEL 1
REMARK VINA RESULT:      49.1      0.000      0.000
REMARK  7 active torsions:
REMARK  status: ('A' for Active; 'I' for Inactive)
REMARK    1  A    between atoms: C_4  and  N_1 
REMARK    2  A    between atoms: O_2  and  C_10 
REMARK    3  A    between atoms: C_3  and  O_2 
REMARK    4  A    between atoms: C_9  and  C_4 
REMARK    5  A    between atoms: C_12  and  C_6 
REMARK    6  A    between atoms: C_7  and  C_12 
REMARK    7  A    between atoms: C_10  and  C_9 
ROOT
ATOM      1  O   UNL d   1      58.815  49.699  50.663  0.00  0.00    -0.302 OA
ENDROOT
BRANCH   1   2
ATOM      2  C   UNL d   1      59.532  49.391  50.391  0.00  0.00     0.166 C 
BRANCH   2   3
ATOM      3  C   UNL d   1      59.962  48.865  50.849  0.00  0.00     0.238 C 
ATOM      4  O   UNL d   1      60.423  49.130  51.460  0.00  0.00    -0.283 OA
BRANCH   3   5
ATOM      5  C   UNL d   1      59.918  48.059  50.676  0.00  0.00     0.125 C 
BRANCH   5   6
ATOM      6  N   UNL d   1      60.463  47.543  50.979  0.00  0.00    -0.296 N 
ATOM      7  C   UNL d   1      60.858  47.013  50.485  0.00  0.00     0.107 A 
ATOM      8  C   UNL d   1      61.414  46.486  50.794  0.00  0.00     0.142 A 
ATOM      9  O   UNL d   1      61.573  46.492  51.595  0.00  0.00    -0.300 OA
ATOM     10  C   UNL d   1      61.191  47.008  52.085  0.00  0.00     0.142 A 
ATOM     11  C   UNL d   1      60.635  47.535  51.776  0.00  0.00     0.107 A 
ENDBRANCH   5   6
ENDBRANCH   3   5
ENDBRANCH   2   3
ENDBRANCH   1   2
BRANCH   1  12
ATOM     12  C   UNL d   1      58.146  49.694  50.169  0.00  0.00     0.100 A 
ATOM     13  C   UNL d   1      57.384  49.678  50.501  0.00  0.00     0.023 A 
ATOM     14  C   UNL d   1      56.723  49.673  50.018  0.00  0.00     0.002 A 
ATOM     15  C   UNL d   1      56.817  49.685  49.202  0.00  0.00     0.000 A 
ATOM     16  C   UNL d   1      57.579  49.702  48.869  0.00  0.00     0.002 A 
ATOM     17  C   UNL d   1      58.227  49.706  49.362  0.00  0.00     0.025 A 
BRANCH  13  18
ATOM     18  C   UNL d   1      57.281  49.666  51.331  0.00  0.00     0.002 C 
BRANCH  18  19
ATOM     19  C   UNL d   1      56.519  49.696  51.665  0.00  0.00     0.000 C 
ATOM     20  C   UNL d   1      56.438  49.708  52.469  0.00  0.00     0.000 C 
ENDBRANCH  18  19
ENDBRANCH  13  18
ENDBRANCH   1  12
TORSDOF 7
ENDMDL
