MODEL 1
REMARK VINA RESULT:      88.2      0.000      0.000
REMARK  3 active torsions:
REMARK  status: ('A' for Active; 'I' for Inactive)
REMARK    1  A    between atoms: C_11  and  C_3 
REMARK    2  A    between atoms: O_13  and  C_10 
REMARK    3  A    between atoms: C_21  and  O_13 
ROOT
ATOM      1  C   UNL d   1      61.469  46.810  50.104  0.00  0.00     0.203 A 
ATOM      2  C   UNL d   1      61.240  47.509  50.475  0.00  0.00     0.101 A 
ATOM      3  C   UNL d   1      61.198  46.087  50.391  0.00  0.00     0.064 A 
ATOM      4  C   UNL d   1      60.741  47.486  51.131  0.00  0.00     0.108 A 
ATOM      5  C   UNL d   1      61.511  48.232  50.187  0.00  0.00     0.203 A 
ATOM      6  C   UNL d   1      60.699  46.064  51.048  0.00  0.00     0.126 A 
ATOM      7  O   UNL d   1      60.471  46.762  51.419  0.00  0.00    -0.305 OA
ATOM      8  C   UNL d   1      60.513  48.184  51.502  0.00  0.00     0.050 A 
ATOM      9  C   UNL d   1      61.282  48.935  50.558  0.00  0.00     0.067 A 
ATOM     10  C   UNL d   1      60.784  48.912  51.215  0.00  0.00     0.105 A 
ATOM     11  O   UNL d   1      61.967  46.833  49.448  0.00  0.00    -0.286 OA
ATOM     12  O   UNL d   1      62.009  48.255  49.531  0.00  0.00    -0.286 OA
ENDROOT
BRANCH   3  13
ATOM     13  C   UNL d   1      61.427  45.388  50.021  0.00  0.00     0.005 A 
ATOM     14  C   UNL d   1      61.563  45.373  49.198  0.00  0.00     0.003 A 
ATOM     15  C   UNL d   1      61.792  44.674  48.828  0.00  0.00     0.042 A 
ATOM     16  C   UNL d   1      61.887  43.980  49.273  0.00  0.00     0.196 A 
ATOM     17  C   UNL d   1      61.751  43.996  50.095  0.00  0.00     0.042 A 
ATOM     18  O   UNL d   1      62.116  43.282  48.902  0.00  0.00    -0.287 OA
ATOM     19  C   UNL d   1      61.523  44.694  50.465  0.00  0.00     0.003 A 
ENDBRANCH   3  13
BRANCH  10  20
ATOM     20  O   UNL d   1      60.555  49.619  51.586  0.00  0.00    -0.307 OA
BRANCH  20  21
ATOM     21  C   UNL d   1      59.829  49.678  51.967  0.00  0.00     0.100 C 
ATOM     22  C   UNL d   1      59.130  49.708  51.527  0.00  0.00     0.027 C 
ATOM     23  C   UNL d   1      59.794  49.708  52.791  0.00  0.00     0.027 C 
ENDBRANCH  20  21
ENDBRANCH  10  20
TORSDOF 3
ENDMDL
MODEL 2
REMARK VINA RESULT:      90.7      0.682      1.493
REMARK  3 active torsions:
REMARK  status: ('A' for Active; 'I' for Inactive)
REMARK    1  A    between atoms: C_11  and  C_3 
REMARK    2  A    between atoms: O_13  and  C_10 
REMARK    3  A    between atoms: C_21  and  O_13 
ROOT
ATOM      1  C   UNL d   1      61.234  46.172  50.365  0.00  0.00     0.203 A 
ATOM      2  C   UNL d   1      61.152  46.970  50.556  0.00  0.00     0.101 A 
ATOM      3  C   UNL d   1      61.619  45.955  49.671  0.00  0.00     0.064 A 
ATOM      4  C   UNL d   1      61.456  47.548  50.053  0.00  0.00     0.108 A 
ATOM      5  C   UNL d   1      60.767  47.187  51.250  0.00  0.00     0.203 A 
ATOM      6  C   UNL d   1      61.923  46.534  49.168  0.00  0.00     0.126 A 
ATOM      7  O   UNL d   1      61.842  47.330  49.358  0.00  0.00    -0.305 OA
ATOM      8  C   UNL d   1      61.375  48.345  50.243  0.00  0.00     0.050 A 
ATOM      9  C   UNL d   1      60.684  47.987  51.444  0.00  0.00     0.067 A 
ATOM     10  C   UNL d   1      60.988  48.566  50.940  0.00  0.00     0.105 A 
ATOM     11  O   UNL d   1      60.930  45.594  50.868  0.00  0.00    -0.286 OA
ATOM     12  O   UNL d   1      60.463  46.609  51.753  0.00  0.00    -0.286 OA
ENDROOT
BRANCH   3  13
ATOM     13  C   UNL d   1      61.700  45.157  49.480  0.00  0.00     0.005 A 
ATOM     14  C   UNL d   1      62.362  44.726  49.749  0.00  0.00     0.003 A 
ATOM     15  C   UNL d   1      62.443  43.930  49.558  0.00  0.00     0.042 A 
ATOM     16  C   UNL d   1      61.867  43.552  49.097  0.00  0.00     0.196 A 
ATOM     17  C   UNL d   1      61.206  43.983  48.829  0.00  0.00     0.042 A 
ATOM     18  O   UNL d   1      61.949  42.755  48.907  0.00  0.00    -0.287 OA
ATOM     19  C   UNL d   1      61.124  44.780  49.020  0.00  0.00     0.003 A 
ENDBRANCH   3  13
BRANCH  10  20
ATOM     20  O   UNL d   1      60.904  49.369  51.136  0.00  0.00    -0.307 OA
BRANCH  20  21
ATOM     21  C   UNL d   1      60.560  49.594  51.849  0.00  0.00     0.100 C 
ATOM     22  C   UNL d   1      61.028  49.706  52.519  0.00  0.00     0.027 C 
ATOM     23  C   UNL d   1      59.744  49.708  51.896  0.00  0.00     0.027 C 
ENDBRANCH  20  21
ENDBRANCH  10  20
TORSDOF 3
ENDMDL
