MODEL 1
REMARK VINA RESULT:      -3.5      0.000      0.000
REMARK  4 active torsions:
REMARK  status: ('A' for Active; 'I' for Inactive)
REMARK    1  A    between atoms: N_4  and  C_8 
REMARK    2  A    between atoms: C_15  and  C_5 
REMARK    3  A    between atoms: O_17  and  C_15 
REMARK    4  A    between atoms: C_16  and  O_17 
ROOT
ATOM      1  C   UNL d   1      33.241  19.815 -21.719  0.00  0.00     0.144 C 
ENDROOT
BRANCH   1   2
ATOM      2  C   UNL d   1      32.967  20.575 -21.568  0.00  0.00     0.142 A 
ATOM      3  N   UNL d   1      32.364  20.776 -21.046  0.00  0.00    -0.057 NA
ATOM      4  C   UNL d   1      32.277  21.585 -21.070  0.00  0.00     0.735 A 
ATOM      5  N   UNL d   1      32.823  21.890 -21.607  0.00  0.00    -0.136 N 
ATOM      6  N   UNL d   1      31.768  22.100 -20.674  0.00  0.00    -0.059 NA
ATOM      7  C   UNL d   1      33.241  21.259 -21.905  0.00  0.00     0.120 A 
ATOM      8  C   UNL d   1      32.877  22.704 -21.761  0.00  0.00     0.100 A 
ATOM      9  C   UNL d   1      32.352  23.225 -21.350  0.00  0.00     0.041 A 
ATOM     10  C   UNL d   1      31.801  22.910 -20.808  0.00  0.00     0.119 A 
ENDBRANCH   1   2
BRANCH   1  11
ATOM     11  O   UNL d   1      33.071  19.443 -22.449  0.00  0.00    -0.303 OA
BRANCH  11  12
ATOM     12  C   UNL d   1      32.907  19.071 -23.172  0.00  0.00     0.102 A 
ATOM     13  C   UNL d   1      32.402  18.411 -23.201  0.00  0.00     0.048 A 
ATOM     14  C   UNL d   1      32.236  18.039 -23.915  0.00  0.00     0.129 A 
ATOM     15  C   UNL d   1      32.577  18.324 -24.620  0.00  0.00     0.024 A 
ATOM     16  C   UNL d   1      33.081  18.981 -24.593  0.00  0.00     0.004 A 
ATOM     17  C   UNL d   1      33.241  19.347 -23.874  0.00  0.00     0.025 A 
BRANCH  14  18
ATOM     18  N   UNL d   1      31.732  17.384 -23.927  0.00  0.00    -0.114 N 
ATOM     19  O   UNL d   1      30.916  17.499 -24.013  0.00  0.00    -0.532 OA
ATOM     20  O   UNL d   1      32.028  16.626 -23.855  0.00  0.00    -0.532 OA
ENDBRANCH  14  18
ENDBRANCH  11  12
ENDBRANCH   1  11
TORSDOF 4
ENDMDL
MODEL 2
REMARK VINA RESULT:      -3.0      2.468      5.128
REMARK  4 active torsions:
REMARK  status: ('A' for Active; 'I' for Inactive)
REMARK    1  A    between atoms: N_4  and  C_8 
REMARK    2  A    between atoms: C_15  and  C_5 
REMARK    3  A    between atoms: O_17  and  C_15 
REMARK    4  A    between atoms: C_16  and  O_17 
ROOT
ATOM      1  C   UNL d   1      31.932  16.274 -24.087  0.00  0.00     0.144 C 
ENDROOT
BRANCH   1   2
ATOM      2  C   UNL d   1      31.140  16.146 -23.914  0.00  0.00     0.142 A 
ATOM      3  N   UNL d   1      30.502  16.362 -24.386  0.00  0.00    -0.057 NA
ATOM      4  C   UNL d   1      29.822  16.129 -24.003  0.00  0.00     0.735 A 
ATOM      5  N   UNL d   1      30.033  15.768 -23.292  0.00  0.00    -0.136 N 
ATOM      6  N   UNL d   1      29.024  16.194 -24.201  0.00  0.00    -0.059 NA
ATOM      7  C   UNL d   1      30.846  15.785 -23.250  0.00  0.00     0.120 A 
ATOM      8  C   UNL d   1      29.464  15.467 -22.768  0.00  0.00     0.100 A 
ATOM      9  C   UNL d   1      28.648  15.538 -22.979  0.00  0.00     0.041 A 
ATOM     10  C   UNL d   1      28.440  15.905 -23.700  0.00  0.00     0.119 A 
ENDBRANCH   1   2
BRANCH   1  11
ATOM     11  O   UNL d   1      32.248  17.049 -24.072  0.00  0.00    -0.303 OA
BRANCH  11  12
ATOM     12  C   UNL d   1      32.560  17.817 -24.053  0.00  0.00     0.102 A 
ATOM     13  C   UNL d   1      32.677  18.206 -23.328  0.00  0.00     0.048 A 
ATOM     14  C   UNL d   1      32.986  18.967 -23.303  0.00  0.00     0.129 A 
ATOM     15  C   UNL d   1      33.186  19.356 -24.013  0.00  0.00     0.024 A 
ATOM     16  C   UNL d   1      33.070  18.970 -24.736  0.00  0.00     0.004 A 
ATOM     17  C   UNL d   1      32.760  18.209 -24.751  0.00  0.00     0.025 A 
BRANCH  14  18
ATOM     18  N   UNL d   1      33.096  19.340 -22.574  0.00  0.00    -0.114 N 
ATOM     19  O   UNL d   1      33.060  20.166 -22.529  0.00  0.00    -0.532 OA
ATOM     20  O   UNL d   1      33.241  18.904 -21.898  0.00  0.00    -0.532 OA
ENDBRANCH  14  18
ENDBRANCH  11  12
ENDBRANCH   1  11
TORSDOF 4
ENDMDL
MODEL 3
REMARK VINA RESULT:      -2.8      1.458      4.763
REMARK  4 active torsions:
REMARK  status: ('A' for Active; 'I' for Inactive)
REMARK    1  A    between atoms: N_4  and  C_8 
REMARK    2  A    between atoms: C_15  and  C_5 
REMARK    3  A    between atoms: O_17  and  C_15 
REMARK    4  A    between atoms: C_16  and  O_17 
ROOT
ATOM      1  C   UNL d   1      33.241  19.600 -23.646  0.00  0.00     0.144 C 
ENDROOT
BRANCH   1   2
ATOM      2  C   UNL d   1      32.876  18.876 -23.778  0.00  0.00     0.142 A 
ATOM      3  N   UNL d   1      32.122  18.765 -24.086  0.00  0.00    -0.057 NA
ATOM      4  C   UNL d   1      31.986  17.963 -24.121  0.00  0.00     0.735 A 
ATOM      5  N   UNL d   1      32.654  17.572 -23.836  0.00  0.00    -0.136 N 
ATOM      6  N   UNL d   1      31.338  17.521 -24.377  0.00  0.00    -0.059 NA
ATOM      7  C   UNL d   1      33.193  18.146 -23.628  0.00  0.00     0.120 A 
ATOM      8  C   UNL d   1      32.694  16.744 -23.798  0.00  0.00     0.100 A 
ATOM      9  C   UNL d   1      32.025  16.298 -24.062  0.00  0.00     0.041 A 
ATOM     10  C   UNL d   1      31.351  16.699 -24.350  0.00  0.00     0.119 A 
ENDBRANCH   1   2
BRANCH   1  11
ATOM     11  O   UNL d   1      33.164  19.983 -22.906  0.00  0.00    -0.303 OA
BRANCH  11  12
ATOM     12  C   UNL d   1      33.087  20.359 -22.171  0.00  0.00     0.102 A 
ATOM     13  C   UNL d   1      32.856  21.157 -22.128  0.00  0.00     0.048 A 
ATOM     14  C   UNL d   1      32.778  21.535 -21.402  0.00  0.00     0.129 A 
ATOM     15  C   UNL d   1      32.932  21.115 -20.698  0.00  0.00     0.024 A 
ATOM     16  C   UNL d   1      33.163  20.321 -20.739  0.00  0.00     0.004 A 
ATOM     17  C   UNL d   1      33.238  19.952 -21.470  0.00  0.00     0.025 A 
BRANCH  14  18
ATOM     18  N   UNL d   1      32.547  22.327 -21.377  0.00  0.00    -0.114 N 
ATOM     19  O   UNL d   1      31.769  22.519 -21.169  0.00  0.00    -0.532 OA
ATOM     20  O   UNL d   1      33.077  22.924 -21.553  0.00  0.00    -0.532 OA
ENDBRANCH  14  18
ENDBRANCH  11  12
ENDBRANCH   1  11
TORSDOF 4
ENDMDL
MODEL 4
REMARK VINA RESULT:      -2.7      2.813      5.347
REMARK  4 active torsions:
REMARK  status: ('A' for Active; 'I' for Inactive)
REMARK    1  A    between atoms: N_4  and  C_8 
REMARK    2  A    between atoms: C_15  and  C_5 
REMARK    3  A    between atoms: O_17  and  C_15 
REMARK    4  A    between atoms: C_16  and  O_17 
ROOT
ATOM      1  C   UNL d   1      30.332  17.665 -24.866  0.00  0.00     0.144 C 
ENDROOT
BRANCH   1   2
ATOM      2  C   UNL d   1      29.706  17.224 -24.569  0.00  0.00     0.142 A 
ATOM      3  N   UNL d   1      29.170  17.473 -23.997  0.00  0.00    -0.057 NA
ATOM      4  C   UNL d   1      28.645  16.863 -23.869  0.00  0.00     0.735 A 
ATOM      5  N   UNL d   1      28.852  16.234 -24.360  0.00  0.00    -0.136 N 
ATOM      6  N   UNL d   1      27.995  16.787 -23.367  0.00  0.00    -0.059 NA
ATOM      7  C   UNL d   1      29.506  16.469 -24.784  0.00  0.00     0.120 A 
ATOM      8  C   UNL d   1      28.425  15.522 -24.364  0.00  0.00     0.100 A 
ATOM      9  C   UNL d   1      27.759  15.453 -23.846  0.00  0.00     0.041 A 
ATOM     10  C   UNL d   1      27.554  16.093 -23.351  0.00  0.00     0.119 A 
ENDBRANCH   1   2
BRANCH   1  11
ATOM     11  O   UNL d   1      31.062  17.690 -24.459  0.00  0.00    -0.303 OA
BRANCH  11  12
ATOM     12  C   UNL d   1      31.787  17.718 -24.057  0.00  0.00     0.102 A 
ATOM     13  C   UNL d   1      32.080  18.441 -23.769  0.00  0.00     0.048 A 
ATOM     14  C   UNL d   1      32.799  18.475 -23.370  0.00  0.00     0.129 A 
ATOM     15  C   UNL d   1      33.241  17.778 -23.252  0.00  0.00     0.024 A 
ATOM     16  C   UNL d   1      32.951  17.058 -23.539  0.00  0.00     0.004 A 
ATOM     17  C   UNL d   1      32.231  17.033 -23.937  0.00  0.00     0.025 A 
BRANCH  14  18
ATOM     18  N   UNL d   1      33.076  19.201 -23.089  0.00  0.00    -0.114 N 
ATOM     19  O   UNL d   1      33.207  19.821 -23.622  0.00  0.00    -0.532 OA
ATOM     20  O   UNL d   1      33.223  19.313 -22.293  0.00  0.00    -0.532 OA
ENDBRANCH  14  18
ENDBRANCH  11  12
ENDBRANCH   1  11
TORSDOF 4
ENDMDL
MODEL 5
REMARK VINA RESULT:      -2.6      1.626      2.670
REMARK  4 active torsions:
REMARK  status: ('A' for Active; 'I' for Inactive)
REMARK    1  A    between atoms: N_4  and  C_8 
REMARK    2  A    between atoms: C_15  and  C_5 
REMARK    3  A    between atoms: O_17  and  C_15 
REMARK    4  A    between atoms: C_16  and  O_17 
ROOT
ATOM      1  C   UNL d   1      32.917  18.397 -24.022  0.00  0.00     0.144 C 
ENDROOT
BRANCH   1   2
ATOM      2  C   UNL d   1      32.981  18.957 -23.425  0.00  0.00     0.142 A 
ATOM      3  N   UNL d   1      32.941  19.773 -23.522  0.00  0.00    -0.057 NA
ATOM      4  C   UNL d   1      33.031  20.113 -22.789  0.00  0.00     0.735 A 
ATOM      5  N   UNL d   1      33.128  19.513 -22.232  0.00  0.00    -0.136 N 
ATOM      6  N   UNL d   1      33.039  20.900 -22.539  0.00  0.00    -0.059 NA
ATOM      7  C   UNL d   1      33.095  18.807 -22.637  0.00  0.00     0.120 A 
ATOM      8  C   UNL d   1      33.234  19.676 -21.425  0.00  0.00     0.100 A 
ATOM      9  C   UNL d   1      33.241  20.485 -21.178  0.00  0.00     0.041 A 
ATOM     10  C   UNL d   1      33.143  21.090 -21.746  0.00  0.00     0.119 A 
ENDBRANCH   1   2
BRANCH   1  11
ATOM     11  O   UNL d   1      32.313  17.818 -23.995  0.00  0.00    -0.303 OA
BRANCH  11  12
ATOM     12  C   UNL d   1      31.712  17.248 -23.968  0.00  0.00     0.102 A 
ATOM     13  C   UNL d   1      30.973  17.398 -24.318  0.00  0.00     0.048 A 
ATOM     14  C   UNL d   1      30.374  16.836 -24.295  0.00  0.00     0.129 A 
ATOM     15  C   UNL d   1      30.505  16.106 -23.915  0.00  0.00     0.024 A 
ATOM     16  C   UNL d   1      31.240  15.954 -23.565  0.00  0.00     0.004 A 
ATOM     17  C   UNL d   1      31.834  16.522 -23.594  0.00  0.00     0.025 A 
BRANCH  14  18
ATOM     18  N   UNL d   1      29.645  17.001 -24.648  0.00  0.00    -0.114 N 
ATOM     19  O   UNL d   1      29.264  16.413 -25.090  0.00  0.00    -0.532 OA
ATOM     20  O   UNL d   1      29.296  17.735 -24.566  0.00  0.00    -0.532 OA
ENDBRANCH  14  18
ENDBRANCH  11  12
ENDBRANCH   1  11
TORSDOF 4
ENDMDL
MODEL 6
REMARK VINA RESULT:      -1.0      1.967      4.623
REMARK  4 active torsions:
REMARK  status: ('A' for Active; 'I' for Inactive)
REMARK    1  A    between atoms: N_4  and  C_8 
REMARK    2  A    between atoms: C_15  and  C_5 
REMARK    3  A    between atoms: O_17  and  C_15 
REMARK    4  A    between atoms: C_16  and  O_17 
ROOT
ATOM      1  C   UNL d   1      33.236  21.214 -23.582  0.00  0.00     0.144 C 
ENDROOT
BRANCH   1   2
ATOM      2  C   UNL d   1      33.094  20.409 -23.506  0.00  0.00     0.142 A 
ATOM      3  N   UNL d   1      33.241  19.954 -22.837  0.00  0.00    -0.057 NA
ATOM      4  C   UNL d   1      33.018  19.189 -23.006  0.00  0.00     0.735 A 
ATOM      5  N   UNL d   1      32.732  19.165 -23.779  0.00  0.00    -0.136 N 
ATOM      6  N   UNL d   1      33.034  18.496 -22.559  0.00  0.00    -0.059 NA
ATOM      7  C   UNL d   1      32.784  19.922 -24.074  0.00  0.00     0.120 A 
ATOM      8  C   UNL d   1      32.458  18.461 -24.123  0.00  0.00     0.100 A 
ATOM      9  C   UNL d   1      32.478  17.754 -23.658  0.00  0.00     0.041 A 
ATOM     10  C   UNL d   1      32.769  17.785 -22.875  0.00  0.00     0.119 A 
ENDBRANCH   1   2
BRANCH   1  11
ATOM     11  O   UNL d   1      32.975  21.747 -22.992  0.00  0.00    -0.303 OA
BRANCH  11  12
ATOM     12  C   UNL d   1      32.712  22.272 -22.406  0.00  0.00     0.102 A 
ATOM     13  C   UNL d   1      32.798  22.082 -21.601  0.00  0.00     0.048 A 
ATOM     14  C   UNL d   1      32.539  22.599 -21.016  0.00  0.00     0.129 A 
ATOM     15  C   UNL d   1      32.187  23.324 -21.230  0.00  0.00     0.024 A 
ATOM     16  C   UNL d   1      32.100  23.515 -22.031  0.00  0.00     0.004 A 
ATOM     17  C   UNL d   1      32.362  22.991 -22.609  0.00  0.00     0.025 A 
BRANCH  14  18
ATOM     18  N   UNL d   1      32.632  22.396 -20.221  0.00  0.00    -0.114 N 
ATOM     19  O   UNL d   1      33.218  22.768 -19.770  0.00  0.00    -0.532 OA
ATOM     20  O   UNL d   1      32.152  21.833 -19.874  0.00  0.00    -0.532 OA
ENDBRANCH  14  18
ENDBRANCH  11  12
ENDBRANCH   1  11
TORSDOF 4
ENDMDL
