MODEL 1
REMARK VINA RESULT:      58.3      0.000      0.000
REMARK  6 active torsions:
REMARK  status: ('A' for Active; 'I' for Inactive)
REMARK    1  A    between atoms: N_6  and  C_1 
REMARK    2  A    between atoms: C_7  and  C_2 
REMARK       I    between atoms: C_8  and  N_6 
REMARK    3  A    between atoms: O_14  and  C_7 
REMARK    4  A    between atoms: C_10  and  C_8 
REMARK    5  A    between atoms: N_9  and  C_10 
REMARK    6  A    between atoms: C_21  and  O_14 
ROOT
ATOM      1  C   UNL d   1     -50.406  26.280  33.472  0.00  0.00     0.119 A 
ATOM      2  C   UNL d   1     -51.183  26.004  33.506  0.00  0.00     0.088 A 
ATOM      3  S   UNL d   1     -49.904  25.647  33.394  0.00  0.00    -0.068 SA
ATOM      4  C   UNL d   1     -51.154  25.190  33.447  0.00  0.00     0.013 A 
ATOM      5  C   UNL d   1     -50.358  24.967  33.377  0.00  0.00     0.031 A 
ATOM      6  C   UNL d   1     -51.733  24.599  33.445  0.00  0.00     0.001 A 
ATOM      7  C   UNL d   1     -50.150  24.156  33.306  0.00  0.00     0.006 A 
ATOM      8  C   UNL d   1     -51.545  23.815  33.377  0.00  0.00     0.000 A 
ATOM      9  C   UNL d   1     -50.749  23.592  33.307  0.00  0.00     0.001 A 
ENDROOT
BRANCH   1  10
ATOM     10  N   UNL d   1     -50.181  27.072  33.512  0.00  0.00    -0.200 NA
ATOM     11  C   UNL d   1     -49.481  27.300  33.884  0.00  0.00     0.297 C 
ATOM     12  O   UNL d   1     -49.014  26.705  34.213  0.00  0.00    -0.264 OA
BRANCH  11  13
ATOM     13  C   UNL d   1     -49.273  28.098  33.913  0.00  0.00     0.144 C 
BRANCH  13  14
ATOM     14  N   UNL d   1     -48.835  28.351  34.569  0.00  0.00    -0.295 N 
ATOM     15  C   UNL d   1     -49.178  28.295  35.322  0.00  0.00     0.107 A 
ATOM     16  C   UNL d   1     -48.747  28.545  35.980  0.00  0.00     0.142 A 
ATOM     17  O   UNL d   1     -47.997  28.845  35.901  0.00  0.00    -0.300 OA
ATOM     18  C   UNL d   1     -47.654  28.901  35.148  0.00  0.00     0.142 A 
ATOM     19  C   UNL d   1     -48.074  28.656  34.501  0.00  0.00     0.107 A 
ENDBRANCH  13  14
ENDBRANCH  11  13
ENDBRANCH   1  10
BRANCH   2  20
ATOM     20  C   UNL d   1     -51.880  26.459  33.585  0.00  0.00     0.302 C 
ATOM     21  O   UNL d   1     -52.545  26.112  33.951  0.00  0.00    -0.259 OA
BRANCH  20  22
ATOM     22  O   UNL d   1     -51.901  27.228  33.306  0.00  0.00    -0.271 OA
BRANCH  22  23
ATOM     23  C   UNL d   1     -52.445  27.762  33.602  0.00  0.00     0.126 C 
ATOM     24  C   UNL d   1     -52.469  28.529  33.307  0.00  0.00     0.029 C 
ENDBRANCH  22  23
ENDBRANCH  20  22
ENDBRANCH   2  20
TORSDOF 6
ENDMDL
MODEL 2
REMARK VINA RESULT:      59.2      1.145      2.318
REMARK  6 active torsions:
REMARK  status: ('A' for Active; 'I' for Inactive)
REMARK    1  A    between atoms: N_6  and  C_1 
REMARK    2  A    between atoms: C_7  and  C_2 
REMARK       I    between atoms: C_8  and  N_6 
REMARK    3  A    between atoms: O_14  and  C_7 
REMARK    4  A    between atoms: C_10  and  C_8 
REMARK    5  A    between atoms: N_9  and  C_10 
REMARK    6  A    between atoms: C_21  and  O_14 
ROOT
ATOM      1  C   UNL d   1     -50.317  26.391  33.678  0.00  0.00     0.119 A 
ATOM      2  C   UNL d   1     -50.580  25.625  33.523  0.00  0.00     0.088 A 
ATOM      3  S   UNL d   1     -50.959  26.886  33.723  0.00  0.00    -0.068 SA
ATOM      4  C   UNL d   1     -51.396  25.653  33.472  0.00  0.00     0.013 A 
ATOM      5  C   UNL d   1     -51.631  26.439  33.597  0.00  0.00     0.031 A 
ATOM      6  C   UNL d   1     -51.977  25.082  33.331  0.00  0.00     0.001 A 
ATOM      7  C   UNL d   1     -52.446  26.644  33.578  0.00  0.00     0.006 A 
ATOM      8  C   UNL d   1     -52.764  25.268  33.310  0.00  0.00     0.000 A 
ATOM      9  C   UNL d   1     -53.000  26.054  33.434  0.00  0.00     0.001 A 
ENDROOT
BRANCH   1  10
ATOM     10  N   UNL d   1     -49.528  26.613  33.772  0.00  0.00    -0.200 NA
ATOM     11  C   UNL d   1     -49.324  27.366  34.039  0.00  0.00     0.297 C 
ATOM     12  O   UNL d   1     -49.939  27.889  34.208  0.00  0.00    -0.264 OA
BRANCH  11  13
ATOM     13  C   UNL d   1     -48.529  27.569  34.126  0.00  0.00     0.144 C 
BRANCH  13  14
ATOM     14  N   UNL d   1     -48.353  28.197  34.635  0.00  0.00    -0.295 N 
ATOM     15  C   UNL d   1     -48.201  28.031  35.434  0.00  0.00     0.107 A 
ATOM     16  C   UNL d   1     -48.024  28.653  35.947  0.00  0.00     0.142 A 
ATOM     17  O   UNL d   1     -47.996  29.420  35.683  0.00  0.00    -0.300 OA
ATOM     18  C   UNL d   1     -48.148  29.586  34.884  0.00  0.00     0.142 A 
ATOM     19  C   UNL d   1     -48.321  28.978  34.379  0.00  0.00     0.107 A 
ENDBRANCH  13  14
ENDBRANCH  11  13
ENDBRANCH   1  10
BRANCH   2  20
ATOM     20  C   UNL d   1     -50.114  24.936  33.432  0.00  0.00     0.302 C 
ATOM     21  O   UNL d   1     -49.284  25.007  33.470  0.00  0.00    -0.259 OA
BRANCH  20  22
ATOM     22  O   UNL d   1     -50.475  24.212  33.308  0.00  0.00    -0.271 OA
BRANCH  22  23
ATOM     23  C   UNL d   1     -50.042  23.520  33.355  0.00  0.00     0.126 C 
ATOM     24  C   UNL d   1     -49.502  23.414  33.966  0.00  0.00     0.029 C 
ENDBRANCH  22  23
ENDBRANCH  20  22
ENDBRANCH   2  20
TORSDOF 6
ENDMDL
