MODEL 1
REMARK VINA RESULT:      -0.8      0.000      0.000
REMARK  2 active torsions:
REMARK  status: ('A' for Active; 'I' for Inactive)
REMARK    1  A    between atoms: N_10  and  C_5 
REMARK    2  A    between atoms: C_22  and  N_12 
ROOT
ATOM      1  N   UNL d   1     -41.874-122.559 -52.727  0.00  0.00    -0.175 N 
ATOM      2  C   UNL d   1     -41.671-121.758 -52.816  0.00  0.00     0.167 A 
ATOM      3  N   UNL d   1     -41.901-122.911 -51.970  0.00  0.00    -0.143 NA
ATOM      4  C   UNL d   1     -42.054-123.030 -53.387  0.00  0.00     0.283 A 
ATOM      5  C   UNL d   1     -41.720-122.440 -51.310  0.00  0.00     0.168 A 
ATOM      6  N   UNL d   1     -41.651-121.434 -53.565  0.00  0.00    -0.227 NA
ATOM      7  C   UNL d   1     -42.027-122.678 -54.139  0.00  0.00     0.076 A 
ATOM      8  C   UNL d   1     -41.497-121.315 -52.147  0.00  0.00     0.039 A 
ATOM      9  C   UNL d   1     -41.518-121.639 -51.399  0.00  0.00     0.039 A 
ATOM     10  C   UNL d   1     -41.824-121.877 -54.228  0.00  0.00     0.088 A 
ATOM     11  O   UNL d   1     -42.251-123.808 -53.301  0.00  0.00    -0.265 OA
ATOM     12  C   UNL d   1     -42.207-123.148 -54.798  0.00  0.00     0.006 A 
ATOM     13  C   UNL d   1     -41.294-120.514 -52.237  0.00  0.00     0.003 A 
ATOM     14  C   UNL d   1     -41.344-121.196 -50.737  0.00  0.00     0.003 A 
ATOM     15  C   UNL d   1     -41.804-121.552 -54.976  0.00  0.00     0.019 A 
ATOM     16  C   UNL d   1     -42.180-122.796 -55.549  0.00  0.00     0.000 A 
ATOM     17  C   UNL d   1     -41.123-120.078 -51.573  0.00  0.00     0.000 A 
ATOM     18  C   UNL d   1     -41.142-120.395 -50.826  0.00  0.00     0.000 A 
ATOM     19  C   UNL d   1     -41.977-121.995 -55.639  0.00  0.00     0.002 A 
ENDROOT
BRANCH   5  20
ATOM     20  N   UNL d   1     -41.748-122.792 -50.559  0.00  0.00    -0.285 N 
ATOM     21  C   UNL d   1     -41.125-123.223 -50.279  0.00  0.00     0.101 A 
ATOM     22  C   UNL d   1     -41.171-123.563 -49.536  0.00  0.00     0.100 A 
ATOM     23  N   UNL d   1     -41.839-123.472 -49.073  0.00  0.00    -0.300 N 
ATOM     24  C   UNL d   1     -42.462-123.041 -49.352  0.00  0.00     0.100 A 
ATOM     25  C   UNL d   1     -42.434-122.689 -50.103  0.00  0.00     0.101 A 
BRANCH  23  26
ATOM     26  C   UNL d   1     -41.885-123.812 -48.328  0.00  0.00     0.080 C 
ATOM     27  C   UNL d   1     -41.651-123.378 -47.667  0.00  0.00     0.021 C 
ENDBRANCH  23  26
ENDBRANCH   5  20
TORSDOF 2
ENDMDL
