MODEL 1
REMARK VINA RESULT:      33.9      0.000      0.000
REMARK  6 active torsions:
REMARK  status: ('A' for Active; 'I' for Inactive)
REMARK    1  A    between atoms: S_11  and  C_2 
REMARK    2  A    between atoms: C_5  and  N_8 
REMARK       I    between atoms: N_8  and  C_13 
REMARK    3  A    between atoms: C_17  and  C_10 
REMARK    4  A    between atoms: C_16  and  S_11 
REMARK    5  A    between atoms: C_13  and  C_16 
REMARK    6  A    between atoms: C_18  and  C_17 
ROOT
ATOM      1  C   UNL d   1      13.056  12.385  -3.326  0.00  0.00     0.197 A 
ATOM      2  N   UNL d   1      13.153  11.877  -3.970  0.00  0.00    -0.219 NA
ATOM      3  S   UNL d   1      12.976  13.152  -3.630  0.00  0.00    -0.047 SA
ATOM      4  C   UNL d   1      13.023  13.115  -4.446  0.00  0.00     0.051 A 
ATOM      5  C   UNL d   1      13.133  12.324  -4.656  0.00  0.00     0.108 A 
ENDROOT
BRANCH   1   6
ATOM      6  N   UNL d   1      13.041  12.174  -2.532  0.00  0.00    -0.182 NA
ATOM      7  C   UNL d   1      13.743  11.995  -2.138  0.00  0.00     0.288 C 
ATOM      8  O   UNL d   1      14.465  12.029  -2.545  0.00  0.00    -0.265 OA
BRANCH   7   9
ATOM      9  C   UNL d   1      13.736  11.781  -1.343  0.00  0.00     0.101 C 
BRANCH   9  10
ATOM     10  S   UNL d   1      14.409  11.865  -0.886  0.00  0.00    -0.041 SA
BRANCH  10  11
ATOM     11  C   UNL d   1      14.617  12.608  -0.584  0.00  0.00     0.219 A 
ATOM     12  N   UNL d   1      15.383  12.900  -0.509  0.00  0.00    -0.167 N 
ATOM     13  C   UNL d   1      15.336  13.651  -0.186  0.00  0.00     0.189 A 
ATOM     14  N   UNL d   1      16.075  12.504  -0.722  0.00  0.00    -0.038 N 
ATOM     15  N   UNL d   1      14.537  13.827  -0.060  0.00  0.00    -0.126 NA
ATOM     16  C   UNL d   1      15.974  14.152  -0.014  0.00  0.00     0.044 C 
ATOM     17  N   UNL d   1      14.098  13.182  -0.306  0.00  0.00    -0.120 NA
ENDBRANCH  10  11
ENDBRANCH   9  10
ENDBRANCH   7   9
ENDBRANCH   1   6
BRANCH   4  18
ATOM     18  C   UNL d   1      12.971  13.755  -4.964  0.00  0.00     0.008 C 
BRANCH  18  19
ATOM     19  C   UNL d   1      13.409  14.435  -4.816  0.00  0.00     0.001 A 
ATOM     20  C   UNL d   1      13.893  14.753  -5.406  0.00  0.00     0.002 A 
ATOM     21  C   UNL d   1      14.331  15.433  -5.258  0.00  0.00     0.030 A 
ATOM     22  C   UNL d   1      14.289  15.801  -4.517  0.00  0.00     0.140 A 
ATOM     23  C   UNL d   1      13.808  15.487  -3.928  0.00  0.00     0.030 A 
ATOM     24  F   UNL d   1      14.727  16.480  -4.372  0.00  0.00    -0.204 F 
ATOM     25  C   UNL d   1      13.366  14.803  -4.074  0.00  0.00     0.002 A 
ENDBRANCH  18  19
ENDBRANCH   4  18
TORSDOF 6
ENDMDL
