MODEL 1
REMARK VINA RESULT:       9.9      0.000      0.000
REMARK  3 active torsions:
REMARK  status: ('A' for Active; 'I' for Inactive)
REMARK       I    between atoms: C_4  and  N_1 
REMARK    1  A    between atoms: C_2  and  S_8 
REMARK    2  A    between atoms: C_10  and  C_4 
REMARK    3  A    between atoms: S_8  and  C_10 
ROOT
ATOM      1  N   UNL d   1      46.240 -17.916  43.526  0.00  0.00    -0.274 N 
ATOM      2  C   UNL d   1      46.361 -18.733  43.535  0.00  0.00     0.067 A 
ATOM      3  C   UNL d   1      46.076 -17.433  44.188  0.00  0.00     0.259 C 
ATOM      4  C   UNL d   1      46.310 -17.652  42.740  0.00  0.00     0.083 A 
ATOM      5  C   UNL d   1      46.505 -18.980  42.761  0.00  0.00     0.018 A 
ATOM      6  O   UNL d   1      46.020 -17.766  44.951  0.00  0.00    -0.267 OA
ATOM      7  C   UNL d   1      46.473 -18.313  42.278  0.00  0.00     0.021 A 
ATOM      8  C   UNL d   1      46.358 -19.284  44.148  0.00  0.00     0.018 A 
ATOM      9  C   UNL d   1      46.646 -19.769  42.596  0.00  0.00     0.002 A 
ATOM     10  C   UNL d   1      46.497 -20.073  43.997  0.00  0.00     0.002 A 
ATOM     11  C   UNL d   1      46.643 -20.330  43.219  0.00  0.00     0.000 A 
ENDROOT
BRANCH   3  12
ATOM     12  C   UNL d   1      45.967 -16.610  44.091  0.00  0.00     0.127 C 
BRANCH  12  13
ATOM     13  S   UNL d   1      45.613 -16.168  44.689  0.00  0.00    -0.069 SA
BRANCH  13  14
ATOM     14  C   UNL d   1      45.701 -15.343  44.697  0.00  0.00     0.140 A 
ATOM     15  N   UNL d   1      46.359 -14.843  44.600  0.00  0.00    -0.230 NA
ATOM     16  C   UNL d   1      46.090 -14.065  44.667  0.00  0.00     0.107 A 
ATOM     17  C   UNL d   1      45.285 -14.070  44.802  0.00  0.00     0.058 A 
ATOM     18  S   UNL d   1      45.035 -14.857  44.822  0.00  0.00    -0.059 SA
ENDBRANCH  13  14
ENDBRANCH  12  13
ENDBRANCH   3  12
TORSDOF 3
ENDMDL
