MODEL 1
REMARK VINA RESULT:      -3.8      0.000      0.000
REMARK  4 active torsions:
REMARK  status: ('A' for Active; 'I' for Inactive)
REMARK    1  A    between atoms: C_2  and  S_1 
REMARK    2  A    between atoms: N_3  and  S_1 
REMARK    3  A    between atoms: C_7  and  C_14 
REMARK       I    between atoms: N_9  and  C_7 
REMARK    4  A    between atoms: C_13  and  N_10 
ROOT
ATOM      1  N   UNL d   1      58.971  -1.976  29.583  0.00  0.00    -0.229 N 
ATOM      2  C   UNL d   1      58.097  -0.683  30.154  0.00  0.00     0.060 A 
ATOM      3  C   UNL d   1      59.365  -1.294  29.834  0.00  0.00     0.092 A 
ATOM      4  C   UNL d   1      58.149  -2.007  29.618  0.00  0.00     0.092 A 
ATOM      5  C   UNL d   1      57.716  -1.368  29.901  0.00  0.00     0.025 A 
ATOM      6  C   UNL d   1      58.923  -0.640  30.123  0.00  0.00     0.025 A 
ENDROOT
BRANCH   2   7
ATOM      7  C   UNL d   1      57.663  -0.042  30.438  0.00  0.00     0.265 C 
ATOM      8  N   UNL d   1      57.207  -0.112  31.103  0.00  0.00    -0.269 N 
ATOM      9  C   UNL d   1      57.171  -0.836  31.511  0.00  0.00     0.102 A 
ATOM     10  C   UNL d   1      56.774   0.528  31.385  0.00  0.00     0.102 A 
ATOM     11  C   UNL d   1      56.710  -0.916  32.190  0.00  0.00     0.100 A 
ATOM     12  N   UNL d   1      56.275  -0.264  32.469  0.00  0.00    -0.301 N 
ATOM     13  C   UNL d   1      56.311   0.461  32.061  0.00  0.00     0.100 A 
ATOM     14  O   UNL d   1      57.699   0.681  30.030  0.00  0.00    -0.267 OA
BRANCH  12  15
ATOM     15  C   UNL d   1      55.753   0.080  33.021  0.00  0.00     0.064 A 
ATOM     16  C   UNL d   1      55.049   0.486  33.170  0.00  0.00     0.020 A 
ATOM     17  C   UNL d   1      54.843   0.678  33.952  0.00  0.00     0.031 A 
ATOM     18  C   UNL d   1      55.353   0.456  34.573  0.00  0.00     0.140 A 
ATOM     19  C   UNL d   1      56.054   0.052  34.419  0.00  0.00     0.031 A 
ATOM     20  F   UNL d   1      55.152   0.647  35.369  0.00  0.00    -0.204 F 
ATOM     21  C   UNL d   1      56.253  -0.137  33.634  0.00  0.00     0.020 A 
ENDBRANCH  12  15
ENDBRANCH   2   7
BRANCH   1  22
ATOM     22  S   UNL d   1      59.405  -2.616  29.300  0.00  0.00     0.275 S 
ATOM     23  O   UNL d   1      58.846  -3.131  29.637  0.00  0.00    -0.199 OA
ATOM     24  O   UNL d   1      59.959  -2.086  28.965  0.00  0.00    -0.199 OA
BRANCH  22  25
ATOM     25  C   UNL d   1      59.843  -3.262  29.014  0.00  0.00     0.148 A 
ATOM     26  C   UNL d   1      59.614  -3.984  28.695  0.00  0.00     0.139 A 
ATOM     27  O   UNL d   1      60.293  -4.407  28.507  0.00  0.00    -0.210 OA
ATOM     28  C   UNL d   1      58.832  -4.233  28.587  0.00  0.00     0.030 C 
ATOM     29  N   UNL d   1      60.950  -3.949  28.708  0.00  0.00    -0.126 NA
ATOM     30  C   UNL d   1      60.665  -3.230  29.026  0.00  0.00     0.122 A 
ATOM     31  C   UNL d   1      61.130  -2.602  29.303  0.00  0.00     0.024 C 
ENDBRANCH  22  25
ENDBRANCH   1  22
TORSDOF 4
ENDMDL
