MODEL 1
REMARK VINA RESULT:      -7.9      0.000      0.000
REMARK  4 active torsions:
REMARK  status: ('A' for Active; 'I' for Inactive)
REMARK    1  A    between atoms: C_9  and  C_3 
REMARK    2  A    between atoms: N_10  and  C_9 
REMARK    3  A    between atoms: C_19  and  C_9 
REMARK    4  A    between atoms: C_12  and  N_11 
ROOT
ATOM      1  C   UNL d   1      51.911  33.928  53.157  0.00  0.00     0.075 C 
ENDROOT
BRANCH   1   2
ATOM      2  C   UNL d   1      51.218  34.108  52.743  0.00  0.00     0.106 A 
ATOM      3  C   UNL d   1      51.153  34.210  51.917  0.00  0.00     0.289 A 
ATOM      4  N   UNL d   1      50.365  34.383  51.743  0.00  0.00    -0.169 N 
ATOM      5  O   UNL d   1      51.772  34.148  51.371  0.00  0.00    -0.265 OA
ATOM      6  C   UNL d   1      49.942  34.389  52.453  0.00  0.00     0.200 A 
ATOM      7  N   UNL d   1      49.838  34.551  51.135  0.00  0.00    -0.141 NA
ATOM      8  S   UNL d   1      50.464  34.220  53.068  0.00  0.00    -0.042 SA
ATOM      9  N   UNL d   1      49.155  34.561  52.279  0.00  0.00    -0.200 NA
ATOM     10  C   UNL d   1      49.088  34.662  51.463  0.00  0.00     0.184 A 
ATOM     11  C   UNL d   1      48.399  34.842  51.042  0.00  0.00     0.044 C 
ENDBRANCH   1   2
BRANCH   1  12
ATOM     12  N   UNL d   1      52.157  33.143  53.210  0.00  0.00    -0.301 N 
ATOM     13  C   UNL d   1      51.706  32.590  53.616  0.00  0.00     0.100 A 
ATOM     14  C   UNL d   1      51.959  31.803  53.665  0.00  0.00     0.100 A 
ATOM     15  N   UNL d   1      52.667  31.561  53.309  0.00  0.00    -0.299 N 
ATOM     16  C   UNL d   1      53.112  32.124  52.904  0.00  0.00     0.100 A 
ATOM     17  C   UNL d   1      52.865  32.913  52.850  0.00  0.00     0.100 A 
BRANCH  15  18
ATOM     18  C   UNL d   1      52.907  30.786  53.363  0.00  0.00     0.092 A 
ATOM     19  C   UNL d   1      53.413  30.537  53.954  0.00  0.00     0.156 A 
ATOM     20  F   UNL d   1      53.689  31.095  54.513  0.00  0.00    -0.203 F 
ATOM     21  C   UNL d   1      53.651  29.751  54.001  0.00  0.00     0.031 A 
ATOM     22  C   UNL d   1      53.375  29.209  53.447  0.00  0.00     0.002 A 
ATOM     23  C   UNL d   1      52.869  29.457  52.855  0.00  0.00     0.002 A 
ATOM     24  C   UNL d   1      52.632  30.237  52.808  0.00  0.00     0.020 A 
ENDBRANCH  15  18
ENDBRANCH   1  12
BRANCH   1  25
ATOM     25  C   UNL d   1      52.346  34.528  53.511  0.00  0.00     0.017 A 
ATOM     26  C   UNL d   1      52.945  34.895  53.098  0.00  0.00     0.002 A 
ATOM     27  C   UNL d   1      53.368  35.483  53.453  0.00  0.00     0.000 A 
ATOM     28  C   UNL d   1      53.200  35.722  54.240  0.00  0.00     0.000 A 
ATOM     29  C   UNL d   1      52.606  35.355  54.642  0.00  0.00     0.000 A 
ATOM     30  C   UNL d   1      52.165  34.750  54.289  0.00  0.00     0.002 A 
ENDBRANCH   1  25
TORSDOF 4
ENDMDL
MODEL 2
REMARK VINA RESULT:      -7.5      1.502      4.460
REMARK  4 active torsions:
REMARK  status: ('A' for Active; 'I' for Inactive)
REMARK    1  A    between atoms: C_9  and  C_3 
REMARK    2  A    between atoms: N_10  and  C_9 
REMARK    3  A    between atoms: C_19  and  C_9 
REMARK    4  A    between atoms: C_12  and  N_11 
ROOT
ATOM      1  C   UNL d   1      52.003  33.638  53.292  0.00  0.00     0.075 C 
ENDROOT
BRANCH   1   2
ATOM      2  C   UNL d   1      52.216  32.841  53.226  0.00  0.00     0.106 A 
ATOM      3  C   UNL d   1      52.777  32.526  52.695  0.00  0.00     0.289 A 
ATOM      4  N   UNL d   1      52.814  31.711  52.817  0.00  0.00    -0.169 N 
ATOM      5  O   UNL d   1      53.217  32.958  52.143  0.00  0.00    -0.265 OA
ATOM      6  C   UNL d   1      52.281  31.518  53.419  0.00  0.00     0.200 A 
ATOM      7  N   UNL d   1      53.177  31.016  52.571  0.00  0.00    -0.141 NA
ATOM      8  S   UNL d   1      51.912  32.212  53.671  0.00  0.00    -0.042 SA
ATOM      9  N   UNL d   1      52.318  30.704  53.541  0.00  0.00    -0.200 NA
ATOM     10  C   UNL d   1      52.873  30.390  53.017  0.00  0.00     0.184 A 
ATOM     11  C   UNL d   1      53.090  29.595  52.944  0.00  0.00     0.044 C 
ENDBRANCH   1   2
BRANCH   1  12
ATOM     12  N   UNL d   1      51.310  33.902  52.934  0.00  0.00    -0.301 N 
ATOM     13  C   UNL d   1      51.322  34.203  52.170  0.00  0.00     0.100 A 
ATOM     14  C   UNL d   1      50.622  34.467  51.815  0.00  0.00     0.100 A 
ATOM     15  N   UNL d   1      49.901  34.433  52.221  0.00  0.00    -0.299 N 
ATOM     16  C   UNL d   1      49.899  34.129  52.987  0.00  0.00     0.100 A 
ATOM     17  C   UNL d   1      50.595  33.863  53.349  0.00  0.00     0.100 A 
BRANCH  15  18
ATOM     18  C   UNL d   1      49.219  34.694  51.864  0.00  0.00     0.092 A 
ATOM     19  C   UNL d   1      48.730  35.239  52.228  0.00  0.00     0.156 A 
ATOM     20  F   UNL d   1      48.939  35.531  52.983  0.00  0.00    -0.203 F 
ATOM     21  C   UNL d   1      48.042  35.498  51.859  0.00  0.00     0.031 A 
ATOM     22  C   UNL d   1      47.843  35.206  51.116  0.00  0.00     0.002 A 
ATOM     23  C   UNL d   1      48.332  34.661  50.752  0.00  0.00     0.002 A 
ATOM     24  C   UNL d   1      49.015  34.403  51.117  0.00  0.00     0.020 A 
ENDBRANCH  15  18
ENDBRANCH   1  12
BRANCH   1  25
ATOM     25  C   UNL d   1      52.481  34.157  53.712  0.00  0.00     0.017 A 
ATOM     26  C   UNL d   1      52.889  34.744  53.319  0.00  0.00     0.002 A 
ATOM     27  C   UNL d   1      53.356  35.250  53.739  0.00  0.00     0.000 A 
ATOM     28  C   UNL d   1      53.428  35.181  54.572  0.00  0.00     0.000 A 
ATOM     29  C   UNL d   1      53.023  34.599  54.954  0.00  0.00     0.000 A 
ATOM     30  C   UNL d   1      52.540  34.073  54.534  0.00  0.00     0.002 A 
ENDBRANCH   1  25
TORSDOF 4
ENDMDL
MODEL 3
REMARK VINA RESULT:      -7.4      1.945      4.549
REMARK  4 active torsions:
REMARK  status: ('A' for Active; 'I' for Inactive)
REMARK    1  A    between atoms: C_9  and  C_3 
REMARK    2  A    between atoms: N_10  and  C_9 
REMARK    3  A    between atoms: C_19  and  C_9 
REMARK    4  A    between atoms: C_12  and  N_11 
ROOT
ATOM      1  C   UNL d   1      53.384  32.589  53.917  0.00  0.00     0.075 C 
ENDROOT
BRANCH   1   2
ATOM      2  C   UNL d   1      53.379  31.764  53.974  0.00  0.00     0.106 A 
ATOM      3  C   UNL d   1      53.486  31.228  53.344  0.00  0.00     0.289 A 
ATOM      4  N   UNL d   1      53.440  30.462  53.649  0.00  0.00    -0.169 N 
ATOM      5  O   UNL d   1      53.616  31.431  52.552  0.00  0.00    -0.265 OA
ATOM      6  C   UNL d   1      53.305  30.520  54.463  0.00  0.00     0.200 A 
ATOM      7  N   UNL d   1      53.476  29.665  53.457  0.00  0.00    -0.141 NA
ATOM      8  S   UNL d   1      53.267  31.319  54.664  0.00  0.00    -0.042 SA
ATOM      9  N   UNL d   1      53.258  29.756  54.768  0.00  0.00    -0.200 NA
ATOM     10  C   UNL d   1      53.365  29.224  54.147  0.00  0.00     0.184 A 
ATOM     11  C   UNL d   1      53.361  28.398  54.197  0.00  0.00     0.044 C 
ENDBRANCH   1   2
BRANCH   1  12
ATOM     12  N   UNL d   1      52.725  32.976  53.607  0.00  0.00    -0.301 N 
ATOM     13  C   UNL d   1      52.001  32.943  53.993  0.00  0.00     0.100 A 
ATOM     14  C   UNL d   1      51.343  33.334  53.677  0.00  0.00     0.100 A 
ATOM     15  N   UNL d   1      51.401  33.762  52.971  0.00  0.00    -0.299 N 
ATOM     16  C   UNL d   1      52.132  33.789  52.591  0.00  0.00     0.100 A 
ATOM     17  C   UNL d   1      52.795  33.401  52.900  0.00  0.00     0.100 A 
BRANCH  15  18
ATOM     18  C   UNL d   1      50.749  34.143  52.668  0.00  0.00     0.092 A 
ATOM     19  C   UNL d   1      50.594  34.148  51.866  0.00  0.00     0.156 A 
ATOM     20  F   UNL d   1      51.118  33.753  51.348  0.00  0.00    -0.203 F 
ATOM     21  C   UNL d   1      49.931  34.535  51.569  0.00  0.00     0.031 A 
ATOM     22  C   UNL d   1      49.420  34.922  52.086  0.00  0.00     0.002 A 
ATOM     23  C   UNL d   1      49.576  34.917  52.888  0.00  0.00     0.002 A 
ATOM     24  C   UNL d   1      50.233  34.532  53.184  0.00  0.00     0.020 A 
ENDBRANCH  15  18
ENDBRANCH   1  12
BRANCH   1  25
ATOM     25  C   UNL d   1      54.040  33.015  54.166  0.00  0.00     0.017 A 
ATOM     26  C   UNL d   1      54.674  33.119  53.664  0.00  0.00     0.002 A 
ATOM     27  C   UNL d   1      55.314  33.538  53.917  0.00  0.00     0.000 A 
ATOM     28  C   UNL d   1      55.337  33.869  54.688  0.00  0.00     0.000 A 
ATOM     29  C   UNL d   1      54.707  33.763  55.179  0.00  0.00     0.000 A 
ATOM     30  C   UNL d   1      54.044  33.334  54.931  0.00  0.00     0.002 A 
ENDBRANCH   1  25
TORSDOF 4
ENDMDL
MODEL 4
REMARK VINA RESULT:      -7.2      1.993      4.861
REMARK  4 active torsions:
REMARK  status: ('A' for Active; 'I' for Inactive)
REMARK    1  A    between atoms: C_9  and  C_3 
REMARK    2  A    between atoms: N_10  and  C_9 
REMARK    3  A    between atoms: C_19  and  C_9 
REMARK    4  A    between atoms: C_12  and  N_11 
ROOT
ATOM      1  C   UNL d   1      52.785  32.319  53.427  0.00  0.00     0.075 C 
ENDROOT
BRANCH   1   2
ATOM      2  C   UNL d   1      53.390  32.674  53.866  0.00  0.00     0.106 A 
ATOM      3  C   UNL d   1      54.102  32.981  53.559  0.00  0.00     0.289 A 
ATOM      4  N   UNL d   1      54.543  33.281  54.189  0.00  0.00    -0.169 N 
ATOM      5  O   UNL d   1      54.325  32.984  52.762  0.00  0.00    -0.265 OA
ATOM      6  C   UNL d   1      54.110  33.161  54.883  0.00  0.00     0.200 A 
ATOM      7  N   UNL d   1      55.247  33.652  54.393  0.00  0.00    -0.141 NA
ATOM      8  S   UNL d   1      53.402  32.788  54.686  0.00  0.00    -0.042 SA
ATOM      9  N   UNL d   1      54.551  33.460  55.512  0.00  0.00    -0.200 NA
ATOM     10  C   UNL d   1      55.256  33.765  55.211  0.00  0.00     0.184 A 
ATOM     11  C   UNL d   1      55.865  34.120  55.643  0.00  0.00     0.044 C 
ENDBRANCH   1   2
BRANCH   1  12
ATOM     12  N   UNL d   1      52.148  32.778  53.175  0.00  0.00    -0.301 N 
ATOM     13  C   UNL d   1      52.221  33.274  52.524  0.00  0.00     0.100 A 
ATOM     14  C   UNL d   1      51.578  33.731  52.275  0.00  0.00     0.100 A 
ATOM     15  N   UNL d   1      50.853  33.699  52.675  0.00  0.00    -0.299 N 
ATOM     16  C   UNL d   1      50.790  33.198  53.326  0.00  0.00     0.100 A 
ATOM     17  C   UNL d   1      51.428  32.737  53.581  0.00  0.00     0.100 A 
BRANCH  15  18
ATOM     18  C   UNL d   1      50.227  34.152  52.422  0.00  0.00     0.092 A 
ATOM     19  C   UNL d   1      49.922  34.752  52.886  0.00  0.00     0.156 A 
ATOM     20  F   UNL d   1      50.263  34.900  53.635  0.00  0.00    -0.203 F 
ATOM     21  C   UNL d   1      49.288  35.206  52.623  0.00  0.00     0.031 A 
ATOM     22  C   UNL d   1      48.958  35.054  51.884  0.00  0.00     0.002 A 
ATOM     23  C   UNL d   1      49.263  34.455  51.420  0.00  0.00     0.002 A 
ATOM     24  C   UNL d   1      49.892  34.003  51.681  0.00  0.00     0.020 A 
ENDBRANCH  15  18
ENDBRANCH   1  12
BRANCH   1  25
ATOM     25  C   UNL d   1      52.821  31.519  53.247  0.00  0.00     0.017 A 
ATOM     26  C   UNL d   1      53.033  31.279  52.497  0.00  0.00     0.002 A 
ATOM     27  C   UNL d   1      53.067  30.491  52.329  0.00  0.00     0.000 A 
ATOM     28  C   UNL d   1      52.887  29.916  52.913  0.00  0.00     0.000 A 
ATOM     29  C   UNL d   1      52.678  30.160  53.652  0.00  0.00     0.000 A 
ATOM     30  C   UNL d   1      52.640  30.966  53.837  0.00  0.00     0.002 A 
ENDBRANCH   1  25
TORSDOF 4
ENDMDL
