MODEL 1
REMARK VINA RESULT:      46.3      0.000      0.000
REMARK  6 active torsions:
REMARK  status: ('A' for Active; 'I' for Inactive)
REMARK       I    between atoms: N_6  and  C_1 
REMARK       I    between atoms: N_9  and  C_1 
REMARK    1  A    between atoms: N_2  and  C_3 
REMARK    2  A    between atoms: C_3  and  C_5 
REMARK    3  A    between atoms: C_7  and  C_3 
REMARK    4  A    between atoms: C_16  and  N_4 
REMARK    5  A    between atoms: C_5  and  N_6 
REMARK    6  A    between atoms: C_19  and  N_9 
ROOT
ATOM      1  C   UNL d   1      45.264 -14.888  44.452  0.00  0.00     0.088 C 
ENDROOT
BRANCH   1   2
ATOM      2  N   UNL d   1      45.494 -15.647  44.216  0.00  0.00    -0.300 N 
ATOM      3  C   UNL d   1      45.555 -16.249  44.774  0.00  0.00     0.100 A 
ATOM      4  C   UNL d   1      45.783 -17.002  44.541  0.00  0.00     0.100 A 
ATOM      5  N   UNL d   1      45.954 -17.168  43.746  0.00  0.00    -0.301 N 
ATOM      6  C   UNL d   1      45.888 -16.543  43.181  0.00  0.00     0.100 A 
ATOM      7  C   UNL d   1      45.660 -15.799  43.428  0.00  0.00     0.100 A 
BRANCH   5   8
ATOM      8  C   UNL d   1      46.181 -17.909  43.500  0.00  0.00     0.064 A 
ATOM      9  C   UNL d   1      46.234 -18.097  42.702  0.00  0.00     0.018 A 
ATOM     10  C   UNL d   1      46.466 -18.854  42.462  0.00  0.00     0.002 A 
ATOM     11  C   UNL d   1      46.647 -19.429  43.031  0.00  0.00     0.000 A 
ATOM     12  C   UNL d   1      46.594 -19.241  43.838  0.00  0.00     0.002 A 
ATOM     13  C   UNL d   1      46.362 -18.484  44.070  0.00  0.00     0.018 A 
ENDBRANCH   5   8
ENDBRANCH   1   2
BRANCH   1  14
ATOM     14  C   UNL d   1      45.817 -14.280  44.495  0.00  0.00     0.103 C 
ATOM     15  C   UNL d   1      46.486 -14.371  44.955  0.00  0.00     0.022 C 
BRANCH  14  16
ATOM     16  N   UNL d   1      45.690 -13.588  44.072  0.00  0.00    -0.190 NA
ATOM     17  C   UNL d   1      46.098 -12.898  44.280  0.00  0.00     0.369 C 
ATOM     18  N   UNL d   1      45.970 -12.205  43.857  0.00  0.00    -0.191 NA
ATOM     19  O   UNL d   1      46.627 -12.913  44.907  0.00  0.00    -0.242 OA
BRANCH  18  20
ATOM     20  C   UNL d   1      45.438 -12.190  43.226  0.00  0.00     0.086 A 
ATOM     21  C   UNL d   1      45.729 -12.214  42.447  0.00  0.00     0.019 A 
ATOM     22  C   UNL d   1      45.202 -12.199  41.818  0.00  0.00     0.002 A 
ATOM     23  C   UNL d   1      44.390 -12.161  41.957  0.00  0.00     0.000 A 
ATOM     24  C   UNL d   1      44.107 -12.138  42.731  0.00  0.00     0.002 A 
ATOM     25  C   UNL d   1      44.634 -12.153  43.370  0.00  0.00     0.019 A 
ENDBRANCH  18  20
ENDBRANCH  14  16
ENDBRANCH   1  14
BRANCH   1  26
ATOM     26  C   UNL d   1      44.478 -14.742  44.645  0.00  0.00     0.047 A 
ATOM     27  S   UNL d   1      43.881 -15.306  44.743  0.00  0.00    -0.085 SA
ATOM     28  C   UNL d   1      43.184 -14.914  44.932  0.00  0.00     0.035 A 
ATOM     29  C   UNL d   1      43.342 -14.103  44.954  0.00  0.00     0.007 A 
ATOM     30  C   UNL d   1      44.140 -13.999  44.776  0.00  0.00     0.009 A 
ENDBRANCH   1  26
TORSDOF 6
ENDMDL
