MODEL 1
REMARK VINA RESULT:      -8.3      0.000      0.000
REMARK  8 active torsions:
REMARK  status: ('A' for Active; 'I' for Inactive)
REMARK    1  A    between atoms: C_4  and  C_1 
REMARK    2  A    between atoms: C_11  and  N_3 
REMARK    3  A    between atoms: N_7  and  C_4 
REMARK    4  A    between atoms: C_9  and  C_4 
REMARK       I    between atoms: C_8  and  N_7 
REMARK    5  A    between atoms: C_12  and  C_9 
REMARK    6  A    between atoms: C_18  and  C_11 
REMARK    7  A    between atoms: C_20  and  C_18 
REMARK    8  A    between atoms: C_19  and  C_20 
ROOT
ATOM      1  C   UNL d   1      52.574  32.903  53.118  0.00  0.00     0.166 A 
ATOM      2  N   UNL d   1      52.391  32.307  52.572  0.00  0.00    -0.225 NA
ATOM      3  N   UNL d   1      53.006  32.565  53.730  0.00  0.00    -0.288 N 
ATOM      4  C   UNL d   1      53.096  31.759  53.571  0.00  0.00     0.083 A 
ATOM      5  C   UNL d   1      52.711  31.605  52.850  0.00  0.00     0.099 A 
ATOM      6  C   UNL d   1      53.470  31.157  53.981  0.00  0.00     0.019 A 
ATOM      7  C   UNL d   1      52.707  30.841  52.546  0.00  0.00     0.021 A 
ATOM      8  C   UNL d   1      53.468  30.389  53.678  0.00  0.00     0.002 A 
ATOM      9  C   UNL d   1      53.086  30.227  52.959  0.00  0.00     0.002 A 
ENDROOT
BRANCH   1  10
ATOM     10  C   UNL d   1      52.358  33.702  53.058  0.00  0.00     0.119 C 
BRANCH  10  11
ATOM     11  N   UNL d   1      52.859  34.234  52.680  0.00  0.00    -0.205 NA
ATOM     12  C   UNL d   1      53.042  34.957  53.034  0.00  0.00     0.280 C 
ATOM     13  O   UNL d   1      53.542  35.490  52.656  0.00  0.00    -0.265 OA
ATOM     14  C   UNL d   1      52.721  35.150  53.775  0.00  0.00     0.068 C 
ENDBRANCH  10  11
BRANCH  10  15
ATOM     15  C   UNL d   1      51.646  33.962  53.374  0.00  0.00     0.022 C 
BRANCH  15  16
ATOM     16  C   UNL d   1      50.998  34.089  52.887  0.00  0.00     0.002 A 
ATOM     17  C   UNL d   1      51.079  34.074  52.069  0.00  0.00     0.000 A 
ATOM     18  C   UNL d   1      50.428  34.202  51.580  0.00  0.00     0.000 A 
ATOM     19  C   UNL d   1      49.689  34.347  51.913  0.00  0.00     0.000 A 
ATOM     20  C   UNL d   1      49.605  34.363  52.740  0.00  0.00     0.000 A 
ATOM     21  C   UNL d   1      50.259  34.235  53.220  0.00  0.00     0.000 A 
ENDBRANCH  15  16
ENDBRANCH  10  15
ENDBRANCH   1  10
BRANCH   3  22
ATOM     22  C   UNL d   1      53.303  32.963  54.394  0.00  0.00     0.082 C 
BRANCH  22  23
ATOM     23  C   UNL d   1      54.049  32.770  54.692  0.00  0.00     0.019 C 
BRANCH  23  24
ATOM     24  C   UNL d   1      54.354  33.166  55.348  0.00  0.00     0.002 C 
BRANCH  24  25
ATOM     25  C   UNL d   1      55.154  33.390  55.348  0.00  0.00     0.000 C 
ATOM     26  C   UNL d   1      55.381  34.112  55.698  0.00  0.00     0.000 C 
ENDBRANCH  24  25
ENDBRANCH  23  24
ENDBRANCH  22  23
ENDBRANCH   3  22
TORSDOF 8
ENDMDL
MODEL 2
REMARK VINA RESULT:      -8.0      1.194      4.131
REMARK  8 active torsions:
REMARK  status: ('A' for Active; 'I' for Inactive)
REMARK    1  A    between atoms: C_4  and  C_1 
REMARK    2  A    between atoms: C_11  and  N_3 
REMARK    3  A    between atoms: N_7  and  C_4 
REMARK    4  A    between atoms: C_9  and  C_4 
REMARK       I    between atoms: C_8  and  N_7 
REMARK    5  A    between atoms: C_12  and  C_9 
REMARK    6  A    between atoms: C_18  and  C_11 
REMARK    7  A    between atoms: C_20  and  C_18 
REMARK    8  A    between atoms: C_19  and  C_20 
ROOT
ATOM      1  C   UNL d   1      53.499  33.489  54.142  0.00  0.00     0.166 A 
ATOM      2  N   UNL d   1      53.733  33.843  54.853  0.00  0.00    -0.225 NA
ATOM      3  N   UNL d   1      52.994  34.009  53.752  0.00  0.00    -0.288 N 
ATOM      4  C   UNL d   1      52.911  34.688  54.218  0.00  0.00     0.083 A 
ATOM      5  C   UNL d   1      53.372  34.577  54.900  0.00  0.00     0.099 A 
ATOM      6  C   UNL d   1      52.482  35.377  54.109  0.00  0.00     0.019 A 
ATOM      7  C   UNL d   1      53.398  35.168  55.472  0.00  0.00     0.021 A 
ATOM      8  C   UNL d   1      52.507  35.971  54.682  0.00  0.00     0.002 A 
ATOM      9  C   UNL d   1      52.965  35.869  55.367  0.00  0.00     0.002 A 
ENDROOT
BRANCH   1  10
ATOM     10  C   UNL d   1      53.733  32.742  53.869  0.00  0.00     0.119 C 
BRANCH  10  11
ATOM     11  N   UNL d   1      54.210  32.680  53.201  0.00  0.00    -0.205 NA
ATOM     12  C   UNL d   1      55.024  32.797  53.258  0.00  0.00     0.280 C 
ATOM     13  O   UNL d   1      55.501  32.735  52.591  0.00  0.00    -0.265 OA
ATOM     14  C   UNL d   1      55.368  32.980  53.992  0.00  0.00     0.068 C 
ENDBRANCH  10  11
BRANCH  10  15
ATOM     15  C   UNL d   1      53.489  32.064  54.264  0.00  0.00     0.022 C 
BRANCH  15  16
ATOM     16  C   UNL d   1      53.309  31.382  53.844  0.00  0.00     0.002 A 
ATOM     17  C   UNL d   1      52.693  31.377  53.298  0.00  0.00     0.000 A 
ATOM     18  C   UNL d   1      52.513  30.692  52.877  0.00  0.00     0.000 A 
ATOM     19  C   UNL d   1      52.951  30.007  53.003  0.00  0.00     0.000 A 
ATOM     20  C   UNL d   1      53.573  30.010  53.554  0.00  0.00     0.000 A 
ATOM     21  C   UNL d   1      53.747  30.697  53.970  0.00  0.00     0.000 A 
ENDBRANCH  15  16
ENDBRANCH  10  15
ENDBRANCH   1  10
BRANCH   3  22
ATOM     22  C   UNL d   1      52.631  33.877  53.019  0.00  0.00     0.082 C 
BRANCH  22  23
ATOM     23  C   UNL d   1      51.886  34.200  52.864  0.00  0.00     0.019 C 
BRANCH  23  24
ATOM     24  C   UNL d   1      51.533  34.102  52.125  0.00  0.00     0.002 C 
BRANCH  24  25
ATOM     25  C   UNL d   1      50.704  34.087  52.073  0.00  0.00     0.000 C 
ATOM     26  C   UNL d   1      50.333  34.228  51.339  0.00  0.00     0.000 C 
ENDBRANCH  24  25
ENDBRANCH  23  24
ENDBRANCH  22  23
ENDBRANCH   3  22
TORSDOF 8
ENDMDL
MODEL 3
REMARK VINA RESULT:      -7.9      1.271      3.146
REMARK  8 active torsions:
REMARK  status: ('A' for Active; 'I' for Inactive)
REMARK    1  A    between atoms: C_4  and  C_1 
REMARK    2  A    between atoms: C_11  and  N_3 
REMARK    3  A    between atoms: N_7  and  C_4 
REMARK    4  A    between atoms: C_9  and  C_4 
REMARK       I    between atoms: C_8  and  N_7 
REMARK    5  A    between atoms: C_12  and  C_9 
REMARK    6  A    between atoms: C_18  and  C_11 
REMARK    7  A    between atoms: C_20  and  C_18 
REMARK    8  A    between atoms: C_19  and  C_20 
ROOT
ATOM      1  C   UNL d   1      53.828  32.111  53.749  0.00  0.00     0.166 A 
ATOM      2  N   UNL d   1      54.056  31.404  54.114  0.00  0.00    -0.225 NA
ATOM      3  N   UNL d   1      53.175  31.954  53.273  0.00  0.00    -0.288 N 
ATOM      4  C   UNL d   1      52.993  31.151  53.340  0.00  0.00     0.083 A 
ATOM      5  C   UNL d   1      53.544  30.815  53.863  0.00  0.00     0.099 A 
ATOM      6  C   UNL d   1      52.408  30.692  52.997  0.00  0.00     0.019 A 
ATOM      7  C   UNL d   1      53.501  30.012  54.038  0.00  0.00     0.021 A 
ATOM      8  C   UNL d   1      52.362  29.886  53.171  0.00  0.00     0.002 A 
ATOM      9  C   UNL d   1      52.909  29.542  53.694  0.00  0.00     0.002 A 
ENDROOT
BRANCH   1  10
ATOM     10  C   UNL d   1      54.193  32.850  53.845  0.00  0.00     0.119 C 
BRANCH  10  11
ATOM     11  N   UNL d   1      54.492  33.248  53.190  0.00  0.00    -0.205 NA
ATOM     12  C   UNL d   1      55.299  33.227  53.022  0.00  0.00     0.280 C 
ATOM     13  O   UNL d   1      55.598  33.625  52.367  0.00  0.00    -0.265 OA
ATOM     14  C   UNL d   1      55.816  32.802  53.515  0.00  0.00     0.068 C 
ENDBRANCH  10  11
BRANCH  10  15
ATOM     15  C   UNL d   1      54.257  33.184  54.593  0.00  0.00     0.022 C 
BRANCH  15  16
ATOM     16  C   UNL d   1      53.876  33.890  54.765  0.00  0.00     0.002 A 
ATOM     17  C   UNL d   1      54.006  34.559  54.305  0.00  0.00     0.000 A 
ATOM     18  C   UNL d   1      53.623  35.268  54.479  0.00  0.00     0.000 A 
ATOM     19  C   UNL d   1      53.106  35.308  55.118  0.00  0.00     0.000 A 
ATOM     20  C   UNL d   1      52.974  34.633  55.584  0.00  0.00     0.000 A 
ATOM     21  C   UNL d   1      53.360  33.929  55.404  0.00  0.00     0.000 A 
ENDBRANCH  15  16
ENDBRANCH  10  15
ENDBRANCH   1  10
BRANCH   3  22
ATOM     22  C   UNL d   1      52.768  32.506  52.808  0.00  0.00     0.082 C 
BRANCH  22  23
ATOM     23  C   UNL d   1      51.943  32.537  52.832  0.00  0.00     0.019 C 
BRANCH  23  24
ATOM     24  C   UNL d   1      51.533  33.133  52.435  0.00  0.00     0.002 C 
BRANCH  24  25
ATOM     25  C   UNL d   1      50.827  33.424  52.760  0.00  0.00     0.000 C 
ATOM     26  C   UNL d   1      50.557  34.185  52.551  0.00  0.00     0.000 C 
ENDBRANCH  24  25
ENDBRANCH  23  24
ENDBRANCH  22  23
ENDBRANCH   3  22
TORSDOF 8
ENDMDL
MODEL 4
REMARK VINA RESULT:      -7.9      1.132      2.050
REMARK  8 active torsions:
REMARK  status: ('A' for Active; 'I' for Inactive)
REMARK    1  A    between atoms: C_4  and  C_1 
REMARK    2  A    between atoms: C_11  and  N_3 
REMARK    3  A    between atoms: N_7  and  C_4 
REMARK    4  A    between atoms: C_9  and  C_4 
REMARK       I    between atoms: C_8  and  N_7 
REMARK    5  A    between atoms: C_12  and  C_9 
REMARK    6  A    between atoms: C_18  and  C_11 
REMARK    7  A    between atoms: C_20  and  C_18 
REMARK    8  A    between atoms: C_19  and  C_20 
ROOT
ATOM      1  C   UNL d   1      52.351  32.615  53.168  0.00  0.00     0.166 A 
ATOM      2  N   UNL d   1      51.830  31.986  53.303  0.00  0.00    -0.225 NA
ATOM      3  N   UNL d   1      53.110  32.306  53.091  0.00  0.00    -0.288 N 
ATOM      4  C   UNL d   1      53.065  31.485  53.178  0.00  0.00     0.083 A 
ATOM      5  C   UNL d   1      52.268  31.293  53.310  0.00  0.00     0.099 A 
ATOM      6  C   UNL d   1      53.637  30.900  53.155  0.00  0.00     0.019 A 
ATOM      7  C   UNL d   1      52.051  30.507  53.418  0.00  0.00     0.021 A 
ATOM      8  C   UNL d   1      53.423  30.110  53.263  0.00  0.00     0.002 A 
ATOM      9  C   UNL d   1      52.628  29.909  53.395  0.00  0.00     0.002 A 
ENDROOT
BRANCH   1  10
ATOM     10  C   UNL d   1      52.145  33.417  53.118  0.00  0.00     0.119 C 
BRANCH  10  11
ATOM     11  N   UNL d   1      52.265  33.828  52.415  0.00  0.00    -0.205 NA
ATOM     12  C   UNL d   1      51.629  33.992  51.915  0.00  0.00     0.280 C 
ATOM     13  O   UNL d   1      51.748  34.404  51.213  0.00  0.00    -0.265 OA
ATOM     14  C   UNL d   1      50.864  33.742  52.120  0.00  0.00     0.068 C 
ENDBRANCH  10  11
BRANCH  10  15
ATOM     15  C   UNL d   1      51.823  33.801  53.769  0.00  0.00     0.022 C 
BRANCH  15  16
ATOM     16  C   UNL d   1      52.228  34.417  54.129  0.00  0.00     0.002 A 
ATOM     17  C   UNL d   1      52.409  35.102  53.711  0.00  0.00     0.000 A 
ATOM     18  C   UNL d   1      52.816  35.719  54.074  0.00  0.00     0.000 A 
ATOM     19  C   UNL d   1      53.044  35.651  54.862  0.00  0.00     0.000 A 
ATOM     20  C   UNL d   1      52.863  34.961  55.286  0.00  0.00     0.000 A 
ATOM     21  C   UNL d   1      52.456  34.349  54.917  0.00  0.00     0.000 A 
ENDBRANCH  15  16
ENDBRANCH  10  15
ENDBRANCH   1  10
BRANCH   3  22
ATOM     22  C   UNL d   1      53.801  32.741  52.950  0.00  0.00     0.082 C 
BRANCH  22  23
ATOM     23  C   UNL d   1      54.500  32.543  53.344  0.00  0.00     0.019 C 
BRANCH  23  24
ATOM     24  C   UNL d   1      55.172  33.015  53.268  0.00  0.00     0.002 C 
BRANCH  24  25
ATOM     25  C   UNL d   1      55.682  33.099  53.918  0.00  0.00     0.000 C 
ATOM     26  C   UNL d   1      55.939  33.859  54.147  0.00  0.00     0.000 C 
ENDBRANCH  24  25
ENDBRANCH  23  24
ENDBRANCH  22  23
ENDBRANCH   3  22
TORSDOF 8
ENDMDL
MODEL 5
REMARK VINA RESULT:      -7.9      1.125      3.490
REMARK  8 active torsions:
REMARK  status: ('A' for Active; 'I' for Inactive)
REMARK    1  A    between atoms: C_4  and  C_1 
REMARK    2  A    between atoms: C_11  and  N_3 
REMARK    3  A    between atoms: N_7  and  C_4 
REMARK    4  A    between atoms: C_9  and  C_4 
REMARK       I    between atoms: C_8  and  N_7 
REMARK    5  A    between atoms: C_12  and  C_9 
REMARK    6  A    between atoms: C_18  and  C_11 
REMARK    7  A    between atoms: C_20  and  C_18 
REMARK    8  A    between atoms: C_19  and  C_20 
ROOT
ATOM      1  C   UNL d   1      52.747  32.957  53.166  0.00  0.00     0.166 A 
ATOM      2  N   UNL d   1      52.248  32.746  52.540  0.00  0.00    -0.225 NA
ATOM      3  N   UNL d   1      52.433  33.625  53.529  0.00  0.00    -0.288 N 
ATOM      4  C   UNL d   1      51.737  33.833  53.133  0.00  0.00     0.083 A 
ATOM      5  C   UNL d   1      51.629  33.283  52.520  0.00  0.00     0.099 A 
ATOM      6  C   UNL d   1      51.201  34.440  53.250  0.00  0.00     0.019 A 
ATOM      7  C   UNL d   1      50.974  33.349  52.026  0.00  0.00     0.021 A 
ATOM      8  C   UNL d   1      50.544  34.510  52.756  0.00  0.00     0.002 A 
ATOM      9  C   UNL d   1      50.427  33.964  52.140  0.00  0.00     0.002 A 
ENDROOT
BRANCH   1  10
ATOM     10  C   UNL d   1      53.443  32.565  53.388  0.00  0.00     0.119 C 
BRANCH  10  11
ATOM     11  N   UNL d   1      54.141  32.701  52.973  0.00  0.00    -0.205 NA
ATOM     12  C   UNL d   1      54.838  32.879  53.377  0.00  0.00     0.280 C 
ATOM     13  O   UNL d   1      55.536  33.014  52.962  0.00  0.00    -0.265 OA
ATOM     14  C   UNL d   1      54.839  32.922  54.207  0.00  0.00     0.068 C 
ENDBRANCH  10  11
BRANCH  10  15
ATOM     15  C   UNL d   1      53.438  32.041  54.021  0.00  0.00     0.022 C 
BRANCH  15  16
ATOM     16  C   UNL d   1      53.341  31.237  53.893  0.00  0.00     0.002 A 
ATOM     17  C   UNL d   1      53.383  30.926  53.132  0.00  0.00     0.000 A 
ATOM     18  C   UNL d   1      53.286  30.117  53.004  0.00  0.00     0.000 A 
ATOM     19  C   UNL d   1      53.145  29.616  53.641  0.00  0.00     0.000 A 
ATOM     20  C   UNL d   1      53.102  29.929  54.410  0.00  0.00     0.000 A 
ATOM     21  C   UNL d   1      53.200  30.736  54.530  0.00  0.00     0.000 A 
ENDBRANCH  15  16
ENDBRANCH  10  15
ENDBRANCH   1  10
BRANCH   3  22
ATOM     22  C   UNL d   1      52.756  34.023  54.180  0.00  0.00     0.082 C 
BRANCH  22  23
ATOM     23  C   UNL d   1      52.746  34.848  54.206  0.00  0.00     0.019 C 
BRANCH  23  24
ATOM     24  C   UNL d   1      53.013  35.251  54.875  0.00  0.00     0.002 C 
BRANCH  24  25
ATOM     25  C   UNL d   1      53.401  35.979  54.781  0.00  0.00     0.000 C 
ATOM     26  C   UNL d   1      53.072  36.669  55.115  0.00  0.00     0.000 C 
ENDBRANCH  24  25
ENDBRANCH  23  24
ENDBRANCH  22  23
ENDBRANCH   3  22
TORSDOF 8
ENDMDL
MODEL 6
REMARK VINA RESULT:      -7.1      1.560      4.435
REMARK  8 active torsions:
REMARK  status: ('A' for Active; 'I' for Inactive)
REMARK    1  A    between atoms: C_4  and  C_1 
REMARK    2  A    between atoms: C_11  and  N_3 
REMARK    3  A    between atoms: N_7  and  C_4 
REMARK    4  A    between atoms: C_9  and  C_4 
REMARK       I    between atoms: C_8  and  N_7 
REMARK    5  A    between atoms: C_12  and  C_9 
REMARK    6  A    between atoms: C_18  and  C_11 
REMARK    7  A    between atoms: C_20  and  C_18 
REMARK    8  A    between atoms: C_19  and  C_20 
ROOT
ATOM      1  C   UNL d   1      53.570  31.746  53.981  0.00  0.00     0.166 A 
ATOM      2  N   UNL d   1      54.319  31.901  54.298  0.00  0.00    -0.225 NA
ATOM      3  N   UNL d   1      53.126  32.437  54.026  0.00  0.00    -0.288 N 
ATOM      4  C   UNL d   1      53.594  33.025  54.371  0.00  0.00     0.083 A 
ATOM      5  C   UNL d   1      54.334  32.685  54.537  0.00  0.00     0.099 A 
ATOM      6  C   UNL d   1      53.444  33.809  54.550  0.00  0.00     0.019 A 
ATOM      7  C   UNL d   1      54.922  33.143  54.886  0.00  0.00     0.021 A 
ATOM      8  C   UNL d   1      54.032  34.271  54.900  0.00  0.00     0.002 A 
ATOM      9  C   UNL d   1      54.775  33.940  55.070  0.00  0.00     0.002 A 
ENDROOT
BRANCH   1  10
ATOM     10  C   UNL d   1      53.312  31.021  53.672  0.00  0.00     0.119 C 
BRANCH  10  11
ATOM     11  N   UNL d   1      53.589  30.765  52.941  0.00  0.00    -0.205 NA
ATOM     12  C   UNL d   1      53.058  30.536  52.352  0.00  0.00     0.280 C 
ATOM     13  O   UNL d   1      53.335  30.280  51.620  0.00  0.00    -0.265 OA
ATOM     14  C   UNL d   1      52.240  30.564  52.494  0.00  0.00     0.068 C 
ENDBRANCH  10  11
BRANCH  10  15
ATOM     15  C   UNL d   1      52.781  30.557  54.095  0.00  0.00     0.022 C 
BRANCH  15  16
ATOM     16  C   UNL d   1      53.044  29.902  54.513  0.00  0.00     0.002 A 
ATOM     17  C   UNL d   1      53.423  29.283  54.125  0.00  0.00     0.000 A 
ATOM     18  C   UNL d   1      53.687  28.625  54.546  0.00  0.00     0.000 A 
ATOM     19  C   UNL d   1      53.571  28.585  55.359  0.00  0.00     0.000 A 
ATOM     20  C   UNL d   1      53.188  29.209  55.752  0.00  0.00     0.000 A 
ATOM     21  C   UNL d   1      52.928  29.862  55.326  0.00  0.00     0.000 A 
ENDBRANCH  15  16
ENDBRANCH  10  15
ENDBRANCH   1  10
BRANCH   3  22
ATOM     22  C   UNL d   1      52.342  32.529  53.771  0.00  0.00     0.082 C 
BRANCH  22  23
ATOM     23  C   UNL d   1      52.087  33.259  53.481  0.00  0.00     0.019 C 
BRANCH  23  24
ATOM     24  C   UNL d   1      51.289  33.388  53.314  0.00  0.00     0.002 C 
BRANCH  24  25
ATOM     25  C   UNL d   1      51.084  33.928  52.717  0.00  0.00     0.000 C 
ATOM     26  C   UNL d   1      50.335  34.295  52.731  0.00  0.00     0.000 C 
ENDBRANCH  24  25
ENDBRANCH  23  24
ENDBRANCH  22  23
ENDBRANCH   3  22
TORSDOF 8
ENDMDL
MODEL 7
REMARK VINA RESULT:      -6.5      1.600      4.056
REMARK  8 active torsions:
REMARK  status: ('A' for Active; 'I' for Inactive)
REMARK    1  A    between atoms: C_4  and  C_1 
REMARK    2  A    between atoms: C_11  and  N_3 
REMARK    3  A    between atoms: N_7  and  C_4 
REMARK    4  A    between atoms: C_9  and  C_4 
REMARK       I    between atoms: C_8  and  N_7 
REMARK    5  A    between atoms: C_12  and  C_9 
REMARK    6  A    between atoms: C_18  and  C_11 
REMARK    7  A    between atoms: C_20  and  C_18 
REMARK    8  A    between atoms: C_19  and  C_20 
ROOT
ATOM      1  C   UNL d   1      52.658  31.509  53.370  0.00  0.00     0.166 A 
ATOM      2  N   UNL d   1      51.888  31.655  53.103  0.00  0.00    -0.225 NA
ATOM      3  N   UNL d   1      53.012  32.233  53.536  0.00  0.00    -0.288 N 
ATOM      4  C   UNL d   1      52.466  32.832  53.374  0.00  0.00     0.083 A 
ATOM      5  C   UNL d   1      51.770  32.466  53.106  0.00  0.00     0.099 A 
ATOM      6  C   UNL d   1      52.513  33.647  53.435  0.00  0.00     0.019 A 
ATOM      7  C   UNL d   1      51.121  32.929  52.900  0.00  0.00     0.021 A 
ATOM      8  C   UNL d   1      51.864  34.114  53.229  0.00  0.00     0.002 A 
ATOM      9  C   UNL d   1      51.164  33.756  52.960  0.00  0.00     0.002 A 
ENDROOT
BRANCH   1  10
ATOM     10  C   UNL d   1      53.011  30.764  53.455  0.00  0.00     0.119 C 
BRANCH  10  11
ATOM     11  N   UNL d   1      53.793  30.652  53.226  0.00  0.00    -0.205 NA
ATOM     12  C   UNL d   1      53.969  30.290  52.505  0.00  0.00     0.280 C 
ATOM     13  O   UNL d   1      54.751  30.178  52.276  0.00  0.00    -0.265 OA
ATOM     14  C   UNL d   1      53.354  30.036  52.006  0.00  0.00     0.068 C 
ENDBRANCH  10  11
BRANCH  10  15
ATOM     15  C   UNL d   1      52.581  30.137  53.768  0.00  0.00     0.022 C 
BRANCH  15  16
ATOM     16  C   UNL d   1      52.877  29.707  54.401  0.00  0.00     0.002 A 
ATOM     17  C   UNL d   1      52.891  30.031  55.157  0.00  0.00     0.000 A 
ATOM     18  C   UNL d   1      53.188  29.598  55.793  0.00  0.00     0.000 A 
ATOM     19  C   UNL d   1      53.474  28.836  55.671  0.00  0.00     0.000 A 
ATOM     20  C   UNL d   1      53.461  28.508  54.908  0.00  0.00     0.000 A 
ATOM     21  C   UNL d   1      53.163  28.945  54.279  0.00  0.00     0.000 A 
ENDBRANCH  15  16
ENDBRANCH  10  15
ENDBRANCH   1  10
BRANCH   3  22
ATOM     22  C   UNL d   1      53.784  32.344  53.817  0.00  0.00     0.082 C 
BRANCH  22  23
ATOM     23  C   UNL d   1      53.936  32.924  54.385  0.00  0.00     0.019 C 
BRANCH  23  24
ATOM     24  C   UNL d   1      54.708  33.071  54.638  0.00  0.00     0.002 C 
BRANCH  24  25
ATOM     25  C   UNL d   1      54.830  33.403  55.389  0.00  0.00     0.000 C 
ATOM     26  C   UNL d   1      55.340  34.058  55.474  0.00  0.00     0.000 C 
ENDBRANCH  24  25
ENDBRANCH  23  24
ENDBRANCH  22  23
ENDBRANCH   3  22
TORSDOF 8
ENDMDL
MODEL 8
REMARK VINA RESULT:      -6.1      0.796      2.431
REMARK  8 active torsions:
REMARK  status: ('A' for Active; 'I' for Inactive)
REMARK    1  A    between atoms: C_4  and  C_1 
REMARK    2  A    between atoms: C_11  and  N_3 
REMARK    3  A    between atoms: N_7  and  C_4 
REMARK    4  A    between atoms: C_9  and  C_4 
REMARK       I    between atoms: C_8  and  N_7 
REMARK    5  A    between atoms: C_12  and  C_9 
REMARK    6  A    between atoms: C_18  and  C_11 
REMARK    7  A    between atoms: C_20  and  C_18 
REMARK    8  A    between atoms: C_19  and  C_20 
ROOT
ATOM      1  C   UNL d   1      52.693  33.825  53.889  0.00  0.00     0.166 A 
ATOM      2  N   UNL d   1      53.004  34.246  54.530  0.00  0.00    -0.225 NA
ATOM      3  N   UNL d   1      53.069  33.094  53.857  0.00  0.00    -0.288 N 
ATOM      4  C   UNL d   1      53.614  33.055  54.477  0.00  0.00     0.083 A 
ATOM      5  C   UNL d   1      53.569  33.773  54.891  0.00  0.00     0.099 A 
ATOM      6  C   UNL d   1      54.135  32.468  54.712  0.00  0.00     0.019 A 
ATOM      7  C   UNL d   1      54.053  33.897  55.545  0.00  0.00     0.021 A 
ATOM      8  C   UNL d   1      54.622  32.590  55.368  0.00  0.00     0.002 A 
ATOM      9  C   UNL d   1      54.583  33.305  55.788  0.00  0.00     0.002 A 
ENDROOT
BRANCH   1  10
ATOM     10  C   UNL d   1      52.106  34.093  53.368  0.00  0.00     0.119 C 
BRANCH  10  11
ATOM     11  N   UNL d   1      52.270  34.160  52.565  0.00  0.00    -0.205 NA
ATOM     12  C   UNL d   1      52.692  34.808  52.278  0.00  0.00     0.280 C 
ATOM     13  O   UNL d   1      52.855  34.875  51.474  0.00  0.00    -0.265 OA
ATOM     14  C   UNL d   1      52.955  35.397  52.801  0.00  0.00     0.068 C 
ENDBRANCH  10  11
BRANCH  10  15
ATOM     15  C   UNL d   1      51.362  34.292  53.654  0.00  0.00     0.022 C 
BRANCH  15  16
ATOM     16  C   UNL d   1      50.702  34.231  53.169  0.00  0.00     0.002 A 
ATOM     17  C   UNL d   1      50.522  33.521  52.795  0.00  0.00     0.000 A 
ATOM     18  C   UNL d   1      49.859  33.460  52.309  0.00  0.00     0.000 A 
ATOM     19  C   UNL d   1      49.373  34.115  52.195  0.00  0.00     0.000 A 
ATOM     20  C   UNL d   1      49.554  34.833  52.572  0.00  0.00     0.000 A 
ATOM     21  C   UNL d   1      50.217  34.886  53.056  0.00  0.00     0.000 A 
ENDBRANCH  15  16
ENDBRANCH  10  15
ENDBRANCH   1  10
BRANCH   3  22
ATOM     22  C   UNL d   1      52.926  32.497  53.299  0.00  0.00     0.082 C 
BRANCH  22  23
ATOM     23  C   UNL d   1      52.946  31.704  53.530  0.00  0.00     0.019 C 
BRANCH  23  24
ATOM     24  C   UNL d   1      52.886  31.102  52.969  0.00  0.00     0.002 C 
BRANCH  24  25
ATOM     25  C   UNL d   1      52.503  30.395  53.174  0.00  0.00     0.000 C 
ATOM     26  C   UNL d   1      52.872  29.664  53.016  0.00  0.00     0.000 C 
ENDBRANCH  24  25
ENDBRANCH  23  24
ENDBRANCH  22  23
ENDBRANCH   3  22
TORSDOF 8
ENDMDL
MODEL 9
REMARK VINA RESULT:      -5.9      1.202      3.926
REMARK  8 active torsions:
REMARK  status: ('A' for Active; 'I' for Inactive)
REMARK    1  A    between atoms: C_4  and  C_1 
REMARK    2  A    between atoms: C_11  and  N_3 
REMARK    3  A    between atoms: N_7  and  C_4 
REMARK    4  A    between atoms: C_9  and  C_4 
REMARK       I    between atoms: C_8  and  N_7 
REMARK    5  A    between atoms: C_12  and  C_9 
REMARK    6  A    between atoms: C_18  and  C_11 
REMARK    7  A    between atoms: C_20  and  C_18 
REMARK    8  A    between atoms: C_19  and  C_20 
ROOT
ATOM      1  C   UNL d   1      53.362  33.352  53.313  0.00  0.00     0.166 A 
ATOM      2  N   UNL d   1      52.972  34.078  53.395  0.00  0.00    -0.225 NA
ATOM      3  N   UNL d   1      52.824  32.806  53.014  0.00  0.00    -0.288 N 
ATOM      4  C   UNL d   1      52.098  33.187  52.908  0.00  0.00     0.083 A 
ATOM      5  C   UNL d   1      52.197  33.977  53.147  0.00  0.00     0.099 A 
ATOM      6  C   UNL d   1      51.375  32.921  52.632  0.00  0.00     0.019 A 
ATOM      7  C   UNL d   1      51.561  34.497  53.103  0.00  0.00     0.021 A 
ATOM      8  C   UNL d   1      50.736  33.441  52.587  0.00  0.00     0.002 A 
ATOM      9  C   UNL d   1      50.825  34.232  52.823  0.00  0.00     0.002 A 
ENDROOT
BRANCH   1  10
ATOM     10  C   UNL d   1      54.156  33.201  53.499  0.00  0.00     0.119 C 
BRANCH  10  11
ATOM     11  N   UNL d   1      54.754  33.500  53.020  0.00  0.00    -0.205 NA
ATOM     12  C   UNL d   1      55.341  33.001  52.726  0.00  0.00     0.280 C 
ATOM     13  O   UNL d   1      55.939  33.300  52.246  0.00  0.00    -0.265 OA
ATOM     14  C   UNL d   1      55.331  32.192  52.912  0.00  0.00     0.068 C 
ENDBRANCH  10  11
BRANCH  10  15
ATOM     15  C   UNL d   1      54.346  32.754  54.162  0.00  0.00     0.022 C 
BRANCH  15  16
ATOM     16  C   UNL d   1      54.549  33.122  54.867  0.00  0.00     0.002 A 
ATOM     17  C   UNL d   1      55.066  33.763  54.871  0.00  0.00     0.000 A 
ATOM     18  C   UNL d   1      55.270  34.132  55.579  0.00  0.00     0.000 A 
ATOM     19  C   UNL d   1      54.954  33.859  56.288  0.00  0.00     0.000 A 
ATOM     20  C   UNL d   1      54.432  33.213  56.286  0.00  0.00     0.000 A 
ATOM     21  C   UNL d   1      54.233  32.850  55.576  0.00  0.00     0.000 A 
ENDBRANCH  15  16
ENDBRANCH  10  15
ENDBRANCH   1  10
BRANCH   3  22
ATOM     22  C   UNL d   1      52.982  32.009  52.848  0.00  0.00     0.082 C 
BRANCH  22  23
ATOM     23  C   UNL d   1      52.460  31.423  53.107  0.00  0.00     0.019 C 
BRANCH  23  24
ATOM     24  C   UNL d   1      52.591  30.631  52.915  0.00  0.00     0.002 C 
BRANCH  24  25
ATOM     25  C   UNL d   1      52.363  30.042  53.455  0.00  0.00     0.000 C 
ATOM     26  C   UNL d   1      52.899  29.436  53.656  0.00  0.00     0.000 C 
ENDBRANCH  24  25
ENDBRANCH  23  24
ENDBRANCH  22  23
ENDBRANCH   3  22
TORSDOF 8
ENDMDL
