MODEL 1
REMARK VINA RESULT:      79.5      0.000      0.000
REMARK  4 active torsions:
REMARK  status: ('A' for Active; 'I' for Inactive)
REMARK       I    between atoms: C_2  and  N_1 
REMARK    1  A    between atoms: C_6  and  C_2 
REMARK       I    between atoms: C_4  and  N_7 
REMARK    2  A    between atoms: C_5  and  C_4 
REMARK       I    between atoms: N_10  and  C_5 
REMARK    3  A    between atoms: N_7  and  C_13 
REMARK    4  A    between atoms: C_19  and  N_10 
ROOT
ATOM      1  N   UNL d   1     -55.213-101.243 -36.963  0.00  0.00    -0.273 N 
ATOM      2  C   UNL d   1     -55.307-100.412 -36.968  0.00  0.00     0.265 C 
ATOM      3  C   UNL d   1     -55.073-101.652 -37.660  0.00  0.00     0.068 A 
ATOM      4  C   UNL d   1     -55.023-101.243 -38.376  0.00  0.00     0.037 A 
ATOM      5  C   UNL d   1     -54.982-102.469 -37.649  0.00  0.00     0.016 A 
ATOM      6  C   UNL d   1     -54.881-101.654 -39.077  0.00  0.00     0.086 A 
ATOM      7  O   UNL d   1     -55.257-100.007 -37.681  0.00  0.00    -0.267 OA
ATOM      8  C   UNL d   1     -54.841-102.880 -38.350  0.00  0.00     0.003 A 
ATOM      9  C   UNL d   1     -55.264-101.648 -36.250  0.00  0.00     0.083 A 
ATOM     10  C   UNL d   1     -54.791-102.474 -39.062  0.00  0.00     0.019 A 
ATOM     11  C   UNL d   1     -55.172-102.469 -36.236  0.00  0.00     0.019 A 
ATOM     12  C   UNL d   1     -55.032-102.878 -36.933  0.00  0.00     0.003 A 
ENDROOT
BRANCH   6  13
ATOM     13  N   UNL d   1     -54.832-101.241 -39.794  0.00  0.00    -0.204 NA
ATOM     14  C   UNL d   1     -55.230-101.524 -40.459  0.00  0.00     0.337 C 
ATOM     15  O   UNL d   1     -55.677-102.216 -40.409  0.00  0.00    -0.260 OA
BRANCH  14  16
ATOM     16  C   UNL d   1     -55.183-101.118 -41.172  0.00  0.00     0.337 C 
ATOM     17  N   UNL d   1     -55.278-101.521 -41.885  0.00  0.00    -0.204 NA
ATOM     18  O   UNL d   1     -55.042-100.304 -41.173  0.00  0.00    -0.260 OA
BRANCH  17  19
ATOM     19  C   UNL d   1     -55.230-101.111 -42.600  0.00  0.00     0.085 A 
ATOM     20  C   UNL d   1     -55.254-100.294 -42.601  0.00  0.00     0.019 A 
ATOM     21  C   UNL d   1     -55.207 -99.876 -43.320  0.00  0.00     0.002 A 
ATOM     22  C   UNL d   1     -55.136-100.291 -44.030  0.00  0.00     0.000 A 
ATOM     23  C   UNL d   1     -55.112-101.124 -44.020  0.00  0.00     0.002 A 
ATOM     24  C   UNL d   1     -55.159-101.526 -43.309  0.00  0.00     0.019 A 
ENDBRANCH  17  19
ENDBRANCH  14  16
ENDBRANCH   6  13
BRANCH   2  25
ATOM     25  C   UNL d   1     -55.448-100.005 -36.265  0.00  0.00     0.057 A 
ATOM     26  C   UNL d   1     -55.589 -99.593 -35.564  0.00  0.00     0.005 A 
ATOM     27  C   UNL d   1     -55.511 -99.181 -36.274  0.00  0.00     0.005 A 
ENDBRANCH   2  25
TORSDOF 4
ENDMDL
