MODEL 1
REMARK VINA RESULT:      21.6      0.000      0.000
REMARK  3 active torsions:
REMARK  status: ('A' for Active; 'I' for Inactive)
REMARK    1  A    between atoms: S_8  and  C_1 
REMARK       I    between atoms: N_4  and  C_5 
REMARK    2  A    between atoms: C_5  and  C_9 
REMARK    3  A    between atoms: C_9  and  S_8 
ROOT
ATOM      1  S   UNL d   1      13.307  11.779  -3.424  0.00  0.00    -0.056 SA
ENDROOT
BRANCH   1   2
ATOM      2  C   UNL d   1      13.610  11.782  -2.668  0.00  0.00     0.141 A 
ATOM      3  N   UNL d   1      13.179  11.779  -1.968  0.00  0.00    -0.232 NA
ATOM      4  C   UNL d   1      13.703  11.784  -1.338  0.00  0.00     0.088 A 
ATOM      5  C   UNL d   1      13.581  11.783  -0.524  0.00  0.00     0.020 A 
ATOM      6  C   UNL d   1      14.481  11.790  -1.649  0.00  0.00     0.049 A 
ATOM      7  C   UNL d   1      14.249  11.789  -0.014  0.00  0.00     0.002 A 
ATOM      8  C   UNL d   1      14.995  11.795  -0.312  0.00  0.00     0.001 A 
ATOM      9  C   UNL d   1      15.123  11.795  -1.141  0.00  0.00     0.008 A 
ATOM     10  S   UNL d   1      14.411  11.788  -2.461  0.00  0.00    -0.060 SA
ENDBRANCH   1   2
BRANCH   1  11
ATOM     11  C   UNL d   1      12.867  12.418  -3.698  0.00  0.00     0.098 C 
BRANCH  11  12
ATOM     12  C   UNL d   1      13.046  12.790  -4.428  0.00  0.00     0.271 C 
ATOM     13  N   UNL d   1      13.027  13.629  -4.501  0.00  0.00    -0.272 N 
ATOM     14  C   UNL d   1      13.204  13.979  -5.219  0.00  0.00     0.083 A 
ATOM     15  C   UNL d   1      12.831  14.079  -3.852  0.00  0.00     0.083 A 
ATOM     16  C   UNL d   1      13.187  14.784  -5.295  0.00  0.00     0.019 A 
ATOM     17  C   UNL d   1      12.984  15.254  -4.624  0.00  0.00     0.003 A 
ATOM     18  C   UNL d   1      12.812  14.914  -3.926  0.00  0.00     0.019 A 
ATOM     19  O   UNL d   1      13.242  12.307  -5.070  0.00  0.00    -0.266 OA
ENDBRANCH  11  12
ENDBRANCH   1  11
TORSDOF 3
ENDMDL
