MODEL 1
REMARK VINA RESULT:      -4.1      0.000      0.000
REMARK  4 active torsions:
REMARK  status: ('A' for Active; 'I' for Inactive)
REMARK    1  A    between atoms: C_2  and  N_1 
REMARK    2  A    between atoms: N_7  and  C_3 
REMARK    3  A    between atoms: C_12  and  N_7 
REMARK    4  A    between atoms: C_14  and  C_12 
ROOT
ATOM      1  C   UNL d   1      58.436  -0.537  29.618  0.00  0.00     0.200 A 
ATOM      2  C   UNL d   1      58.007  -1.007  30.157  0.00  0.00     0.189 A 
ATOM      3  C   UNL d   1      58.896  -0.904  29.054  0.00  0.00     0.210 A 
ATOM      4  N   UNL d   1      58.050  -1.829  30.118  0.00  0.00    -0.203 NA
ATOM      5  N   UNL d   1      58.948  -1.711  29.003  0.00  0.00    -0.202 NA
ATOM      6  C   UNL d   1      58.519  -2.180  29.543  0.00  0.00     0.202 A 
ATOM      7  N   UNL d   1      59.325  -0.434  28.515  0.00  0.00    -0.125 N 
ENDROOT
BRANCH   2   8
ATOM      8  N   UNL d   1      57.540  -0.660  30.730  0.00  0.00    -0.224 NA
BRANCH   8   9
ATOM      9  C   UNL d   1      57.196  -1.113  31.317  0.00  0.00     0.101 C 
BRANCH   9  10
ATOM     10  C   UNL d   1      56.709  -0.758  31.885  0.00  0.00     0.019 A 
ATOM     11  C   UNL d   1      56.661   0.047  31.932  0.00  0.00     0.004 A 
ATOM     12  C   UNL d   1      56.170   0.403  32.504  0.00  0.00     0.030 A 
ATOM     13  C   UNL d   1      55.735  -0.072  33.019  0.00  0.00     0.140 A 
ATOM     14  C   UNL d   1      55.783  -0.877  32.972  0.00  0.00     0.030 A 
ATOM     15  F   UNL d   1      55.252   0.284  33.581  0.00  0.00    -0.204 F 
ATOM     16  C   UNL d   1      56.268  -1.232  32.407  0.00  0.00     0.004 A 
ENDBRANCH   9  10
ENDBRANCH   8   9
ENDBRANCH   2   8
BRANCH   1  17
ATOM     17  N   UNL d   1      58.398   0.278  29.652  0.00  0.00    -0.107 N 
ATOM     18  O   UNL d   1      58.946   0.682  30.094  0.00  0.00    -0.531 OA
ATOM     19  O   UNL d   1      57.811   0.680  29.243  0.00  0.00    -0.531 OA
ENDBRANCH   1  17
TORSDOF 4
ENDMDL
MODEL 2
REMARK VINA RESULT:      -3.8      1.297      1.659
REMARK  4 active torsions:
REMARK  status: ('A' for Active; 'I' for Inactive)
REMARK    1  A    between atoms: C_2  and  N_1 
REMARK    2  A    between atoms: N_7  and  C_3 
REMARK    3  A    between atoms: C_12  and  N_7 
REMARK    4  A    between atoms: C_14  and  C_12 
ROOT
ATOM      1  C   UNL d   1      58.476   0.269  30.401  0.00  0.00     0.200 A 
ATOM      2  C   UNL d   1      58.351   0.396  31.216  0.00  0.00     0.189 A 
ATOM      3  C   UNL d   1      59.227   0.352  30.099  0.00  0.00     0.210 A 
ATOM      4  N   UNL d   1      58.981   0.603  31.706  0.00  0.00    -0.203 NA
ATOM      5  N   UNL d   1      59.857   0.555  30.568  0.00  0.00    -0.202 NA
ATOM      6  C   UNL d   1      59.732   0.682  31.382  0.00  0.00     0.202 A 
ATOM      7  N   UNL d   1      59.352   0.225  29.284  0.00  0.00    -0.125 N 
ENDROOT
BRANCH   2   8
ATOM      8  N   UNL d   1      57.605   0.318  31.539  0.00  0.00    -0.224 NA
BRANCH   8   9
ATOM      9  C   UNL d   1      57.511   0.081  32.315  0.00  0.00     0.101 C 
BRANCH   9  10
ATOM     10  C   UNL d   1      56.753   0.023  32.644  0.00  0.00     0.019 A 
ATOM     11  C   UNL d   1      56.284   0.678  32.700  0.00  0.00     0.004 A 
ATOM     12  C   UNL d   1      55.522   0.618  33.031  0.00  0.00     0.030 A 
ATOM     13  C   UNL d   1      55.251  -0.114  33.299  0.00  0.00     0.140 A 
ATOM     14  C   UNL d   1      55.720  -0.769  33.243  0.00  0.00     0.030 A 
ATOM     15  F   UNL d   1      54.498  -0.167  33.624  0.00  0.00    -0.204 F 
ATOM     16  C   UNL d   1      56.475  -0.713  32.916  0.00  0.00     0.004 A 
ENDBRANCH   9  10
ENDBRANCH   8   9
ENDBRANCH   2   8
BRANCH   1  17
ATOM     17  N   UNL d   1      57.855   0.064  29.911  0.00  0.00    -0.107 N 
ATOM     18  O   UNL d   1      57.675  -0.722  29.809  0.00  0.00    -0.531 OA
ATOM     19  O   UNL d   1      57.422   0.646  29.529  0.00  0.00    -0.531 OA
ENDBRANCH   1  17
TORSDOF 4
ENDMDL
MODEL 3
REMARK VINA RESULT:      -2.5      2.767      4.355
REMARK  4 active torsions:
REMARK  status: ('A' for Active; 'I' for Inactive)
REMARK    1  A    between atoms: C_2  and  N_1 
REMARK    2  A    between atoms: N_7  and  C_3 
REMARK    3  A    between atoms: C_12  and  N_7 
REMARK    4  A    between atoms: C_14  and  C_12 
ROOT
ATOM      1  C   UNL d   1      56.313   0.145  33.354  0.00  0.00     0.200 A 
ATOM      2  C   UNL d   1      57.051   0.254  32.982  0.00  0.00     0.189 A 
ATOM      3  C   UNL d   1      56.243   0.308  34.148  0.00  0.00     0.210 A 
ATOM      4  N   UNL d   1      57.699   0.523  33.415  0.00  0.00    -0.203 NA
ATOM      5  N   UNL d   1      56.871   0.573  34.587  0.00  0.00    -0.202 NA
ATOM      6  C   UNL d   1      57.609   0.682  34.215  0.00  0.00     0.202 A 
ATOM      7  N   UNL d   1      55.504   0.198  34.520  0.00  0.00    -0.125 N 
ENDROOT
BRANCH   2   8
ATOM      8  N   UNL d   1      57.143   0.097  32.185  0.00  0.00    -0.224 NA
BRANCH   8   9
ATOM      9  C   UNL d   1      57.872   0.183  31.826  0.00  0.00     0.101 C 
BRANCH   9  10
ATOM     10  C   UNL d   1      57.951   0.057  31.011  0.00  0.00     0.019 A 
ATOM     11  C   UNL d   1      57.929   0.682  30.500  0.00  0.00     0.004 A 
ATOM     12  C   UNL d   1      58.009   0.554  29.681  0.00  0.00     0.030 A 
ATOM     13  C   UNL d   1      58.111  -0.214  29.396  0.00  0.00     0.140 A 
ATOM     14  C   UNL d   1      58.133  -0.840  29.908  0.00  0.00     0.030 A 
ATOM     15  F   UNL d   1      58.189  -0.335  28.587  0.00  0.00    -0.204 F 
ATOM     16  C   UNL d   1      58.054  -0.716  30.719  0.00  0.00     0.004 A 
ENDBRANCH   9  10
ENDBRANCH   8   9
ENDBRANCH   2   8
BRANCH   1  17
ATOM     17  N   UNL d   1      55.667  -0.122  32.929  0.00  0.00    -0.107 N 
ATOM     18  O   UNL d   1      55.157   0.420  32.603  0.00  0.00    -0.531 OA
ATOM     19  O   UNL d   1      55.539  -0.926  32.835  0.00  0.00    -0.531 OA
ENDBRANCH   1  17
TORSDOF 4
ENDMDL
MODEL 4
REMARK VINA RESULT:      -2.0      2.577      4.200
REMARK  4 active torsions:
REMARK  status: ('A' for Active; 'I' for Inactive)
REMARK    1  A    between atoms: C_2  and  N_1 
REMARK    2  A    between atoms: N_7  and  C_3 
REMARK    3  A    between atoms: C_12  and  N_7 
REMARK    4  A    between atoms: C_14  and  C_12 
ROOT
ATOM      1  C   UNL d   1      56.266  -0.752  32.401  0.00  0.00     0.200 A 
ATOM      2  C   UNL d   1      56.533  -0.037  32.066  0.00  0.00     0.189 A 
ATOM      3  C   UNL d   1      55.667  -0.731  32.952  0.00  0.00     0.210 A 
ATOM      4  N   UNL d   1      56.193   0.680  32.290  0.00  0.00    -0.203 NA
ATOM      5  N   UNL d   1      55.323  -0.034  33.183  0.00  0.00    -0.202 NA
ATOM      6  C   UNL d   1      55.590   0.682  32.847  0.00  0.00     0.202 A 
ATOM      7  N   UNL d   1      55.400  -1.446  33.288  0.00  0.00    -0.125 N 
ENDROOT
BRANCH   2   8
ATOM      8  N   UNL d   1      57.133  -0.035  31.511  0.00  0.00    -0.224 NA
BRANCH   8   9
ATOM      9  C   UNL d   1      57.557   0.646  31.358  0.00  0.00     0.101 C 
BRANCH   9  10
ATOM     10  C   UNL d   1      58.158   0.643  30.789  0.00  0.00     0.019 A 
ATOM     11  C   UNL d   1      57.974   0.681  30.004  0.00  0.00     0.004 A 
ATOM     12  C   UNL d   1      58.580   0.678  29.432  0.00  0.00     0.030 A 
ATOM     13  C   UNL d   1      59.368   0.636  29.674  0.00  0.00     0.140 A 
ATOM     14  C   UNL d   1      59.552   0.598  30.460  0.00  0.00     0.030 A 
ATOM     15  F   UNL d   1      59.961   0.634  29.106  0.00  0.00    -0.204 F 
ATOM     16  C   UNL d   1      58.955   0.601  31.028  0.00  0.00     0.004 A 
ENDBRANCH   9  10
ENDBRANCH   8   9
ENDBRANCH   2   8
BRANCH   1  17
ATOM     17  N   UNL d   1      56.600  -1.465  32.182  0.00  0.00    -0.107 N 
ATOM     18  O   UNL d   1      57.025  -1.888  32.730  0.00  0.00    -0.531 OA
ATOM     19  O   UNL d   1      56.504  -1.747  31.418  0.00  0.00    -0.531 OA
ENDBRANCH   1  17
TORSDOF 4
ENDMDL
