MODEL 1
REMARK VINA RESULT:      43.2      0.000      0.000
REMARK  1 active torsions:
REMARK  status: ('A' for Active; 'I' for Inactive)
REMARK    1  A    between atoms: C_2  and  N_1 
ROOT
ATOM      1  C   UNL d   1      59.357  49.647  49.930  0.00  0.00     0.153 A 
ATOM      2  C   UNL d   1      59.473  49.662  50.739  0.00  0.00     0.059 A 
ATOM      3  C   UNL d   1      60.277  49.665  51.047  0.00  0.00     0.115 A 
ATOM      4  S   UNL d   1      60.205  49.680  51.872  0.00  0.00    -0.068 SA
ATOM      5  C   UNL d   1      58.960  49.676  51.378  0.00  0.00     0.011 A 
ATOM      6  C   UNL d   1      59.405  49.687  52.073  0.00  0.00     0.031 A 
ATOM      7  N   UNL d   1      59.997  49.634  49.379  0.00  0.00    -0.206 NA
ATOM      8  N   UNL d   1      60.918  49.653  50.538  0.00  0.00    -0.217 NA
ATOM      9  C   UNL d   1      60.814  49.637  49.698  0.00  0.00     0.201 A 
ATOM     10  C   UNL d   1      58.132  49.680  51.430  0.00  0.00     0.001 A 
ATOM     11  C   UNL d   1      59.032  49.703  52.825  0.00  0.00     0.006 A 
ATOM     12  C   UNL d   1      57.724  49.695  52.183  0.00  0.00     0.000 A 
ATOM     13  C   UNL d   1      58.198  49.706  52.851  0.00  0.00     0.001 A 
ENDROOT
BRANCH   1  14
ATOM     14  N   UNL d   1      58.541  49.652  50.040  0.00  0.00    -0.273 N 
ATOM     15  C   UNL d   1      58.482  49.679  50.889  0.00  0.00     0.184 A 
ATOM     16  N   UNL d   1      57.692  49.687  51.096  0.00  0.00    -0.224 NA
ATOM     17  C   UNL d   1      57.254  49.666  50.409  0.00  0.00     0.099 A 
ATOM     18  C   UNL d   1      57.763  49.644  49.724  0.00  0.00     0.085 A 
ATOM     19  C   UNL d   1      56.443  49.664  50.284  0.00  0.00     0.021 A 
ATOM     20  C   UNL d   1      57.459  49.621  48.975  0.00  0.00     0.019 A 
ATOM     21  C   UNL d   1      56.639  49.619  48.871  0.00  0.00     0.002 A 
ATOM     22  C   UNL d   1      56.150  49.641  49.523  0.00  0.00     0.002 A 
ENDBRANCH   1  14
TORSDOF 1
ENDMDL
