MODEL 1
REMARK VINA RESULT:      -4.3      0.000      0.000
REMARK  5 active torsions:
REMARK  status: ('A' for Active; 'I' for Inactive)
REMARK    1  A    between atoms: C_2  and  S_1 
REMARK    2  A    between atoms: N_4  and  S_1 
REMARK    3  A    between atoms: C_10  and  C_9 
REMARK       I    between atoms: N_15  and  C_10 
REMARK    4  A    between atoms: C_24  and  N_15 
REMARK    5  A    between atoms: C_16  and  C_24 
ROOT
ATOM      1  N   UNL d   1      59.269  -0.093  29.166  0.00  0.00    -0.229 N 
ATOM      2  C   UNL d   1      58.380   0.242  30.228  0.00  0.00     0.076 A 
ATOM      3  C   UNL d   1      59.106  -0.017  29.975  0.00  0.00     0.096 A 
ATOM      4  C   UNL d   1      58.691   0.095  28.623  0.00  0.00     0.092 A 
ATOM      5  C   UNL d   1      57.779   0.437  29.660  0.00  0.00     0.008 A 
ATOM      6  C   UNL d   1      57.955   0.356  28.858  0.00  0.00     0.020 A 
ENDROOT
BRANCH   1   7
ATOM      7  S   UNL d   1      60.019  -0.360  28.920  0.00  0.00     0.273 S 
ATOM      8  O   UNL d   1      60.760  -0.627  28.677  0.00  0.00    -0.200 OA
ATOM      9  O   UNL d   1      60.313   0.413  28.954  0.00  0.00    -0.200 OA
BRANCH   7  10
ATOM     10  C   UNL d   1      59.730  -1.137  28.885  0.00  0.00     0.125 A 
ATOM     11  C   UNL d   1      60.142  -1.756  29.230  0.00  0.00     0.142 A 
ATOM     12  C   UNL d   1      59.847  -2.529  29.190  0.00  0.00     0.131 A 
ATOM     13  N   UNL d   1      60.855  -1.766  29.648  0.00  0.00    -0.101 NA
ATOM     14  N   UNL d   1      60.381  -3.019  29.585  0.00  0.00    -0.102 NA
ATOM     15  C   UNL d   1      59.148  -2.681  28.808  0.00  0.00     0.023 A 
ATOM     16  O   UNL d   1      60.996  -2.553  29.865  0.00  0.00    -0.106 OA
ATOM     17  C   UNL d   1      58.723  -2.069  28.456  0.00  0.00     0.002 A 
ATOM     18  C   UNL d   1      59.017  -1.292  28.495  0.00  0.00     0.015 A 
ENDBRANCH   7  10
ENDBRANCH   1   7
BRANCH   2  19
ATOM     19  C   UNL d   1      58.206   0.322  31.025  0.00  0.00     0.281 C 
ATOM     20  N   UNL d   1      57.492   0.052  31.331  0.00  0.00    -0.204 NA
ATOM     21  O   UNL d   1      58.764   0.682  31.521  0.00  0.00    -0.265 OA
BRANCH  20  22
ATOM     22  C   UNL d   1      57.324   0.142  32.158  0.00  0.00     0.127 C 
BRANCH  22  23
ATOM     23  C   UNL d   1      56.664  -0.267  32.497  0.00  0.00     0.119 A 
ATOM     24  O   UNL d   1      56.531  -1.080  32.460  0.00  0.00    -0.304 OA
ATOM     25  C   UNL d   1      55.827  -1.243  32.861  0.00  0.00     0.123 A 
ATOM     26  C   UNL d   1      55.527  -0.530  33.144  0.00  0.00     0.029 A 
ATOM     27  C   UNL d   1      56.048   0.074  32.917  0.00  0.00     0.028 A 
ENDBRANCH  22  23
ENDBRANCH  20  22
ENDBRANCH   2  19
TORSDOF 5
ENDMDL
MODEL 2
REMARK VINA RESULT:      -2.6      1.728      4.876
REMARK  5 active torsions:
REMARK  status: ('A' for Active; 'I' for Inactive)
REMARK    1  A    between atoms: C_2  and  S_1 
REMARK    2  A    between atoms: N_4  and  S_1 
REMARK    3  A    between atoms: C_10  and  C_9 
REMARK       I    between atoms: N_15  and  C_10 
REMARK    4  A    between atoms: C_24  and  N_15 
REMARK    5  A    between atoms: C_16  and  C_24 
ROOT
ATOM      1  N   UNL d   1      57.353   0.345  32.083  0.00  0.00    -0.229 N 
ATOM      2  C   UNL d   1      57.833   0.236  30.746  0.00  0.00     0.076 A 
ATOM      3  C   UNL d   1      57.956   0.164  31.544  0.00  0.00     0.096 A 
ATOM      4  C   UNL d   1      56.631   0.599  31.802  0.00  0.00     0.092 A 
ATOM      5  C   UNL d   1      57.079   0.501  30.456  0.00  0.00     0.008 A 
ATOM      6  C   UNL d   1      56.488   0.678  31.003  0.00  0.00     0.020 A 
ENDROOT
BRANCH   1   7
ATOM      7  S   UNL d   1      57.493   0.266  32.899  0.00  0.00     0.273 S 
ATOM      8  O   UNL d   1      57.629   0.186  33.709  0.00  0.00    -0.200 OA
ATOM      9  O   UNL d   1      58.204   0.682  32.825  0.00  0.00    -0.200 OA
BRANCH   7  10
ATOM     10  C   UNL d   1      56.780  -0.152  32.981  0.00  0.00     0.125 A 
ATOM     11  C   UNL d   1      56.224   0.069  33.541  0.00  0.00     0.142 A 
ATOM     12  C   UNL d   1      55.515  -0.353  33.616  0.00  0.00     0.131 A 
ATOM     13  N   UNL d   1      56.227   0.681  34.096  0.00  0.00    -0.101 NA
ATOM     14  N   UNL d   1      55.078   0.001  34.220  0.00  0.00    -0.102 NA
ATOM     15  C   UNL d   1      55.365  -0.989  33.136  0.00  0.00     0.023 A 
ATOM     16  O   UNL d   1      55.513   0.632  34.513  0.00  0.00    -0.106 OA
ATOM     17  C   UNL d   1      55.915  -1.223  32.568  0.00  0.00     0.002 A 
ATOM     18  C   UNL d   1      56.627  -0.800  32.491  0.00  0.00     0.015 A 
ENDBRANCH   7  10
ENDBRANCH   1   7
BRANCH   2  19
ATOM     19  C   UNL d   1      58.421   0.060  30.202  0.00  0.00     0.281 C 
ATOM     20  N   UNL d   1      58.560  -0.715  29.964  0.00  0.00    -0.204 NA
ATOM     21  O   UNL d   1      58.877   0.680  29.892  0.00  0.00    -0.265 OA
BRANCH  20  22
ATOM     22  C   UNL d   1      59.171  -0.883  29.401  0.00  0.00     0.127 C 
BRANCH  22  23
ATOM     23  C   UNL d   1      59.276  -1.676  29.122  0.00  0.00     0.119 A 
ATOM     24  O   UNL d   1      58.683  -2.161  28.818  0.00  0.00    -0.304 OA
ATOM     25  C   UNL d   1      59.024  -2.886  28.613  0.00  0.00     0.123 A 
ATOM     26  C   UNL d   1      59.827  -2.846  28.793  0.00  0.00     0.029 A 
ATOM     27  C   UNL d   1      59.980  -2.094  29.108  0.00  0.00     0.028 A 
ENDBRANCH  22  23
ENDBRANCH  20  22
ENDBRANCH   2  19
TORSDOF 5
ENDMDL
