MODEL 1
REMARK VINA RESULT:      71.8      0.000      0.000
REMARK  4 active torsions:
REMARK  status: ('A' for Active; 'I' for Inactive)
REMARK    1  A    between atoms: C_2  and  S_1 
REMARK    2  A    between atoms: N_3  and  S_1 
REMARK    3  A    between atoms: C_7  and  N_3 
REMARK    4  A    between atoms: C_8  and  C_4 
ROOT
ATOM      1  S   UNL d   1      59.065  48.695  50.947  0.00  0.00     0.285 S 
ATOM      2  O   UNL d   1      59.320  49.386  50.571  0.00  0.00    -0.198 OA
ATOM      3  O   UNL d   1      58.805  47.998  51.326  0.00  0.00    -0.198 OA
ENDROOT
BRANCH   1   4
ATOM      4  C   UNL d   1      59.837  48.383  50.906  0.00  0.00     0.105 A 
ATOM      5  C   UNL d   1      59.945  47.567  50.850  0.00  0.00     0.012 A 
ATOM      6  C   UNL d   1      60.705  47.253  50.809  0.00  0.00     0.001 A 
ATOM      7  C   UNL d   1      59.286  47.052  50.832  0.00  0.00     0.001 C 
ATOM      8  C   UNL d   1      60.813  46.437  50.752  0.00  0.00     0.000 C 
ATOM      9  C   UNL d   1      61.368  47.765  50.826  0.00  0.00     0.000 A 
ATOM     10  C   UNL d   1      61.252  48.584  50.883  0.00  0.00     0.001 A 
ATOM     11  C   UNL d   1      60.488  48.893  50.923  0.00  0.00     0.012 A 
ATOM     12  C   UNL d   1      61.911  49.100  50.900  0.00  0.00     0.000 C 
ATOM     13  C   UNL d   1      60.368  49.707  50.980  0.00  0.00     0.001 C 
ENDBRANCH   1   4
BRANCH   1  14
ATOM     14  N   UNL d   1      58.294  49.003  50.989  0.00  0.00    -0.158 NA
BRANCH  14  15
ATOM     15  C   UNL d   1      57.902  49.231  50.296  0.00  0.00     0.100 A 
ATOM     16  C   UNL d   1      57.075  49.309  50.293  0.00  0.00     0.083 A 
ATOM     17  C   UNL d   1      56.683  49.536  49.606  0.00  0.00     0.008 A 
ATOM     18  C   UNL d   1      57.111  49.687  48.917  0.00  0.00     0.000 A 
ATOM     19  C   UNL d   1      57.930  49.611  48.915  0.00  0.00     0.002 A 
ATOM     20  C   UNL d   1      58.330  49.382  49.606  0.00  0.00     0.020 A 
BRANCH  16  21
ATOM     21  C   UNL d   1      56.644  49.159  50.980  0.00  0.00     0.212 C 
ATOM     22  O   UNL d   1      56.638  49.706  51.595  0.00  0.00    -0.644 OA
ATOM     23  O   UNL d   1      56.215  48.458  51.054  0.00  0.00    -0.644 OA
ENDBRANCH  16  21
ENDBRANCH  14  15
ENDBRANCH   1  14
TORSDOF 4
ENDMDL
