MODEL 1
REMARK VINA RESULT:      -9.7      0.000      0.000
REMARK  5 active torsions:
REMARK  status: ('A' for Active; 'I' for Inactive)
REMARK    1  A    between atoms: C_6  and  C_1 
REMARK    2  A    between atoms: C_11  and  N_3 
REMARK    3  A    between atoms: C_20  and  C_11 
REMARK    4  A    between atoms: C_13  and  O_19 
REMARK    5  A    between atoms: O_19  and  C_20 
ROOT
ATOM      1  C   UNL d   1      54.019  32.117  54.070  0.00  0.00     0.171 A 
ATOM      2  N   UNL d   1      54.134  31.321  54.262  0.00  0.00    -0.225 NA
ATOM      3  N   UNL d   1      53.419  32.161  53.496  0.00  0.00    -0.286 N 
ATOM      4  C   UNL d   1      53.163  31.391  53.334  0.00  0.00     0.083 A 
ATOM      5  C   UNL d   1      53.605  30.871  53.807  0.00  0.00     0.099 A 
ATOM      6  C   UNL d   1      52.584  31.082  52.817  0.00  0.00     0.019 A 
ATOM      7  C   UNL d   1      53.469  30.051  53.764  0.00  0.00     0.021 A 
ATOM      8  C   UNL d   1      52.453  30.270  52.778  0.00  0.00     0.002 A 
ATOM      9  C   UNL d   1      52.897  29.753  53.252  0.00  0.00     0.002 A 
ENDROOT
BRANCH   3  10
ATOM     10  C   UNL d   1      53.241  32.927  53.248  0.00  0.00     0.108 C 
BRANCH  10  11
ATOM     11  C   UNL d   1      52.474  33.114  53.011  0.00  0.00     0.142 C 
BRANCH  11  12
ATOM     12  O   UNL d   1      52.281  33.894  52.823  0.00  0.00    -0.304 OA
BRANCH  12  13
ATOM     13  C   UNL d   1      51.505  34.088  52.623  0.00  0.00     0.100 A 
ATOM     14  C   UNL d   1      51.288  34.115  51.828  0.00  0.00     0.026 A 
ATOM     15  C   UNL d   1      50.512  34.309  51.623  0.00  0.00     0.013 A 
ATOM     16  C   UNL d   1      49.959  34.474  52.219  0.00  0.00     0.058 A 
ATOM     17  C   UNL d   1      50.183  34.445  53.011  0.00  0.00     0.013 A 
ATOM     18 CL   UNL d   1      49.185  34.667  52.016  0.00  0.00    -0.082 Cl
ATOM     19  C   UNL d   1      50.960  34.251  53.211  0.00  0.00     0.026 A 
ENDBRANCH  12  13
ENDBRANCH  11  12
ENDBRANCH  10  11
ENDBRANCH   3  10
BRANCH   1  20
ATOM     20  C   UNL d   1      54.428  32.758  54.392  0.00  0.00     0.134 A 
ATOM     21  O   UNL d   1      54.962  33.187  54.169  0.00  0.00    -0.302 OA
ATOM     22  C   UNL d   1      55.204  33.714  54.593  0.00  0.00     0.123 A 
ATOM     23  C   UNL d   1      54.912  33.817  55.248  0.00  0.00     0.029 A 
ATOM     24  C   UNL d   1      54.380  33.389  55.467  0.00  0.00     0.030 A 
ENDBRANCH   1  20
TORSDOF 5
ENDMDL
MODEL 2
REMARK VINA RESULT:      -9.0      1.962      4.420
REMARK  5 active torsions:
REMARK  status: ('A' for Active; 'I' for Inactive)
REMARK    1  A    between atoms: C_6  and  C_1 
REMARK    2  A    between atoms: C_11  and  N_3 
REMARK    3  A    between atoms: C_20  and  C_11 
REMARK    4  A    between atoms: C_13  and  O_19 
REMARK    5  A    between atoms: O_19  and  C_20 
ROOT
ATOM      1  C   UNL d   1      52.230  34.250  53.305  0.00  0.00     0.171 A 
ATOM      2  N   UNL d   1      52.421  34.884  53.800  0.00  0.00    -0.225 NA
ATOM      3  N   UNL d   1      52.771  33.636  53.450  0.00  0.00    -0.286 N 
ATOM      4  C   UNL d   1      53.297  33.891  54.036  0.00  0.00     0.083 A 
ATOM      5  C   UNL d   1      53.082  34.663  54.253  0.00  0.00     0.099 A 
ATOM      6  C   UNL d   1      53.951  33.528  54.409  0.00  0.00     0.019 A 
ATOM      7  C   UNL d   1      53.515  35.067  54.836  0.00  0.00     0.021 A 
ATOM      8  C   UNL d   1      54.377  33.933  54.986  0.00  0.00     0.002 A 
ATOM      9  C   UNL d   1      54.159  34.704  55.201  0.00  0.00     0.002 A 
ENDROOT
BRANCH   3  10
ATOM     10  C   UNL d   1      52.650  32.960  52.993  0.00  0.00     0.108 C 
BRANCH  10  11
ATOM     11  C   UNL d   1      53.015  32.252  53.202  0.00  0.00     0.142 C 
BRANCH  11  12
ATOM     12  O   UNL d   1      52.838  31.560  52.788  0.00  0.00    -0.304 OA
BRANCH  12  13
ATOM     13  C   UNL d   1      52.951  30.827  53.147  0.00  0.00     0.100 A 
ATOM     14  C   UNL d   1      52.296  30.351  53.308  0.00  0.00     0.026 A 
ATOM     15  C   UNL d   1      52.404  29.616  53.667  0.00  0.00     0.013 A 
ATOM     16  C   UNL d   1      53.170  29.362  53.862  0.00  0.00     0.058 A 
ATOM     17  C   UNL d   1      53.818  29.843  53.698  0.00  0.00     0.013 A 
ATOM     18 CL   UNL d   1      53.279  28.629  54.220  0.00  0.00    -0.082 Cl
ATOM     19  C   UNL d   1      53.706  30.577  53.339  0.00  0.00     0.026 A 
ENDBRANCH  12  13
ENDBRANCH  11  12
ENDBRANCH  10  11
ENDBRANCH   3  10
BRANCH   1  20
ATOM     20  C   UNL d   1      51.609  34.230  52.760  0.00  0.00     0.134 A 
ATOM     21  O   UNL d   1      51.555  34.294  52.046  0.00  0.00    -0.302 OA
ATOM     22  C   UNL d   1      50.914  34.249  51.726  0.00  0.00     0.123 A 
ATOM     23  C   UNL d   1      50.317  34.139  52.121  0.00  0.00     0.029 A 
ATOM     24  C   UNL d   1      50.374  34.075  52.833  0.00  0.00     0.030 A 
ENDBRANCH   1  20
TORSDOF 5
ENDMDL
MODEL 3
REMARK VINA RESULT:      -8.6      1.917      3.910
REMARK  5 active torsions:
REMARK  status: ('A' for Active; 'I' for Inactive)
REMARK    1  A    between atoms: C_6  and  C_1 
REMARK    2  A    between atoms: C_11  and  N_3 
REMARK    3  A    between atoms: C_20  and  C_11 
REMARK    4  A    between atoms: C_13  and  O_19 
REMARK    5  A    between atoms: O_19  and  C_20 
ROOT
ATOM      1  C   UNL d   1      53.080  33.855  53.814  0.00  0.00     0.171 A 
ATOM      2  N   UNL d   1      52.582  34.510  53.896  0.00  0.00    -0.225 NA
ATOM      3  N   UNL d   1      52.724  33.323  53.284  0.00  0.00    -0.286 N 
ATOM      4  C   UNL d   1      52.005  33.650  53.037  0.00  0.00     0.083 A 
ATOM      5  C   UNL d   1      51.916  34.384  53.415  0.00  0.00     0.099 A 
ATOM      6  C   UNL d   1      51.409  33.383  52.516  0.00  0.00     0.019 A 
ATOM      7  C   UNL d   1      51.239  34.846  53.274  0.00  0.00     0.021 A 
ATOM      8  C   UNL d   1      50.740  33.844  52.379  0.00  0.00     0.002 A 
ATOM      9  C   UNL d   1      50.655  34.577  52.759  0.00  0.00     0.002 A 
ENDROOT
BRANCH   3  10
ATOM     10  C   UNL d   1      53.161  32.637  53.146  0.00  0.00     0.108 C 
BRANCH  10  11
ATOM     11  C   UNL d   1      52.779  31.908  53.113  0.00  0.00     0.142 C 
BRANCH  11  12
ATOM     12  O   UNL d   1      53.172  31.252  52.802  0.00  0.00    -0.304 OA
BRANCH  12  13
ATOM     13  C   UNL d   1      53.201  30.550  53.231  0.00  0.00     0.100 A 
ATOM     14  C   UNL d   1      52.524  30.081  53.284  0.00  0.00     0.026 A 
ATOM     15  C   UNL d   1      52.547  29.376  53.713  0.00  0.00     0.013 A 
ATOM     16  C   UNL d   1      53.252  29.146  54.087  0.00  0.00     0.058 A 
ATOM     17  C   UNL d   1      53.924  29.619  54.029  0.00  0.00     0.013 A 
ATOM     18 CL   UNL d   1      53.276  28.443  54.514  0.00  0.00    -0.082 Cl
ATOM     19  C   UNL d   1      53.895  30.322  53.599  0.00  0.00     0.026 A 
ENDBRANCH  12  13
ENDBRANCH  11  12
ENDBRANCH  10  11
ENDBRANCH   3  10
BRANCH   1  20
ATOM     20  C   UNL d   1      53.806  33.748  54.194  0.00  0.00     0.134 A 
ATOM     21  O   UNL d   1      54.497  33.798  53.998  0.00  0.00    -0.302 OA
ATOM     22  C   UNL d   1      55.018  33.665  54.474  0.00  0.00     0.123 A 
ATOM     23  C   UNL d   1      54.852  33.479  55.154  0.00  0.00     0.029 A 
ATOM     24  C   UNL d   1      54.163  33.430  55.346  0.00  0.00     0.030 A 
ENDBRANCH   1  20
TORSDOF 5
ENDMDL
MODEL 4
REMARK VINA RESULT:      -8.2      0.886      2.600
REMARK  5 active torsions:
REMARK  status: ('A' for Active; 'I' for Inactive)
REMARK    1  A    between atoms: C_6  and  C_1 
REMARK    2  A    between atoms: C_11  and  N_3 
REMARK    3  A    between atoms: C_20  and  C_11 
REMARK    4  A    between atoms: C_13  and  O_19 
REMARK    5  A    between atoms: O_19  and  C_20 
ROOT
ATOM      1  C   UNL d   1      53.470  31.923  53.766  0.00  0.00     0.171 A 
ATOM      2  N   UNL d   1      54.031  31.928  54.374  0.00  0.00    -0.225 NA
ATOM      3  N   UNL d   1      53.215  32.705  53.643  0.00  0.00    -0.286 N 
ATOM      4  C   UNL d   1      53.618  33.193  54.176  0.00  0.00     0.083 A 
ATOM      5  C   UNL d   1      54.123  32.714  54.628  0.00  0.00     0.099 A 
ATOM      6  C   UNL d   1      53.599  34.016  54.317  0.00  0.00     0.019 A 
ATOM      7  C   UNL d   1      54.604  33.054  55.215  0.00  0.00     0.021 A 
ATOM      8  C   UNL d   1      54.077  34.349  54.900  0.00  0.00     0.002 A 
ATOM      9  C   UNL d   1      54.581  33.866  55.350  0.00  0.00     0.002 A 
ENDROOT
BRANCH   3  10
ATOM     10  C   UNL d   1      52.649  32.788  53.048  0.00  0.00     0.108 C 
BRANCH  10  11
ATOM     11  C   UNL d   1      52.100  33.401  53.087  0.00  0.00     0.142 C 
BRANCH  11  12
ATOM     12  O   UNL d   1      51.760  33.692  52.394  0.00  0.00    -0.304 OA
BRANCH  12  13
ATOM     13  C   UNL d   1      51.015  34.044  52.419  0.00  0.00     0.100 A 
ATOM     14  C   UNL d   1      50.551  34.056  51.736  0.00  0.00     0.026 A 
ATOM     15  C   UNL d   1      49.805  34.409  51.756  0.00  0.00     0.013 A 
ATOM     16  C   UNL d   1      49.529  34.747  52.462  0.00  0.00     0.058 A 
ATOM     17  C   UNL d   1      49.998  34.731  53.139  0.00  0.00     0.013 A 
ATOM     18 CL   UNL d   1      48.785  35.098  52.483  0.00  0.00    -0.082 Cl
ATOM     19  C   UNL d   1      50.743  34.378  53.114  0.00  0.00     0.026 A 
ENDBRANCH  12  13
ENDBRANCH  11  12
ENDBRANCH  10  11
ENDBRANCH   3  10
BRANCH   1  20
ATOM     20  C   UNL d   1      53.209  31.258  53.353  0.00  0.00     0.134 A 
ATOM     21  O   UNL d   1      53.276  31.017  52.677  0.00  0.00    -0.302 OA
ATOM     22  C   UNL d   1      52.974  30.396  52.483  0.00  0.00     0.123 A 
ATOM     23  C   UNL d   1      52.599  30.007  52.966  0.00  0.00     0.029 A 
ATOM     24  C   UNL d   1      52.534  30.248  53.638  0.00  0.00     0.030 A 
ENDBRANCH   1  20
TORSDOF 5
ENDMDL
