MODEL 1
REMARK VINA RESULT:      -1.8      0.000      0.000
REMARK  4 active torsions:
REMARK  status: ('A' for Active; 'I' for Inactive)
REMARK    1  A    between atoms: S_12  and  C_5 
REMARK       I    between atoms: N_7  and  C_9 
REMARK    2  A    between atoms: C_19  and  N_8 
REMARK    3  A    between atoms: C_9  and  C_14 
REMARK    4  A    between atoms: C_14  and  S_12 
ROOT
ATOM      1  C   UNL d   1      58.078  -0.042  30.897  0.00  0.00     0.098 C 
ENDROOT
BRANCH   1   2
ATOM      2  C   UNL d   1      58.192   0.280  31.648  0.00  0.00     0.272 C 
ATOM      3  N   UNL d   1      57.562   0.321  32.182  0.00  0.00    -0.269 N 
ATOM      4  C   UNL d   1      56.822   0.039  31.962  0.00  0.00     0.102 A 
ATOM      5  C   UNL d   1      57.675   0.641  32.929  0.00  0.00     0.102 A 
ATOM      6  C   UNL d   1      56.192   0.080  32.496  0.00  0.00     0.100 A 
ATOM      7  N   UNL d   1      56.306   0.403  33.247  0.00  0.00    -0.301 N 
ATOM      8  C   UNL d   1      57.049   0.682  33.460  0.00  0.00     0.100 A 
ATOM      9  O   UNL d   1      58.938   0.559  31.859  0.00  0.00    -0.266 OA
BRANCH   7  10
ATOM     10  C   UNL d   1      55.681   0.444  33.778  0.00  0.00     0.064 A 
ATOM     11  C   UNL d   1      54.917   0.581  33.510  0.00  0.00     0.018 A 
ATOM     12  C   UNL d   1      54.290   0.623  34.045  0.00  0.00     0.002 A 
ATOM     13  C   UNL d   1      54.427   0.526  34.846  0.00  0.00     0.000 A 
ATOM     14  C   UNL d   1      55.194   0.388  35.117  0.00  0.00     0.002 A 
ATOM     15  C   UNL d   1      55.819   0.347  34.586  0.00  0.00     0.018 A 
ENDBRANCH   7  10
ENDBRANCH   1   2
BRANCH   1  16
ATOM     16  S   UNL d   1      58.727  -0.189  30.405  0.00  0.00    -0.060 SA
BRANCH  16  17
ATOM     17  C   UNL d   1      58.642  -0.699  29.753  0.00  0.00     0.137 A 
ATOM     18  C   UNL d   1      59.177  -1.310  29.625  0.00  0.00     0.141 A 
ATOM     19  O   UNL d   1      59.846  -1.551  30.045  0.00  0.00    -0.303 OA
ATOM     20  C   UNL d   1      59.086  -1.813  28.973  0.00  0.00     0.110 A 
ATOM     21  C   UNL d   1      60.171  -2.207  29.651  0.00  0.00     0.102 A 
ATOM     22  C   UNL d   1      60.835  -2.677  29.811  0.00  0.00     0.025 A 
ATOM     23  C   UNL d   1      59.698  -2.363  28.991  0.00  0.00     0.043 A 
ATOM     24  C   UNL d   1      61.019  -3.304  29.305  0.00  0.00     0.002 A 
ATOM     25  C   UNL d   1      60.550  -3.464  28.645  0.00  0.00     0.000 A 
ATOM     26  C   UNL d   1      59.886  -2.994  28.484  0.00  0.00     0.004 A 
ATOM     27  N   UNL d   1      58.455  -1.696  28.455  0.00  0.00    -0.222 NA
ATOM     28  C   UNL d   1      57.919  -1.085  28.582  0.00  0.00     0.200 A 
ATOM     29  N   UNL d   1      58.008  -0.585  29.227  0.00  0.00    -0.215 NA
ENDBRANCH  16  17
ENDBRANCH   1  16
TORSDOF 4
ENDMDL
