MODEL 1
REMARK VINA RESULT:      -6.2      0.000      0.000
REMARK  3 active torsions:
REMARK  status: ('A' for Active; 'I' for Inactive)
REMARK    1  A    between atoms: C_2  and  C_1 
REMARK    2  A    between atoms: C_3  and  C_2 
REMARK       I    between atoms: N_5  and  C_3 
REMARK    3  A    between atoms: C_10  and  N_8 
ROOT
ATOM      1  C   UNL d   1      58.642  -0.077  29.712  0.00  0.00     0.304 C 
ATOM      2  N   UNL d   1      58.103  -0.076  30.333  0.00  0.00    -0.266 N 
ATOM      3  N   UNL d   1      57.020  -0.072  31.582  0.00  0.00    -0.301 N 
ATOM      4  O   UNL d   1      59.001   0.627  29.479  0.00  0.00    -0.263 OA
ATOM      5  C   UNL d   1      57.922   0.627  30.721  0.00  0.00     0.102 A 
ATOM      6  C   UNL d   1      57.748  -0.781  30.561  0.00  0.00     0.102 A 
ATOM      7  C   UNL d   1      57.208  -0.777  31.184  0.00  0.00     0.100 A 
ATOM      8  C   UNL d   1      57.385   0.634  31.342  0.00  0.00     0.100 A 
ENDROOT
BRANCH   1   9
ATOM      9  C   UNL d   1      58.825  -0.787  29.319  0.00  0.00     0.253 C 
ATOM     10  O   UNL d   1      58.215  -1.270  29.043  0.00  0.00    -0.281 OA
BRANCH   9  11
ATOM     11  C   UNL d   1      59.609  -1.002  29.209  0.00  0.00     0.064 A 
ATOM     12  C   UNL d   1      60.270  -0.507  29.237  0.00  0.00     0.102 A 
ATOM     13  N   UNL d   1      60.946  -0.953  29.096  0.00  0.00    -0.244 NA
ATOM     14  C   UNL d   1      60.708  -1.735  28.979  0.00  0.00     0.082 A 
ATOM     15  C   UNL d   1      59.884  -1.765  29.049  0.00  0.00     0.022 A 
ATOM     16  C   UNL d   1      61.133  -2.421  28.818  0.00  0.00     0.019 A 
ATOM     17  C   UNL d   1      59.490  -2.482  28.957  0.00  0.00     0.002 A 
ATOM     18  C   UNL d   1      59.922  -3.175  28.795  0.00  0.00     0.000 A 
ATOM     19  C   UNL d   1      60.740  -3.138  28.727  0.00  0.00     0.002 A 
ENDBRANCH   9  11
ENDBRANCH   1   9
BRANCH   3  20
ATOM     20  C   UNL d   1      56.484  -0.063  32.201  0.00  0.00     0.064 A 
ATOM     21  C   UNL d   1      56.187   0.650  32.488  0.00  0.00     0.020 A 
ATOM     22  C   UNL d   1      55.645   0.645  33.116  0.00  0.00     0.031 A 
ATOM     23  C   UNL d   1      55.402  -0.071  33.454  0.00  0.00     0.140 A 
ATOM     24  C   UNL d   1      55.703  -0.789  33.162  0.00  0.00     0.031 A 
ATOM     25  F   UNL d   1      54.863  -0.067  34.077  0.00  0.00    -0.204 F 
ATOM     26  C   UNL d   1      56.239  -0.781  32.541  0.00  0.00     0.020 A 
ENDBRANCH   3  20
TORSDOF 3
ENDMDL
MODEL 2
REMARK VINA RESULT:      -6.0      1.321      1.992
REMARK  3 active torsions:
REMARK  status: ('A' for Active; 'I' for Inactive)
REMARK    1  A    between atoms: C_2  and  C_1 
REMARK    2  A    between atoms: C_3  and  C_2 
REMARK       I    between atoms: N_5  and  C_3 
REMARK    3  A    between atoms: C_10  and  N_8 
ROOT
ATOM      1  C   UNL d   1      57.734  -0.704  30.545  0.00  0.00     0.304 C 
ATOM      2  N   UNL d   1      57.303  -0.500  31.216  0.00  0.00    -0.266 N 
ATOM      3  N   UNL d   1      56.436  -0.094  32.564  0.00  0.00    -0.301 N 
ATOM      4  O   UNL d   1      57.826  -1.496  30.342  0.00  0.00    -0.263 OA
ATOM      5  C   UNL d   1      56.964  -1.088  31.683  0.00  0.00     0.102 A 
ATOM      6  C   UNL d   1      57.215   0.292  31.415  0.00  0.00     0.102 A 
ATOM      7  C   UNL d   1      56.782   0.493  32.087  0.00  0.00     0.100 A 
ATOM      8  C   UNL d   1      56.533  -0.890  32.353  0.00  0.00     0.100 A 
ENDROOT
BRANCH   1   9
ATOM      9  C   UNL d   1      58.077  -0.111  30.074  0.00  0.00     0.253 C 
ATOM     10  O   UNL d   1      57.833   0.674  30.163  0.00  0.00    -0.281 OA
BRANCH   9  11
ATOM     11  C   UNL d   1      58.653  -0.308  29.525  0.00  0.00     0.064 A 
ATOM     12  C   UNL d   1      58.570  -0.811  28.875  0.00  0.00     0.102 A 
ATOM     13  N   UNL d   1      59.286  -0.852  28.473  0.00  0.00    -0.244 NA
ATOM     14  C   UNL d   1      59.823  -0.370  28.873  0.00  0.00     0.082 A 
ATOM     15  C   UNL d   1      59.433  -0.034  29.521  0.00  0.00     0.022 A 
ATOM     16  C   UNL d   1      60.615  -0.193  28.732  0.00  0.00     0.019 A 
ATOM     17  C   UNL d   1      59.837   0.476  30.025  0.00  0.00     0.002 A 
ATOM     18  C   UNL d   1      60.638   0.654  29.881  0.00  0.00     0.000 A 
ATOM     19  C   UNL d   1      61.019   0.318  29.235  0.00  0.00     0.002 A 
ENDBRANCH   9  11
ENDBRANCH   1   9
BRANCH   3  20
ATOM     20  C   UNL d   1      56.006   0.101  33.233  0.00  0.00     0.064 A 
ATOM     21  C   UNL d   1      56.378   0.435  33.887  0.00  0.00     0.020 A 
ATOM     22  C   UNL d   1      55.931   0.629  34.559  0.00  0.00     0.031 A 
ATOM     23  C   UNL d   1      55.116   0.487  34.573  0.00  0.00     0.140 A 
ATOM     24  C   UNL d   1      54.742   0.150  33.912  0.00  0.00     0.031 A 
ATOM     25  F   UNL d   1      54.678   0.682  35.245  0.00  0.00    -0.204 F 
ATOM     26  C   UNL d   1      55.187  -0.040  33.249  0.00  0.00     0.020 A 
ENDBRANCH   3  20
TORSDOF 3
ENDMDL
MODEL 3
REMARK VINA RESULT:      -5.2      1.107      1.545
REMARK  3 active torsions:
REMARK  status: ('A' for Active; 'I' for Inactive)
REMARK    1  A    between atoms: C_2  and  C_1 
REMARK    2  A    between atoms: C_3  and  C_2 
REMARK       I    between atoms: N_5  and  C_3 
REMARK    3  A    between atoms: C_10  and  N_8 
ROOT
ATOM      1  C   UNL d   1      58.448   0.491  30.963  0.00  0.00     0.304 C 
ATOM      2  N   UNL d   1      57.879   0.493  31.557  0.00  0.00    -0.266 N 
ATOM      3  N   UNL d   1      56.739   0.498  32.754  0.00  0.00    -0.301 N 
ATOM      4  O   UNL d   1      59.230   0.674  31.142  0.00  0.00    -0.263 OA
ATOM      5  C   UNL d   1      58.093   0.678  32.331  0.00  0.00     0.102 A 
ATOM      6  C   UNL d   1      57.100   0.310  31.372  0.00  0.00     0.102 A 
ATOM      7  C   UNL d   1      56.533   0.313  31.970  0.00  0.00     0.100 A 
ATOM      8  C   UNL d   1      57.529   0.682  32.928  0.00  0.00     0.100 A 
ENDROOT
BRANCH   1   9
ATOM      9  C   UNL d   1      58.234   0.305  30.181  0.00  0.00     0.253 C 
ATOM     10  O   UNL d   1      57.441   0.348  29.953  0.00  0.00    -0.281 OA
BRANCH   9  11
ATOM     11  C   UNL d   1      58.809   0.079  29.642  0.00  0.00     0.064 A 
ATOM     12  C   UNL d   1      59.367   0.567  29.277  0.00  0.00     0.102 A 
ATOM     13  N   UNL d   1      59.836   0.112  28.778  0.00  0.00    -0.244 NA
ATOM     14  C   UNL d   1      59.571  -0.668  28.829  0.00  0.00     0.082 A 
ATOM     15  C   UNL d   1      58.938  -0.688  29.362  0.00  0.00     0.022 A 
ATOM     16  C   UNL d   1      59.822  -1.360  28.462  0.00  0.00     0.019 A 
ATOM     17  C   UNL d   1      58.560  -1.401  29.525  0.00  0.00     0.002 A 
ATOM     18  C   UNL d   1      58.815  -2.100  29.152  0.00  0.00     0.000 A 
ATOM     19  C   UNL d   1      59.444  -2.073  28.624  0.00  0.00     0.002 A 
ENDBRANCH   9  11
ENDBRANCH   1   9
BRANCH   3  20
ATOM     20  C   UNL d   1      56.179   0.503  33.351  0.00  0.00     0.064 A 
ATOM     21  C   UNL d   1      56.409   0.535  34.141  0.00  0.00     0.020 A 
ATOM     22  C   UNL d   1      55.832   0.539  34.737  0.00  0.00     0.031 A 
ATOM     23  C   UNL d   1      55.028   0.510  34.541  0.00  0.00     0.140 A 
ATOM     24  C   UNL d   1      54.798   0.477  33.742  0.00  0.00     0.031 A 
ATOM     25  F   UNL d   1      54.461   0.514  35.139  0.00  0.00    -0.204 F 
ATOM     26  C   UNL d   1      55.372   0.474  33.155  0.00  0.00     0.020 A 
ENDBRANCH   3  20
TORSDOF 3
ENDMDL
