MODEL 1
REMARK VINA RESULT:      -5.7      0.000      0.000
REMARK  7 active torsions:
REMARK  status: ('A' for Active; 'I' for Inactive)
REMARK    1  A    between atoms: N_6  and  S_1 
REMARK    2  A    between atoms: C_9  and  S_1 
REMARK    3  A    between atoms: N_2  and  C_11 
REMARK    4  A    between atoms: C_14  and  C_3 
REMARK    5  A    between atoms: C_7  and  C_15 
REMARK       I    between atoms: N_10  and  C_7 
REMARK    6  A    between atoms: C_25  and  N_10 
REMARK    7  A    between atoms: O_33  and  C_26 
ROOT
ATOM      1  C   UNL d   1     -39.984  14.756  20.343  0.00  0.00     0.085 A 
ATOM      2  C   UNL d   1     -40.578  15.292  20.526  0.00  0.00     0.021 A 
ATOM      3  C   UNL d   1     -40.066  13.957  20.532  0.00  0.00     0.021 A 
ATOM      4  C   UNL d   1     -41.356  14.234  21.096  0.00  0.00     0.085 A 
ATOM      5  C   UNL d   1     -41.271  15.034  20.905  0.00  0.00     0.021 A 
ATOM      6  C   UNL d   1     -40.746  13.689  20.907  0.00  0.00     0.021 A 
ENDROOT
BRANCH   4   7
ATOM      7  N   UNL d   1     -42.048  13.967  21.476  0.00  0.00    -0.208 NA
ATOM      8  C   UNL d   1     -42.571  13.480  21.071  0.00  0.00     0.279 C 
ATOM      9  O   UNL d   1     -42.417  13.254  20.296  0.00  0.00    -0.265 OA
BRANCH   8  10
ATOM     10  C   UNL d   1     -43.270  13.208  21.449  0.00  0.00     0.058 A 
ATOM     11  C   UNL d   1     -43.944  13.660  21.411  0.00  0.00     0.005 A 
ATOM     12  C   UNL d   1     -44.626  13.397  21.780  0.00  0.00     0.013 A 
ATOM     13  C   UNL d   1     -44.634  12.692  22.181  0.00  0.00     0.104 A 
ATOM     14  C   UNL d   1     -43.954  12.236  22.219  0.00  0.00     0.013 A 
ATOM     15  C   UNL d   1     -43.269  12.500  21.849  0.00  0.00     0.005 A 
BRANCH  13  16
ATOM     16  S   UNL d   1     -45.333  12.431  22.553  0.00  0.00     0.271 S 
ATOM     17  O   UNL d   1     -45.770  12.929  22.072  0.00  0.00    -0.200 OA
ATOM     18  O   UNL d   1     -44.885  11.938  23.029  0.00  0.00    -0.200 OA
BRANCH  16  19
ATOM     19  N   UNL d   1     -46.017  12.163  22.931  0.00  0.00    -0.229 N 
ATOM     20  C   UNL d   1     -46.197  11.366  22.981  0.00  0.00     0.092 A 
ATOM     21  C   UNL d   1     -46.891  11.109  23.366  0.00  0.00     0.020 A 
ATOM     22  C   UNL d   1     -47.399  11.657  23.698  0.00  0.00     0.003 A 
ATOM     23  C   UNL d   1     -47.229  12.465  23.655  0.00  0.00     0.020 A 
ATOM     24  C   UNL d   1     -46.535  12.721  23.270  0.00  0.00     0.092 A 
ENDBRANCH  16  19
ENDBRANCH  13  16
ENDBRANCH   8  10
ENDBRANCH   4   7
BRANCH   1  25
ATOM     25  N   UNL d   1     -39.291  15.015  19.964  0.00  0.00    -0.211 N 
ATOM     26  C   UNL d   1     -39.215  15.223  19.162  0.00  0.00     0.105 A 
ATOM     27  C   UNL d   1     -38.430  15.446  19.033  0.00  0.00     0.143 A 
ATOM     28  N   UNL d   1     -38.014  15.378  19.749  0.00  0.00    -0.127 NA
ATOM     29  N   UNL d   1     -38.547  15.111  20.325  0.00  0.00    -0.060 NA
BRANCH  26  30
ATOM     30  C   UNL d   1     -39.811  15.210  18.604  0.00  0.00     0.019 A 
ATOM     31  C   UNL d   1     -39.935  14.531  18.150  0.00  0.00     0.004 A 
ATOM     32  C   UNL d   1     -40.537  14.517  17.587  0.00  0.00     0.024 A 
ATOM     33  C   UNL d   1     -41.013  15.171  17.473  0.00  0.00     0.094 A 
ATOM     34  C   UNL d   1     -40.889  15.858  17.930  0.00  0.00     0.024 A 
ATOM     35  C   UNL d   1     -40.288  15.875  18.495  0.00  0.00     0.004 A 
BRANCH  33  36
ATOM     36  O   UNL d   1     -41.614  15.165  16.914  0.00  0.00    -0.328 OA
ATOM     37  C   UNL d   1     -41.787  15.835  16.473  0.00  0.00     0.181 C 
ENDBRANCH  33  36
ENDBRANCH  26  30
ENDBRANCH   1  25
TORSDOF 7
ENDMDL
MODEL 2
REMARK VINA RESULT:      -3.9      1.393      2.558
REMARK  7 active torsions:
REMARK  status: ('A' for Active; 'I' for Inactive)
REMARK    1  A    between atoms: N_6  and  S_1 
REMARK    2  A    between atoms: C_9  and  S_1 
REMARK    3  A    between atoms: N_2  and  C_11 
REMARK    4  A    between atoms: C_14  and  C_3 
REMARK    5  A    between atoms: C_7  and  C_15 
REMARK       I    between atoms: N_10  and  C_7 
REMARK    6  A    between atoms: C_25  and  N_10 
REMARK    7  A    between atoms: O_33  and  C_26 
ROOT
ATOM      1  C   UNL d   1     -40.275  14.756  19.999  0.00  0.00     0.085 A 
ATOM      2  C   UNL d   1     -40.589  15.256  20.570  0.00  0.00     0.021 A 
ATOM      3  C   UNL d   1     -40.662  14.057  19.794  0.00  0.00     0.021 A 
ATOM      4  C   UNL d   1     -41.693  14.361  20.744  0.00  0.00     0.085 A 
ATOM      5  C   UNL d   1     -41.303  15.061  20.947  0.00  0.00     0.021 A 
ATOM      6  C   UNL d   1     -41.368  13.853  20.160  0.00  0.00     0.021 A 
ENDROOT
BRANCH   4   7
ATOM      7  N   UNL d   1     -42.410  14.159  21.119  0.00  0.00    -0.208 NA
ATOM      8  C   UNL d   1     -42.659  13.377  21.122  0.00  0.00     0.279 C 
ATOM      9  O   UNL d   1     -42.208  12.793  20.760  0.00  0.00    -0.265 OA
BRANCH   8  10
ATOM     10  C   UNL d   1     -43.380  13.168  21.498  0.00  0.00     0.058 A 
ATOM     11  C   UNL d   1     -43.449  12.439  21.851  0.00  0.00     0.005 A 
ATOM     12  C   UNL d   1     -44.151  12.235  22.217  0.00  0.00     0.013 A 
ATOM     13  C   UNL d   1     -44.776  12.750  22.233  0.00  0.00     0.104 A 
ATOM     14  C   UNL d   1     -44.708  13.487  21.877  0.00  0.00     0.013 A 
ATOM     15  C   UNL d   1     -44.002  13.692  21.508  0.00  0.00     0.005 A 
BRANCH  13  16
ATOM     16  S   UNL d   1     -45.489  12.534  22.608  0.00  0.00     0.271 S 
ATOM     17  O   UNL d   1     -45.059  12.153  23.192  0.00  0.00    -0.200 OA
ATOM     18  O   UNL d   1     -45.906  12.919  22.019  0.00  0.00    -0.200 OA
BRANCH  16  19
ATOM     19  N   UNL d   1     -46.202  12.327  22.970  0.00  0.00    -0.229 N 
ATOM     20  C   UNL d   1     -46.396  11.547  23.122  0.00  0.00     0.092 A 
ATOM     21  C   UNL d   1     -47.120  11.351  23.488  0.00  0.00     0.020 A 
ATOM     22  C   UNL d   1     -47.643  11.943  23.698  0.00  0.00     0.003 A 
ATOM     23  C   UNL d   1     -47.459  12.736  23.550  0.00  0.00     0.020 A 
ATOM     24  C   UNL d   1     -46.735  12.930  23.184  0.00  0.00     0.092 A 
ENDBRANCH  16  19
ENDBRANCH  13  16
ENDBRANCH   8  10
ENDBRANCH   4   7
BRANCH   1  25
ATOM     25  N   UNL d   1     -39.561  14.950  19.622  0.00  0.00    -0.211 N 
ATOM     26  C   UNL d   1     -38.794  14.754  19.881  0.00  0.00     0.105 A 
ATOM     27  C   UNL d   1     -38.257  15.061  19.334  0.00  0.00     0.143 A 
ATOM     28  N   UNL d   1     -38.681  15.449  18.733  0.00  0.00    -0.127 NA
ATOM     29  N   UNL d   1     -39.488  15.380  18.911  0.00  0.00    -0.060 NA
BRANCH  26  30
ATOM     30  C   UNL d   1     -38.610  14.333  20.557  0.00  0.00     0.019 A 
ATOM     31  C   UNL d   1     -38.516  13.514  20.518  0.00  0.00     0.004 A 
ATOM     32  C   UNL d   1     -38.330  13.089  21.200  0.00  0.00     0.024 A 
ATOM     33  C   UNL d   1     -38.237  13.473  21.914  0.00  0.00     0.094 A 
ATOM     34  C   UNL d   1     -38.330  14.301  21.955  0.00  0.00     0.024 A 
ATOM     35  C   UNL d   1     -38.517  14.729  21.275  0.00  0.00     0.004 A 
BRANCH  33  36
ATOM     36  O   UNL d   1     -38.051  13.057  22.597  0.00  0.00    -0.328 OA
ATOM     37  C   UNL d   1     -37.945  13.445  23.312  0.00  0.00     0.181 C 
ENDBRANCH  33  36
ENDBRANCH  26  30
ENDBRANCH   1  25
TORSDOF 7
ENDMDL
MODEL 3
REMARK VINA RESULT:      -3.0      1.954      7.587
REMARK  7 active torsions:
REMARK  status: ('A' for Active; 'I' for Inactive)
REMARK    1  A    between atoms: N_6  and  S_1 
REMARK    2  A    between atoms: C_9  and  S_1 
REMARK    3  A    between atoms: N_2  and  C_11 
REMARK    4  A    between atoms: C_14  and  C_3 
REMARK    5  A    between atoms: C_7  and  C_15 
REMARK       I    between atoms: N_10  and  C_7 
REMARK    6  A    between atoms: C_25  and  N_10 
REMARK    7  A    between atoms: O_33  and  C_26 
ROOT
ATOM      1  C   UNL d   1     -47.151  12.276  22.845  0.00  0.00     0.085 A 
ATOM      2  C   UNL d   1     -46.623  12.633  23.363  0.00  0.00     0.021 A 
ATOM      3  C   UNL d   1     -46.988  12.240  22.037  0.00  0.00     0.021 A 
ATOM      4  C   UNL d   1     -45.749  12.927  22.266  0.00  0.00     0.085 A 
ATOM      5  C   UNL d   1     -45.916  12.962  23.076  0.00  0.00     0.021 A 
ATOM      6  C   UNL d   1     -46.292  12.562  21.741  0.00  0.00     0.021 A 
ENDROOT
BRANCH   4   7
ATOM      7  N   UNL d   1     -45.042  13.255  21.971  0.00  0.00    -0.208 NA
ATOM      8  C   UNL d   1     -44.365  12.792  21.936  0.00  0.00     0.279 C 
ATOM      9  O   UNL d   1     -44.379  12.010  22.187  0.00  0.00    -0.265 OA
BRANCH   8  10
ATOM     10  C   UNL d   1     -43.650  13.117  21.639  0.00  0.00     0.058 A 
ATOM     11  C   UNL d   1     -43.019  12.626  21.493  0.00  0.00     0.005 A 
ATOM     12  C   UNL d   1     -42.322  12.942  21.204  0.00  0.00     0.013 A 
ATOM     13  C   UNL d   1     -42.254  13.737  21.063  0.00  0.00     0.104 A 
ATOM     14  C   UNL d   1     -42.891  14.234  21.210  0.00  0.00     0.013 A 
ATOM     15  C   UNL d   1     -43.592  13.916  21.501  0.00  0.00     0.005 A 
BRANCH  13  16
ATOM     16  S   UNL d   1     -41.540  14.051  20.768  0.00  0.00     0.271 S 
ATOM     17  O   UNL d   1     -41.711  14.765  21.131  0.00  0.00    -0.200 OA
ATOM     18  O   UNL d   1     -41.381  13.332  20.411  0.00  0.00    -0.200 OA
BRANCH  16  19
ATOM     19  N   UNL d   1     -40.830  14.349  20.470  0.00  0.00    -0.229 N 
ATOM     20  C   UNL d   1     -40.204  14.542  20.962  0.00  0.00     0.092 A 
ATOM     21  C   UNL d   1     -39.491  14.841  20.647  0.00  0.00     0.020 A 
ATOM     22  C   UNL d   1     -39.414  14.945  19.840  0.00  0.00     0.003 A 
ATOM     23  C   UNL d   1     -40.039  14.754  19.333  0.00  0.00     0.020 A 
ATOM     24  C   UNL d   1     -40.750  14.455  19.648  0.00  0.00     0.092 A 
ENDBRANCH  16  19
ENDBRANCH  13  16
ENDBRANCH   8  10
ENDBRANCH   4   7
BRANCH   1  25
ATOM     25  N   UNL d   1     -47.858  11.947  23.132  0.00  0.00    -0.211 N 
ATOM     26  C   UNL d   1     -48.594  12.332  23.192  0.00  0.00     0.105 A 
ATOM     27  C   UNL d   1     -49.135  11.793  23.506  0.00  0.00     0.143 A 
ATOM     28  N   UNL d   1     -48.743  11.072  23.643  0.00  0.00    -0.127 NA
ATOM     29  N   UNL d   1     -47.953  11.168  23.412  0.00  0.00    -0.060 NA
BRANCH  26  30
ATOM     30  C   UNL d   1     -48.750  13.105  22.978  0.00  0.00     0.019 A 
ATOM     31  C   UNL d   1     -49.004  13.276  22.211  0.00  0.00     0.004 A 
ATOM     32  C   UNL d   1     -49.162  14.056  21.995  0.00  0.00     0.024 A 
ATOM     33  C   UNL d   1     -49.069  14.662  22.534  0.00  0.00     0.094 A 
ATOM     34  C   UNL d   1     -48.812  14.491  23.309  0.00  0.00     0.024 A 
ATOM     35  C   UNL d   1     -48.653  13.712  23.529  0.00  0.00     0.004 A 
BRANCH  33  36
ATOM     36  O   UNL d   1     -49.224  15.441  22.327  0.00  0.00    -0.328 OA
ATOM     37  C   UNL d   1     -49.684  15.922  22.807  0.00  0.00     0.181 C 
ENDBRANCH  33  36
ENDBRANCH  26  30
ENDBRANCH   1  25
TORSDOF 7
ENDMDL
