MODEL 1
REMARK VINA RESULT:      -6.2      0.000      0.000
REMARK  5 active torsions:
REMARK  status: ('A' for Active; 'I' for Inactive)
REMARK    1  A    between atoms: C_9  and  S_1 
REMARK    2  A    between atoms: C_14  and  S_1 
REMARK    3  A    between atoms: C_7  and  C_10 
REMARK       I    between atoms: N_11  and  C_7 
REMARK    4  A    between atoms: C_10  and  C_9 
REMARK    5  A    between atoms: C_15  and  N_11 
ROOT
ATOM      1  C   UNL d   1     -47.980  11.943  23.080  0.00  0.00     0.280 C 
ATOM      2  N   UNL d   1     -48.476  12.222  23.682  0.00  0.00    -0.208 NA
ATOM      3  O   UNL d   1     -48.161  12.123  22.285  0.00  0.00    -0.265 OA
ENDROOT
BRANCH   1   4
ATOM      4  C   UNL d   1     -47.322  11.498  23.255  0.00  0.00     0.075 C 
BRANCH   4   5
ATOM      5  C   UNL d   1     -46.646  11.801  23.204  0.00  0.00     0.104 C 
BRANCH   5   6
ATOM      6  S   UNL d   1     -45.897  11.429  23.251  0.00  0.00     0.211 S 
ATOM      7  O   UNL d   1     -45.531  12.110  22.942  0.00  0.00    -0.217 OA
ATOM      8  O   UNL d   1     -46.272  10.740  23.564  0.00  0.00    -0.217 OA
BRANCH   6   9
ATOM      9  C   UNL d   1     -45.161  11.056  23.300  0.00  0.00     0.088 A 
ATOM     10  C   UNL d   1     -45.097  10.310  23.646  0.00  0.00     0.011 A 
ATOM     11  C   UNL d   1     -44.360   9.933  23.697  0.00  0.00     0.001 A 
ATOM     12  C   UNL d   1     -43.690  10.310  23.399  0.00  0.00     0.000 A 
ATOM     13  C   UNL d   1     -43.742  11.057  23.051  0.00  0.00     0.001 A 
ATOM     14  C   UNL d   1     -44.483  11.432  23.002  0.00  0.00     0.011 A 
ENDBRANCH   6   9
ENDBRANCH   5   6
ENDBRANCH   4   5
ENDBRANCH   1   4
BRANCH   2  15
ATOM     15  C   UNL d   1     -49.141  12.672  23.510  0.00  0.00     0.085 A 
ATOM     16  C   UNL d   1     -49.104  13.487  23.541  0.00  0.00     0.027 A 
ATOM     17  C   UNL d   1     -49.772  13.926  23.367  0.00  0.00     0.050 A 
ATOM     18  S   UNL d   1     -49.911  14.741  23.350  0.00  0.00    -0.066 SA
ATOM     19  C   UNL d   1     -50.485  13.544  23.161  0.00  0.00     0.088 A 
ATOM     20  C   UNL d   1     -50.697  14.872  23.136  0.00  0.00     0.111 A 
ATOM     21  C   UNL d   1     -51.064  15.603  23.053  0.00  0.00     0.028 C 
ATOM     22  N   UNL d   1     -51.050  14.118  23.019  0.00  0.00    -0.239 NA
ATOM     23  C   UNL d   1     -50.515  12.731  23.131  0.00  0.00     0.021 A 
ATOM     24  C   UNL d   1     -49.848  12.293  23.305  0.00  0.00     0.021 A 
ENDBRANCH   2  15
TORSDOF 5
ENDMDL
MODEL 2
REMARK VINA RESULT:      -6.0      2.018      5.838
REMARK  5 active torsions:
REMARK  status: ('A' for Active; 'I' for Inactive)
REMARK    1  A    between atoms: C_9  and  S_1 
REMARK    2  A    between atoms: C_14  and  S_1 
REMARK    3  A    between atoms: C_7  and  C_10 
REMARK       I    between atoms: N_11  and  C_7 
REMARK    4  A    between atoms: C_10  and  C_9 
REMARK    5  A    between atoms: C_15  and  N_11 
ROOT
ATOM      1  C   UNL d   1     -47.223  13.167  22.601  0.00  0.00     0.280 C 
ATOM      2  N   UNL d   1     -46.528  13.211  23.051  0.00  0.00    -0.208 NA
ATOM      3  O   UNL d   1     -47.197  12.819  21.842  0.00  0.00    -0.265 OA
ENDROOT
BRANCH   1   4
ATOM      4  C   UNL d   1     -47.925  13.459  22.888  0.00  0.00     0.075 C 
BRANCH   4   5
ATOM      5  C   UNL d   1     -48.282  13.996  22.519  0.00  0.00     0.104 C 
BRANCH   5   6
ATOM      6  S   UNL d   1     -48.967  14.422  22.742  0.00  0.00     0.211 S 
ATOM      7  O   UNL d   1     -49.304  13.730  23.058  0.00  0.00    -0.217 OA
ATOM      8  O   UNL d   1     -48.622  15.123  22.421  0.00  0.00    -0.217 OA
BRANCH   6   9
ATOM      9  C   UNL d   1     -49.641  14.849  22.959  0.00  0.00     0.088 A 
ATOM     10  C   UNL d   1     -49.577  15.493  23.471  0.00  0.00     0.011 A 
ATOM     11  C   UNL d   1     -50.252  15.922  23.691  0.00  0.00     0.001 A 
ATOM     12  C   UNL d   1     -50.988  15.702  23.394  0.00  0.00     0.000 A 
ATOM     13  C   UNL d   1     -51.064  15.059  22.881  0.00  0.00     0.001 A 
ATOM     14  C   UNL d   1     -50.386  14.631  22.663  0.00  0.00     0.011 A 
ENDBRANCH   6   9
ENDBRANCH   5   6
ENDBRANCH   4   5
ENDBRANCH   1   4
BRANCH   2  15
ATOM     15  C   UNL d   1     -45.817  12.918  22.764  0.00  0.00     0.085 A 
ATOM     16  C   UNL d   1     -45.343  13.385  22.291  0.00  0.00     0.027 A 
ATOM     17  C   UNL d   1     -44.636  13.084  22.011  0.00  0.00     0.050 A 
ATOM     18  S   UNL d   1     -44.045  13.409  21.531  0.00  0.00    -0.066 SA
ATOM     19  C   UNL d   1     -44.402  12.306  22.206  0.00  0.00     0.088 A 
ATOM     20  C   UNL d   1     -43.450  12.848  21.425  0.00  0.00     0.111 A 
ATOM     21  C   UNL d   1     -42.762  12.945  20.986  0.00  0.00     0.028 C 
ATOM     22  N   UNL d   1     -43.680  12.160  21.850  0.00  0.00    -0.239 NA
ATOM     23  C   UNL d   1     -44.880  11.846  22.678  0.00  0.00     0.021 A 
ATOM     24  C   UNL d   1     -45.586  12.148  22.958  0.00  0.00     0.021 A 
ENDBRANCH   2  15
TORSDOF 5
ENDMDL
MODEL 3
REMARK VINA RESULT:      -5.1      1.270      1.647
REMARK  5 active torsions:
REMARK  status: ('A' for Active; 'I' for Inactive)
REMARK    1  A    between atoms: C_9  and  S_1 
REMARK    2  A    between atoms: C_14  and  S_1 
REMARK    3  A    between atoms: C_7  and  C_10 
REMARK       I    between atoms: N_11  and  C_7 
REMARK    4  A    between atoms: C_10  and  C_9 
REMARK    5  A    between atoms: C_15  and  N_11 
ROOT
ATOM      1  C   UNL d   1     -47.433  13.062  22.617  0.00  0.00     0.280 C 
ATOM      2  N   UNL d   1     -47.902  13.017  23.299  0.00  0.00    -0.208 NA
ATOM      3  O   UNL d   1     -47.730  13.455  21.943  0.00  0.00    -0.265 OA
ENDROOT
BRANCH   1   4
ATOM      4  C   UNL d   1     -46.692  12.728  22.597  0.00  0.00     0.075 C 
BRANCH   4   5
ATOM      5  C   UNL d   1     -46.098  13.154  22.465  0.00  0.00     0.104 C 
BRANCH   5   6
ATOM      6  S   UNL d   1     -45.313  12.923  22.289  0.00  0.00     0.211 S 
ATOM      7  O   UNL d   1     -45.414  12.223  22.727  0.00  0.00    -0.217 OA
ATOM      8  O   UNL d   1     -45.215  13.635  21.845  0.00  0.00    -0.217 OA
BRANCH   6   9
ATOM      9  C   UNL d   1     -44.537  12.700  22.112  0.00  0.00     0.088 A 
ATOM     10  C   UNL d   1     -44.196  12.050  22.487  0.00  0.00     0.011 A 
ATOM     11  C   UNL d   1     -43.417  11.825  22.310  0.00  0.00     0.001 A 
ATOM     12  C   UNL d   1     -42.986  12.256  21.756  0.00  0.00     0.000 A 
ATOM     13  C   UNL d   1     -43.316  12.909  21.374  0.00  0.00     0.001 A 
ATOM     14  C   UNL d   1     -44.097  13.132  21.554  0.00  0.00     0.011 A 
ENDBRANCH   6   9
ENDBRANCH   5   6
ENDBRANCH   4   5
ENDBRANCH   1   4
BRANCH   2  15
ATOM     15  C   UNL d   1     -48.651  13.352  23.322  0.00  0.00     0.085 A 
ATOM     16  C   UNL d   1     -48.736  14.157  23.434  0.00  0.00     0.027 A 
ATOM     17  C   UNL d   1     -49.487  14.481  23.456  0.00  0.00     0.050 A 
ATOM     18  S   UNL d   1     -49.753  15.258  23.558  0.00  0.00    -0.066 SA
ATOM     19  C   UNL d   1     -50.159  13.994  23.365  0.00  0.00     0.088 A 
ATOM     20  C   UNL d   1     -50.577  15.262  23.532  0.00  0.00     0.111 A 
ATOM     21  C   UNL d   1     -51.064  15.919  23.610  0.00  0.00     0.028 C 
ATOM     22  N   UNL d   1     -50.825  14.467  23.411  0.00  0.00    -0.239 NA
ATOM     23  C   UNL d   1     -50.067  13.193  23.254  0.00  0.00     0.021 A 
ATOM     24  C   UNL d   1     -49.317  12.870  23.232  0.00  0.00     0.021 A 
ENDBRANCH   2  15
TORSDOF 5
ENDMDL
MODEL 4
REMARK VINA RESULT:      -4.8      9.336     10.897
REMARK  5 active torsions:
REMARK  status: ('A' for Active; 'I' for Inactive)
REMARK    1  A    between atoms: C_9  and  S_1 
REMARK    2  A    between atoms: C_14  and  S_1 
REMARK    3  A    between atoms: C_7  and  C_10 
REMARK       I    between atoms: N_11  and  C_7 
REMARK    4  A    between atoms: C_10  and  C_9 
REMARK    5  A    between atoms: C_15  and  N_11 
ROOT
ATOM      1  C   UNL d   1     -39.049  14.867  19.211  0.00  0.00     0.280 C 
ATOM      2  N   UNL d   1     -38.503  15.046  19.809  0.00  0.00    -0.208 NA
ATOM      3  O   UNL d   1     -39.789  14.540  19.419  0.00  0.00    -0.265 OA
ENDROOT
BRANCH   1   4
ATOM      4  C   UNL d   1     -38.872  15.006  18.430  0.00  0.00     0.075 C 
BRANCH   4   5
ATOM      5  C   UNL d   1     -38.919  14.453  17.936  0.00  0.00     0.104 C 
BRANCH   5   6
ATOM      6  S   UNL d   1     -38.671  14.439  17.137  0.00  0.00     0.211 S 
ATOM      7  O   UNL d   1     -38.532  15.259  17.158  0.00  0.00    -0.217 OA
ATOM      8  O   UNL d   1     -38.813  13.607  17.119  0.00  0.00    -0.217 OA
BRANCH   6   9
ATOM      9  C   UNL d   1     -38.427  14.418  16.347  0.00  0.00     0.088 A 
ATOM     10  C   UNL d   1     -38.313  15.120  15.929  0.00  0.00     0.011 A 
ATOM     11  C   UNL d   1     -38.069  15.101  15.137  0.00  0.00     0.001 A 
ATOM     12  C   UNL d   1     -37.940  14.376  14.769  0.00  0.00     0.000 A 
ATOM     13  C   UNL d   1     -38.051  13.666  15.176  0.00  0.00     0.001 A 
ATOM     14  C   UNL d   1     -38.296  13.689  15.971  0.00  0.00     0.011 A 
ENDBRANCH   6   9
ENDBRANCH   5   6
ENDBRANCH   4   5
ENDBRANCH   1   4
BRANCH   2  15
ATOM     15  C   UNL d   1     -38.678  14.907  20.599  0.00  0.00     0.085 A 
ATOM     16  C   UNL d   1     -38.413  14.225  20.964  0.00  0.00     0.027 A 
ATOM     17  C   UNL d   1     -38.593  14.097  21.751  0.00  0.00     0.050 A 
ATOM     18  S   UNL d   1     -38.411  13.476  22.268  0.00  0.00    -0.066 SA
ATOM     19  C   UNL d   1     -39.042  14.656  22.178  0.00  0.00     0.088 A 
ATOM     20  C   UNL d   1     -38.738  13.640  23.006  0.00  0.00     0.111 A 
ATOM     21  C   UNL d   1     -38.689  13.168  23.677  0.00  0.00     0.028 C 
ATOM     22  N   UNL d   1     -39.132  14.381  22.943  0.00  0.00    -0.239 NA
ATOM     23  C   UNL d   1     -39.303  15.333  21.809  0.00  0.00     0.021 A 
ATOM     24  C   UNL d   1     -39.123  15.461  21.022  0.00  0.00     0.021 A 
ENDBRANCH   2  15
TORSDOF 5
ENDMDL
MODEL 5
REMARK VINA RESULT:      -4.8      2.121      5.613
REMARK  5 active torsions:
REMARK  status: ('A' for Active; 'I' for Inactive)
REMARK    1  A    between atoms: C_9  and  S_1 
REMARK    2  A    between atoms: C_14  and  S_1 
REMARK    3  A    between atoms: C_7  and  C_10 
REMARK       I    between atoms: N_11  and  C_7 
REMARK    4  A    between atoms: C_10  and  C_9 
REMARK    5  A    between atoms: C_15  and  N_11 
ROOT
ATOM      1  C   UNL d   1     -46.472  12.690  23.038  0.00  0.00     0.280 C 
ATOM      2  N   UNL d   1     -46.093  12.814  22.312  0.00  0.00    -0.208 NA
ATOM      3  O   UNL d   1     -46.031  12.402  23.686  0.00  0.00    -0.265 OA
ENDROOT
BRANCH   1   4
ATOM      4  C   UNL d   1     -47.266  12.845  23.126  0.00  0.00     0.075 C 
BRANCH   4   5
ATOM      5  C   UNL d   1     -47.745  12.284  23.212  0.00  0.00     0.104 C 
BRANCH   5   6
ATOM      6  S   UNL d   1     -48.581  12.297  23.185  0.00  0.00     0.211 S 
ATOM      7  O   UNL d   1     -48.601  11.468  23.115  0.00  0.00    -0.217 OA
ATOM      8  O   UNL d   1     -48.558  13.139  23.255  0.00  0.00    -0.217 OA
BRANCH   6   9
ATOM      9  C   UNL d   1     -49.408  12.319  23.159  0.00  0.00     0.088 A 
ATOM     10  C   UNL d   1     -49.793  12.786  22.599  0.00  0.00     0.011 A 
ATOM     11  C   UNL d   1     -50.622  12.808  22.571  0.00  0.00     0.001 A 
ATOM     12  C   UNL d   1     -51.059  12.361  23.107  0.00  0.00     0.000 A 
ATOM     13  C   UNL d   1     -50.684  11.889  23.673  0.00  0.00     0.001 A 
ATOM     14  C   UNL d   1     -49.853  11.869  23.698  0.00  0.00     0.011 A 
ENDBRANCH   6   9
ENDBRANCH   5   6
ENDBRANCH   4   5
ENDBRANCH   1   4
BRANCH   2  15
ATOM     15  C   UNL d   1     -45.292  12.659  22.219  0.00  0.00     0.085 A 
ATOM     16  C   UNL d   1     -44.833  13.146  21.751  0.00  0.00     0.027 A 
ATOM     17  C   UNL d   1     -44.036  12.983  21.664  0.00  0.00     0.050 A 
ATOM     18  S   UNL d   1     -43.435  13.361  21.238  0.00  0.00    -0.066 SA
ATOM     19  C   UNL d   1     -43.696  12.326  22.052  0.00  0.00     0.088 A 
ATOM     20  C   UNL d   1     -42.729  12.950  21.354  0.00  0.00     0.111 A 
ATOM     21  C   UNL d   1     -41.997  13.139  21.031  0.00  0.00     0.028 C 
ATOM     22  N   UNL d   1     -42.900  12.304  21.864  0.00  0.00    -0.239 NA
ATOM     23  C   UNL d   1     -44.159  11.846  22.517  0.00  0.00     0.021 A 
ATOM     24  C   UNL d   1     -44.955  12.009  22.603  0.00  0.00     0.021 A 
ENDBRANCH   2  15
TORSDOF 5
ENDMDL
MODEL 6
REMARK VINA RESULT:      -4.4      2.986      4.158
REMARK  5 active torsions:
REMARK  status: ('A' for Active; 'I' for Inactive)
REMARK    1  A    between atoms: C_9  and  S_1 
REMARK    2  A    between atoms: C_14  and  S_1 
REMARK    3  A    between atoms: C_7  and  C_10 
REMARK       I    between atoms: N_11  and  C_7 
REMARK    4  A    between atoms: C_10  and  C_9 
REMARK    5  A    between atoms: C_15  and  N_11 
ROOT
ATOM      1  C   UNL d   1     -44.692  12.920  21.902  0.00  0.00     0.280 C 
ATOM      2  N   UNL d   1     -45.028  12.962  22.659  0.00  0.00    -0.208 NA
ATOM      3  O   UNL d   1     -45.193  12.902  21.234  0.00  0.00    -0.265 OA
ENDROOT
BRANCH   1   4
ATOM      4  C   UNL d   1     -43.885  12.896  21.805  0.00  0.00     0.075 C 
BRANCH   4   5
ATOM      5  C   UNL d   1     -43.569  13.267  21.243  0.00  0.00     0.104 C 
BRANCH   5   6
ATOM      6  S   UNL d   1     -42.765  13.471  21.135  0.00  0.00     0.211 S 
ATOM      7  O   UNL d   1     -42.607  12.714  20.826  0.00  0.00    -0.217 OA
ATOM      8  O   UNL d   1     -42.928  14.238  21.448  0.00  0.00    -0.217 OA
BRANCH   6   9
ATOM      9  C   UNL d   1     -41.971  13.679  21.030  0.00  0.00     0.088 A 
ATOM     10  C   UNL d   1     -41.409  13.469  21.596  0.00  0.00     0.011 A 
ATOM     11  C   UNL d   1     -40.613  13.677  21.493  0.00  0.00     0.001 A 
ATOM     12  C   UNL d   1     -40.386  14.094  20.820  0.00  0.00     0.000 A 
ATOM     13  C   UNL d   1     -40.940  14.309  20.246  0.00  0.00     0.001 A 
ATOM     14  C   UNL d   1     -41.738  14.099  20.352  0.00  0.00     0.011 A 
ENDBRANCH   6   9
ENDBRANCH   5   6
ENDBRANCH   4   5
ENDBRANCH   1   4
BRANCH   2  15
ATOM     15  C   UNL d   1     -45.842  12.986  22.762  0.00  0.00     0.085 A 
ATOM     16  C   UNL d   1     -46.238  12.332  23.049  0.00  0.00     0.027 A 
ATOM     17  C   UNL d   1     -47.049  12.366  23.148  0.00  0.00     0.050 A 
ATOM     18  S   UNL d   1     -47.599  11.811  23.421  0.00  0.00    -0.066 SA
ATOM     19  C   UNL d   1     -47.468  13.063  22.957  0.00  0.00     0.088 A 
ATOM     20  C   UNL d   1     -48.350  12.150  23.403  0.00  0.00     0.111 A 
ATOM     21  C   UNL d   1     -49.054  11.789  23.628  0.00  0.00     0.028 C 
ATOM     22  N   UNL d   1     -48.261  12.934  23.112  0.00  0.00    -0.239 NA
ATOM     23  C   UNL d   1     -47.067  13.711  22.672  0.00  0.00     0.021 A 
ATOM     24  C   UNL d   1     -46.257  13.676  22.573  0.00  0.00     0.021 A 
ENDBRANCH   2  15
TORSDOF 5
ENDMDL
