MODEL 1
REMARK VINA RESULT:       4.0      0.000      0.000
REMARK  1 active torsions:
REMARK  status: ('A' for Active; 'I' for Inactive)
REMARK    1  A    between atoms: C_5  and  C_1 
ROOT
ATOM      1  C   UNL d   1      45.422 -14.251  44.257  0.00  0.00     0.005 A 
ATOM      2  C   UNL d   1      44.813 -14.555  44.724  0.00  0.00     0.001 A 
ATOM      3  C   UNL d   1      46.044 -14.733  44.022  0.00  0.00     0.001 A 
ATOM      4  C   UNL d   1      45.454 -15.831  44.718  0.00  0.00     0.058 A 
ATOM      5  C   UNL d   1      46.063 -15.527  44.252  0.00  0.00     0.011 A 
ATOM      6  C   UNL d   1      44.827 -15.342  44.955  0.00  0.00     0.011 A 
ATOM      7 CL   UNL d   1      45.468 -16.630  44.953  0.00  0.00    -0.082 Cl
ENDROOT
BRANCH   1   8
ATOM      8  C   UNL d   1      45.405 -13.460  44.027  0.00  0.00     0.060 A 
ATOM      9  C   UNL d   1      45.748 -12.786  44.290  0.00  0.00     0.206 A 
ATOM     10  N   UNL d   1      45.609 -12.094  43.929  0.00  0.00    -0.127 NA
ATOM     11  N   UNL d   1      46.254 -12.812  44.945  0.00  0.00    -0.125 N 
ATOM     12  N   UNL d   1      45.124 -12.080  43.304  0.00  0.00    -0.145 NA
ATOM     13  C   UNL d   1      44.780 -12.749  43.039  0.00  0.00     0.125 A 
ENDBRANCH   1   8
TORSDOF 1
ENDMDL
MODEL 2
REMARK VINA RESULT:       4.9      4.940      5.943
REMARK  1 active torsions:
REMARK  status: ('A' for Active; 'I' for Inactive)
REMARK    1  A    between atoms: C_5  and  C_1 
ROOT
ATOM      1  C   UNL d   1      46.544 -19.114  42.664  0.00  0.00     0.005 A 
ATOM      2  C   UNL d   1      46.511 -19.872  42.340  0.00  0.00     0.001 A 
ATOM      3  C   UNL d   1      46.610 -18.456  42.175  0.00  0.00     0.001 A 
ATOM      4  C   UNL d   1      46.611 -19.310  41.031  0.00  0.00     0.058 A 
ATOM      5  C   UNL d   1      46.643 -18.552  41.355  0.00  0.00     0.011 A 
ATOM      6  C   UNL d   1      46.544 -19.972  41.527  0.00  0.00     0.011 A 
ATOM      7 CL   UNL d   1      46.644 -19.412  40.205  0.00  0.00    -0.082 Cl
ENDROOT
BRANCH   1   8
ATOM      8  C   UNL d   1      46.511 -19.017  43.482  0.00  0.00     0.060 A 
ATOM      9  C   UNL d   1      46.508 -19.511  44.112  0.00  0.00     0.206 A 
ATOM     10  N   UNL d   1      46.470 -19.225  44.850  0.00  0.00    -0.127 NA
ATOM     11  N   UNL d   1      46.546 -20.330  43.990  0.00  0.00    -0.125 N 
ATOM     12  N   UNL d   1      46.434 -18.441  44.955  0.00  0.00    -0.145 NA
ATOM     13  C   UNL d   1      46.436 -17.946  44.330  0.00  0.00     0.125 A 
ENDBRANCH   1   8
TORSDOF 1
ENDMDL
MODEL 3
REMARK VINA RESULT:       6.2      7.190      7.896
REMARK  1 active torsions:
REMARK  status: ('A' for Active; 'I' for Inactive)
REMARK    1  A    between atoms: C_5  and  C_1 
ROOT
ATOM      1  C   UNL d   1      44.361 -15.398  36.695  0.00  0.00     0.005 A 
ATOM      2  C   UNL d   1      44.292 -16.207  36.550  0.00  0.00     0.001 A 
ATOM      3  C   UNL d   1      43.691 -14.922  36.719  0.00  0.00     0.001 A 
ATOM      4  C   UNL d   1      42.875 -16.062  36.453  0.00  0.00     0.058 A 
ATOM      5  C   UNL d   1      42.944 -15.253  36.598  0.00  0.00     0.011 A 
ATOM      6  C   UNL d   1      43.553 -16.541  36.429  0.00  0.00     0.011 A 
ATOM      7 CL   UNL d   1      42.124 -16.401  36.330  0.00  0.00    -0.082 Cl
ENDROOT
BRANCH   1   8
ATOM      8  C   UNL d   1      45.106 -15.066  36.816  0.00  0.00     0.060 A 
ATOM      9  C   UNL d   1      45.394 -14.472  37.269  0.00  0.00     0.206 A 
ATOM     10  N   UNL d   1      46.166 -14.290  37.253  0.00  0.00    -0.127 NA
ATOM     11  N   UNL d   1      44.881 -14.044  37.758  0.00  0.00    -0.125 N 
ATOM     12  N   UNL d   1      46.647 -14.705  36.782  0.00  0.00    -0.145 NA
ATOM     13  C   UNL d   1      46.363 -15.297  36.330  0.00  0.00     0.125 A 
ENDBRANCH   1   8
TORSDOF 1
ENDMDL
MODEL 4
REMARK VINA RESULT:       6.3      7.105      7.820
REMARK  1 active torsions:
REMARK  status: ('A' for Active; 'I' for Inactive)
REMARK    1  A    between atoms: C_5  and  C_1 
ROOT
ATOM      1  C   UNL d   1      44.511 -15.168  36.861  0.00  0.00     0.005 A 
ATOM      2  C   UNL d   1      44.395 -15.860  36.428  0.00  0.00     0.001 A 
ATOM      3  C   UNL d   1      43.871 -14.776  37.197  0.00  0.00     0.001 A 
ATOM      4  C   UNL d   1      42.990 -15.768  36.671  0.00  0.00     0.058 A 
ATOM      5  C   UNL d   1      43.107 -15.075  37.103  0.00  0.00     0.011 A 
ATOM      6  C   UNL d   1      43.638 -16.162  36.332  0.00  0.00     0.011 A 
ATOM      7 CL   UNL d   1      42.222 -16.074  36.573  0.00  0.00    -0.082 Cl
ENDROOT
BRANCH   1   8
ATOM      8  C   UNL d   1      45.273 -14.868  36.956  0.00  0.00     0.060 A 
ATOM      9  C   UNL d   1      46.007 -15.109  36.746  0.00  0.00     0.206 A 
ATOM     10  N   UNL d   1      46.644 -14.673  36.930  0.00  0.00    -0.127 NA
ATOM     11  N   UNL d   1      46.102 -15.820  36.332  0.00  0.00    -0.125 N 
ATOM     12  N   UNL d   1      46.541 -13.995  37.325  0.00  0.00    -0.145 NA
ATOM     13  C   UNL d   1      45.812 -13.752  37.536  0.00  0.00     0.125 A 
ENDBRANCH   1   8
TORSDOF 1
ENDMDL
MODEL 5
REMARK VINA RESULT:       6.6      7.576      8.190
REMARK  1 active torsions:
REMARK  status: ('A' for Active; 'I' for Inactive)
REMARK    1  A    between atoms: C_5  and  C_1 
ROOT
ATOM      1  C   UNL d   1      44.397 -15.249  36.755  0.00  0.00     0.005 A 
ATOM      2  C   UNL d   1      45.055 -15.546  36.356  0.00  0.00     0.001 A 
ATOM      3  C   UNL d   1      44.484 -14.643  37.305  0.00  0.00     0.001 A 
ATOM      4  C   UNL d   1      45.890 -14.626  37.060  0.00  0.00     0.058 A 
ATOM      5  C   UNL d   1      45.232 -14.329  37.459  0.00  0.00     0.011 A 
ATOM      6  C   UNL d   1      45.800 -15.237  36.506  0.00  0.00     0.011 A 
ATOM      7 CL   UNL d   1      46.647 -14.312  37.212  0.00  0.00    -0.082 Cl
ENDROOT
BRANCH   1   8
ATOM      8  C   UNL d   1      43.650 -15.561  36.602  0.00  0.00     0.060 A 
ATOM      9  C   UNL d   1      43.361 -16.294  36.460  0.00  0.00     0.206 A 
ATOM     10  N   UNL d   1      42.586 -16.405  36.331  0.00  0.00    -0.127 NA
ATOM     11  N   UNL d   1      43.876 -16.943  36.449  0.00  0.00    -0.125 N 
ATOM     12  N   UNL d   1      42.103 -15.778  36.343  0.00  0.00    -0.145 NA
ATOM     13  C   UNL d   1      42.388 -15.047  36.484  0.00  0.00     0.125 A 
ENDBRANCH   1   8
TORSDOF 1
ENDMDL
