MODEL 1
REMARK VINA RESULT:       0.7      0.000      0.000
REMARK  8 active torsions:
REMARK  status: ('A' for Active; 'I' for Inactive)
REMARK    1  A    between atoms: N_7  and  N_1 
REMARK    2  A    between atoms: S_9  and  C_2 
REMARK       I    between atoms: C_8  and  N_7 
REMARK    3  A    between atoms: C_16  and  C_8 
REMARK    4  A    between atoms: C_15  and  S_9 
REMARK    5  A    between atoms: C_10  and  C_15 
REMARK       I    between atoms: N_12  and  C_10 
REMARK    6  A    between atoms: C_17  and  N_12 
REMARK    7  A    between atoms: C_19  and  C_16 
REMARK    8  A    between atoms: C_20  and  C_17 
ROOT
ATOM      1  N   UNL d   1      58.599  -1.492  29.530  0.00  0.00    -0.168 N 
ATOM      2  C   UNL d   1      58.340  -1.180  30.229  0.00  0.00     0.199 A 
ATOM      3  C   UNL d   1      59.286  -1.200  29.172  0.00  0.00     0.283 A 
ATOM      4  N   UNL d   1      58.761  -0.556  30.604  0.00  0.00    -0.221 NA
ATOM      5  C   UNL d   1      59.710  -0.578  29.542  0.00  0.00     0.076 A 
ATOM      6  C   UNL d   1      59.446  -0.259  30.255  0.00  0.00     0.088 A 
ATOM      7  O   UNL d   1      59.555  -1.515  28.459  0.00  0.00    -0.265 OA
ATOM      8  C   UNL d   1      60.398  -0.289  29.179  0.00  0.00     0.006 A 
ATOM      9  C   UNL d   1      59.866   0.348  30.609  0.00  0.00     0.019 A 
ATOM     10  C   UNL d   1      60.813   0.324  29.546  0.00  0.00     0.000 A 
ATOM     11  C   UNL d   1      60.549   0.643  30.260  0.00  0.00     0.002 A 
ENDROOT
BRANCH   2  12
ATOM     12  S   UNL d   1      57.664  -1.467  30.580  0.00  0.00    -0.043 SA
BRANCH  12  13
ATOM     13  C   UNL d   1      57.114  -0.948  30.908  0.00  0.00     0.101 C 
BRANCH  13  14
ATOM     14  C   UNL d   1      56.651  -1.186  31.538  0.00  0.00     0.286 C 
ATOM     15  N   UNL d   1      56.423  -0.642  32.110  0.00  0.00    -0.206 NA
ATOM     16  O   UNL d   1      56.413  -1.973  31.601  0.00  0.00    -0.265 OA
BRANCH  15  17
ATOM     17  C   UNL d   1      55.959  -0.880  32.741  0.00  0.00     0.102 C 
BRANCH  17  18
ATOM     18  C   UNL d   1      55.811  -0.363  33.361  0.00  0.00     0.019 A 
ATOM     19  C   UNL d   1      55.091   0.036  33.408  0.00  0.00     0.002 A 
ATOM     20  C   UNL d   1      54.943   0.553  34.028  0.00  0.00     0.000 A 
ATOM     21  C   UNL d   1      55.516   0.675  34.607  0.00  0.00     0.000 A 
ATOM     22  C   UNL d   1      56.238   0.274  34.558  0.00  0.00     0.000 A 
ATOM     23  C   UNL d   1      56.385  -0.241  33.940  0.00  0.00     0.002 A 
ENDBRANCH  17  18
ENDBRANCH  15  17
ENDBRANCH  13  14
ENDBRANCH  12  13
ENDBRANCH   2  12
BRANCH   1  24
ATOM     24  N   UNL d   1      58.186  -2.098  29.169  0.00  0.00    -0.119 NA
ATOM     25  C   UNL d   1      58.508  -2.848  29.145  0.00  0.00     0.296 C 
ATOM     26  O   UNL d   1      59.246  -3.002  29.480  0.00  0.00    -0.264 OA
BRANCH  25  27
ATOM     27  C   UNL d   1      58.088  -3.460  28.779  0.00  0.00     0.064 C 
BRANCH  27  28
ATOM     28  C   UNL d   1      58.443  -4.182  28.671  0.00  0.00     0.005 A 
ATOM     29  C   UNL d   1      59.266  -4.233  28.673  0.00  0.00     0.000 A 
ATOM     30  C   UNL d   1      59.627  -4.967  28.564  0.00  0.00     0.000 A 
ATOM     31  C   UNL d   1      59.175  -5.633  28.455  0.00  0.00     0.000 A 
ATOM     32  C   UNL d   1      58.347  -5.573  28.455  0.00  0.00     0.000 A 
ATOM     33  C   UNL d   1      57.991  -4.848  28.563  0.00  0.00     0.000 A 
ENDBRANCH  27  28
ENDBRANCH  25  27
ENDBRANCH   1  24
TORSDOF 8
ENDMDL
MODEL 2
REMARK VINA RESULT:       1.1      1.694      5.282
REMARK  8 active torsions:
REMARK  status: ('A' for Active; 'I' for Inactive)
REMARK    1  A    between atoms: N_7  and  N_1 
REMARK    2  A    between atoms: S_9  and  C_2 
REMARK       I    between atoms: C_8  and  N_7 
REMARK    3  A    between atoms: C_16  and  C_8 
REMARK    4  A    between atoms: C_15  and  S_9 
REMARK    5  A    between atoms: C_10  and  C_15 
REMARK       I    between atoms: N_12  and  C_10 
REMARK    6  A    between atoms: C_17  and  N_12 
REMARK    7  A    between atoms: C_19  and  C_16 
REMARK    8  A    between atoms: C_20  and  C_17 
ROOT
ATOM      1  N   UNL d   1      58.118   0.681  31.961  0.00  0.00    -0.168 N 
ATOM      2  C   UNL d   1      58.501   0.681  31.249  0.00  0.00     0.199 A 
ATOM      3  C   UNL d   1      58.552   0.681  32.667  0.00  0.00     0.283 A 
ATOM      4  N   UNL d   1      59.341   0.682  31.212  0.00  0.00    -0.221 NA
ATOM      5  C   UNL d   1      59.390   0.681  32.635  0.00  0.00     0.076 A 
ATOM      6  C   UNL d   1      59.780   0.682  31.909  0.00  0.00     0.088 A 
ATOM      7  O   UNL d   1      58.167   0.681  33.396  0.00  0.00    -0.265 OA
ATOM      8  C   UNL d   1      59.819   0.681  33.345  0.00  0.00     0.006 A 
ATOM      9  C   UNL d   1      60.598   0.682  31.888  0.00  0.00     0.019 A 
ATOM     10  C   UNL d   1      60.645   0.682  33.310  0.00  0.00     0.000 A 
ATOM     11  C   UNL d   1      61.035   0.682  32.583  0.00  0.00     0.002 A 
ENDROOT
BRANCH   2  12
ATOM     12  S   UNL d   1      58.074   0.681  30.555  0.00  0.00    -0.043 SA
BRANCH  12  13
ATOM     13  C   UNL d   1      58.465   0.680  29.829  0.00  0.00     0.101 C 
BRANCH  13  14
ATOM     14  C   UNL d   1      58.342   0.070  29.300  0.00  0.00     0.286 C 
ATOM     15  N   UNL d   1      58.924  -0.497  29.182  0.00  0.00    -0.206 NA
ATOM     16  O   UNL d   1      57.631   0.022  28.883  0.00  0.00    -0.265 OA
BRANCH  15  17
ATOM     17  C   UNL d   1      58.802  -1.108  28.652  0.00  0.00     0.102 C 
BRANCH  17  18
ATOM     18  C   UNL d   1      59.244  -1.797  28.708  0.00  0.00     0.019 A 
ATOM     19  C   UNL d   1      60.039  -1.801  28.488  0.00  0.00     0.002 A 
ATOM     20  C   UNL d   1      60.482  -2.489  28.544  0.00  0.00     0.000 A 
ATOM     21  C   UNL d   1      60.131  -3.181  28.822  0.00  0.00     0.000 A 
ATOM     22  C   UNL d   1      59.334  -3.176  29.043  0.00  0.00     0.000 A 
ATOM     23  C   UNL d   1      58.893  -2.488  28.986  0.00  0.00     0.002 A 
ENDBRANCH  17  18
ENDBRANCH  15  17
ENDBRANCH  13  14
ENDBRANCH  12  13
ENDBRANCH   2  12
BRANCH   1  24
ATOM     24  N   UNL d   1      57.302   0.681  31.993  0.00  0.00    -0.119 NA
ATOM     25  C   UNL d   1      56.901  -0.025  32.077  0.00  0.00     0.296 C 
ATOM     26  O   UNL d   1      57.309  -0.739  32.130  0.00  0.00    -0.264 OA
BRANCH  25  27
ATOM     27  C   UNL d   1      56.074  -0.022  32.108  0.00  0.00     0.064 C 
BRANCH  27  28
ATOM     28  C   UNL d   1      55.696  -0.310  32.766  0.00  0.00     0.005 A 
ATOM     29  C   UNL d   1      55.433   0.216  33.344  0.00  0.00     0.000 A 
ATOM     30  C   UNL d   1      55.049  -0.077  34.013  0.00  0.00     0.000 A 
ATOM     31  C   UNL d   1      54.931  -0.876  34.101  0.00  0.00     0.000 A 
ATOM     32  C   UNL d   1      55.199  -1.398  33.514  0.00  0.00     0.000 A 
ATOM     33  C   UNL d   1      55.578  -1.109  32.854  0.00  0.00     0.000 A 
ENDBRANCH  27  28
ENDBRANCH  25  27
ENDBRANCH   1  24
TORSDOF 8
ENDMDL
