MODEL 1
REMARK VINA RESULT:      -5.1      0.000      0.000
REMARK  5 active torsions:
REMARK  status: ('A' for Active; 'I' for Inactive)
REMARK    1  A    between atoms: C_5  and  C_18 
REMARK       I    between atoms: N_9  and  C_5 
REMARK    2  A    between atoms: S_12  and  C_6 
REMARK    3  A    between atoms: C_15  and  C_7 
REMARK    4  A    between atoms: C_10  and  N_9 
REMARK    5  A    between atoms: C_18  and  S_12 
ROOT
ATOM      1  C   UNL d   1     -44.660  13.378  22.102  0.00  0.00     0.099 C 
ENDROOT
BRANCH   1   2
ATOM      2  C   UNL d   1     -45.444  13.132  22.244  0.00  0.00     0.286 C 
ATOM      3  N   UNL d   1     -45.793  13.280  22.967  0.00  0.00    -0.207 NA
ATOM      4  O   UNL d   1     -45.858  12.744  21.658  0.00  0.00    -0.265 OA
BRANCH   3   5
ATOM      5  C   UNL d   1     -46.556  13.040  23.103  0.00  0.00     0.087 A 
ATOM      6  C   UNL d   1     -47.182  13.557  22.958  0.00  0.00     0.046 A 
ATOM      7  C   UNL d   1     -47.957  13.317  23.095  0.00  0.00     0.124 A 
ATOM      8  O   UNL d   1     -48.587  13.822  22.954  0.00  0.00    -0.301 OA
ATOM      9  C   UNL d   1     -48.102  12.544  23.382  0.00  0.00     0.123 A 
ATOM     10  C   UNL d   1     -49.364  13.567  23.096  0.00  0.00     0.149 A 
ATOM     11  C   UNL d   1     -49.504  12.801  23.381  0.00  0.00     0.149 A 
ATOM     12  O   UNL d   1     -48.870  12.292  23.522  0.00  0.00    -0.301 OA
ATOM     13  C   UNL d   1     -47.463  12.041  23.521  0.00  0.00     0.028 A 
ATOM     14  C   UNL d   1     -46.706  12.287  23.384  0.00  0.00     0.021 A 
ENDBRANCH   3   5
ENDBRANCH   1   2
BRANCH   1  15
ATOM     15  S   UNL d   1     -44.184  12.961  21.576  0.00  0.00    -0.061 SA
BRANCH  15  16
ATOM     16  C   UNL d   1     -43.427  13.219  21.415  0.00  0.00     0.133 A 
ATOM     17  N   UNL d   1     -43.262  14.025  21.391  0.00  0.00    -0.141 NA
ATOM     18  N   UNL d   1     -42.498  14.290  21.230  0.00  0.00    -0.148 NA
ATOM     19  C   UNL d   1     -41.895  13.742  21.091  0.00  0.00     0.103 A 
ATOM     20  C   UNL d   1     -42.052  12.937  21.113  0.00  0.00     0.023 A 
ATOM     21  C   UNL d   1     -42.811  12.670  21.274  0.00  0.00     0.029 A 
BRANCH  19  22
ATOM     22  C   UNL d   1     -41.131  14.007  20.929  0.00  0.00     0.019 A 
ATOM     23  C   UNL d   1     -40.554  14.005  21.527  0.00  0.00     0.002 A 
ATOM     24  C   UNL d   1     -39.787  14.272  21.364  0.00  0.00     0.000 A 
ATOM     25  C   UNL d   1     -39.591  14.541  20.603  0.00  0.00     0.000 A 
ATOM     26  C   UNL d   1     -40.158  14.542  20.016  0.00  0.00     0.000 A 
ATOM     27  C   UNL d   1     -40.929  14.278  20.167  0.00  0.00     0.002 A 
ENDBRANCH  19  22
ENDBRANCH  15  16
ENDBRANCH   1  15
TORSDOF 5
ENDMDL
MODEL 2
REMARK VINA RESULT:      -4.8      2.030      3.315
REMARK  5 active torsions:
REMARK  status: ('A' for Active; 'I' for Inactive)
REMARK    1  A    between atoms: C_5  and  C_18 
REMARK       I    between atoms: N_9  and  C_5 
REMARK    2  A    between atoms: S_12  and  C_6 
REMARK    3  A    between atoms: C_15  and  C_7 
REMARK    4  A    between atoms: C_10  and  N_9 
REMARK    5  A    between atoms: C_18  and  S_12 
ROOT
ATOM      1  C   UNL d   1     -42.071  13.258  20.542  0.00  0.00     0.099 C 
ENDROOT
BRANCH   1   2
ATOM      2  C   UNL d   1     -42.675  13.202  21.115  0.00  0.00     0.286 C 
ATOM      3  N   UNL d   1     -43.293  12.680  21.006  0.00  0.00    -0.207 NA
ATOM      4  O   UNL d   1     -42.643  13.672  21.782  0.00  0.00    -0.265 OA
BRANCH   3   5
ATOM      5  C   UNL d   1     -43.879  12.628  21.565  0.00  0.00     0.087 A 
ATOM      6  C   UNL d   1     -44.521  13.147  21.536  0.00  0.00     0.046 A 
ATOM      7  C   UNL d   1     -45.117  13.097  22.101  0.00  0.00     0.124 A 
ATOM      8  O   UNL d   1     -45.760  13.606  22.084  0.00  0.00    -0.301 OA
ATOM      9  C   UNL d   1     -45.066  12.517  22.702  0.00  0.00     0.123 A 
ATOM     10  C   UNL d   1     -46.354  13.545  22.659  0.00  0.00     0.149 A 
ATOM     11  C   UNL d   1     -46.300  12.969  23.253  0.00  0.00     0.149 A 
ATOM     12  O   UNL d   1     -45.653  12.456  23.271  0.00  0.00    -0.301 OA
ATOM     13  C   UNL d   1     -44.417  12.007  22.714  0.00  0.00     0.028 A 
ATOM     14  C   UNL d   1     -43.836  12.064  22.155  0.00  0.00     0.021 A 
ENDBRANCH   3   5
ENDBRANCH   1   2
BRANCH   1  15
ATOM     15  S   UNL d   1     -41.639  13.954  20.461  0.00  0.00    -0.061 SA
BRANCH  15  16
ATOM     16  C   UNL d   1     -41.160  14.065  19.810  0.00  0.00     0.133 A 
ATOM     17  N   UNL d   1     -41.402  13.800  19.069  0.00  0.00    -0.141 NA
ATOM     18  N   UNL d   1     -40.921  13.911  18.409  0.00  0.00    -0.148 NA
ATOM     19  C   UNL d   1     -40.191  14.290  18.493  0.00  0.00     0.103 A 
ATOM     20  C   UNL d   1     -39.943  14.556  19.228  0.00  0.00     0.023 A 
ATOM     21  C   UNL d   1     -40.420  14.448  19.887  0.00  0.00     0.029 A 
BRANCH  19  22
ATOM     22  C   UNL d   1     -39.709  14.400  17.833  0.00  0.00     0.019 A 
ATOM     23  C   UNL d   1     -39.744  15.112  17.406  0.00  0.00     0.002 A 
ATOM     24  C   UNL d   1     -39.260  15.222  16.743  0.00  0.00     0.000 A 
ATOM     25  C   UNL d   1     -38.739  14.623  16.502  0.00  0.00     0.000 A 
ATOM     26  C   UNL d   1     -38.705  13.923  16.922  0.00  0.00     0.000 A 
ATOM     27  C   UNL d   1     -39.184  13.801  17.587  0.00  0.00     0.002 A 
ENDBRANCH  19  22
ENDBRANCH  15  16
ENDBRANCH   1  15
TORSDOF 5
ENDMDL
MODEL 3
REMARK VINA RESULT:      -4.0      1.655      6.834
REMARK  5 active torsions:
REMARK  status: ('A' for Active; 'I' for Inactive)
REMARK    1  A    between atoms: C_5  and  C_18 
REMARK       I    between atoms: N_9  and  C_5 
REMARK    2  A    between atoms: S_12  and  C_6 
REMARK    3  A    between atoms: C_15  and  C_7 
REMARK    4  A    between atoms: C_10  and  N_9 
REMARK    5  A    between atoms: C_18  and  S_12 
ROOT
ATOM      1  C   UNL d   1     -45.847  13.107  22.130  0.00  0.00     0.099 C 
ENDROOT
BRANCH   1   2
ATOM      2  C   UNL d   1     -45.021  13.213  22.083  0.00  0.00     0.286 C 
ATOM      3  N   UNL d   1     -44.584  12.776  21.549  0.00  0.00    -0.207 NA
ATOM      4  O   UNL d   1     -44.654  13.752  22.573  0.00  0.00    -0.265 OA
BRANCH   3   5
ATOM      5  C   UNL d   1     -43.781  12.881  21.505  0.00  0.00     0.087 A 
ATOM      6  C   UNL d   1     -43.473  13.565  21.163  0.00  0.00     0.046 A 
ATOM      7  C   UNL d   1     -42.659  13.674  21.116  0.00  0.00     0.124 A 
ATOM      8  O   UNL d   1     -42.341  14.351  20.778  0.00  0.00    -0.301 OA
ATOM      9  C   UNL d   1     -42.148  13.085  21.420  0.00  0.00     0.123 A 
ATOM     10  C   UNL d   1     -41.518  14.448  20.738  0.00  0.00     0.149 A 
ATOM     11  C   UNL d   1     -41.016  13.862  21.040  0.00  0.00     0.149 A 
ATOM     12  O   UNL d   1     -41.335  13.181  21.381  0.00  0.00    -0.301 OA
ATOM     13  C   UNL d   1     -42.475  12.408  21.760  0.00  0.00     0.028 A 
ATOM     14  C   UNL d   1     -43.275  12.310  21.800  0.00  0.00     0.021 A 
ENDBRANCH   3   5
ENDBRANCH   1   2
BRANCH   1  15
ATOM     15  S   UNL d   1     -46.285  13.514  22.696  0.00  0.00    -0.061 SA
BRANCH  15  16
ATOM     16  C   UNL d   1     -47.067  13.320  22.826  0.00  0.00     0.133 A 
ATOM     17  N   UNL d   1     -47.261  12.703  23.334  0.00  0.00    -0.141 NA
ATOM     18  N   UNL d   1     -48.049  12.504  23.468  0.00  0.00    -0.148 NA
ATOM     19  C   UNL d   1     -48.648  12.929  23.088  0.00  0.00     0.103 A 
ATOM     20  C   UNL d   1     -48.464  13.544  22.580  0.00  0.00     0.023 A 
ATOM     21  C   UNL d   1     -47.679  13.745  22.444  0.00  0.00     0.029 A 
BRANCH  19  22
ATOM     22  C   UNL d   1     -49.438  12.730  23.221  0.00  0.00     0.019 A 
ATOM     23  C   UNL d   1     -49.986  13.318  23.433  0.00  0.00     0.002 A 
ATOM     24  C   UNL d   1     -50.779  13.117  23.567  0.00  0.00     0.000 A 
ATOM     25  C   UNL d   1     -51.028  12.329  23.491  0.00  0.00     0.000 A 
ATOM     26  C   UNL d   1     -50.490  11.752  23.283  0.00  0.00     0.000 A 
ATOM     27  C   UNL d   1     -49.694  11.940  23.146  0.00  0.00     0.002 A 
ENDBRANCH  19  22
ENDBRANCH  15  16
ENDBRANCH   1  15
TORSDOF 5
ENDMDL
