MODEL 1
REMARK VINA RESULT:      -4.2      0.000      0.000
REMARK  5 active torsions:
REMARK  status: ('A' for Active; 'I' for Inactive)
REMARK       I    between atoms: C_3  and  N_1 
REMARK    1  A    between atoms: S_7  and  C_2 
REMARK    2  A    between atoms: C_6  and  C_3 
REMARK    3  A    between atoms: N_4  and  C_8 
REMARK    4  A    between atoms: C_17  and  S_7 
REMARK    5  A    between atoms: C_18  and  C_17 
ROOT
ATOM      1  N   UNL d   1     -41.484-122.336 -50.971  0.00  0.00    -0.251 N 
ATOM      2  C   UNL d   1     -41.378-122.024 -51.731  0.00  0.00     0.182 A 
ATOM      3  C   UNL d   1     -41.708-123.109 -50.786  0.00  0.00     0.266 C 
ATOM      4  N   UNL d   1     -41.157-121.238 -51.650  0.00  0.00    -0.219 NA
ATOM      5  O   UNL d   1     -41.849-123.657 -51.389  0.00  0.00    -0.267 OA
ATOM      6  C   UNL d   1     -41.326-121.733 -50.419  0.00  0.00     0.106 A 
ATOM      7  C   UNL d   1     -41.123-121.052 -50.847  0.00  0.00     0.120 A 
ENDROOT
BRANCH   2   8
ATOM      8  S   UNL d   1     -41.480-122.439 -52.434  0.00  0.00    -0.049 SA
BRANCH   8   9
ATOM      9  C   UNL d   1     -41.123-122.173 -53.120  0.00  0.00     0.038 C 
BRANCH   9  10
ATOM     10  C   UNL d   1     -41.528-122.200 -53.832  0.00  0.00     0.007 A 
ATOM     11  C   UNL d   1     -41.583-122.916 -54.250  0.00  0.00     0.002 A 
ATOM     12  C   UNL d   1     -41.992-122.941 -54.969  0.00  0.00     0.024 A 
ATOM     13  C   UNL d   1     -42.339-122.258 -55.264  0.00  0.00     0.127 A 
ATOM     14  C   UNL d   1     -42.288-121.548 -54.856  0.00  0.00     0.024 A 
ATOM     15  C   UNL d   1     -41.880-121.522 -54.139  0.00  0.00     0.002 A 
BRANCH  13  16
ATOM     16  N   UNL d   1     -42.747-122.291 -55.985  0.00  0.00    -0.114 N 
ATOM     17  O   UNL d   1     -43.317-122.895 -56.122  0.00  0.00    -0.532 OA
ATOM     18  O   UNL d   1     -42.601-121.731 -56.584  0.00  0.00    -0.532 OA
ENDBRANCH  13  16
ENDBRANCH   9  10
ENDBRANCH   8   9
ENDBRANCH   2   8
BRANCH   3  19
ATOM     19  C   UNL d   1     -41.791-123.339 -49.993  0.00  0.00     0.057 A 
ATOM     20  C   UNL d   1     -42.547-123.356 -49.650  0.00  0.00     0.005 A 
ATOM     21  C   UNL d   1     -42.615-123.586 -48.862  0.00  0.00     0.000 A 
ATOM     22  C   UNL d   1     -43.368-123.605 -48.517  0.00  0.00     0.000 C 
ATOM     23  C   UNL d   1     -41.945-123.795 -48.422  0.00  0.00     0.000 A 
ATOM     24  C   UNL d   1     -41.202-123.776 -48.767  0.00  0.00     0.000 A 
ATOM     25  C   UNL d   1     -41.124-123.547 -49.555  0.00  0.00     0.005 A 
ENDBRANCH   3  19
TORSDOF 5
ENDMDL
MODEL 2
REMARK VINA RESULT:      -3.1      1.623      5.305
REMARK  5 active torsions:
REMARK  status: ('A' for Active; 'I' for Inactive)
REMARK       I    between atoms: C_3  and  N_1 
REMARK    1  A    between atoms: S_7  and  C_2 
REMARK    2  A    between atoms: C_6  and  C_3 
REMARK    3  A    between atoms: N_4  and  C_8 
REMARK    4  A    between atoms: C_17  and  S_7 
REMARK    5  A    between atoms: C_18  and  C_17 
ROOT
ATOM      1  N   UNL d   1     -41.478-122.132 -52.465  0.00  0.00    -0.251 N 
ATOM      2  C   UNL d   1     -41.471-122.009 -51.645  0.00  0.00     0.182 A 
ATOM      3  C   UNL d   1     -41.635-122.844 -52.851  0.00  0.00     0.266 C 
ATOM      4  N   UNL d   1     -41.289-121.219 -51.513  0.00  0.00    -0.219 NA
ATOM      5  O   UNL d   1     -41.806-123.525 -52.415  0.00  0.00    -0.267 OA
ATOM      6  C   UNL d   1     -41.299-121.409 -52.837  0.00  0.00     0.106 A 
ATOM      7  C   UNL d   1     -41.182-120.844 -52.240  0.00  0.00     0.120 A 
ENDROOT
BRANCH   2   8
ATOM      8  S   UNL d   1     -41.620-122.584 -51.076  0.00  0.00    -0.049 SA
BRANCH   8   9
ATOM      9  C   UNL d   1     -41.230-122.557 -50.358  0.00  0.00     0.038 C 
BRANCH   9  10
ATOM     10  C   UNL d   1     -41.598-122.835 -49.680  0.00  0.00     0.007 A 
ATOM     11  C   UNL d   1     -42.247-122.424 -49.363  0.00  0.00     0.002 A 
ATOM     12  C   UNL d   1     -42.616-122.705 -48.678  0.00  0.00     0.024 A 
ATOM     13  C   UNL d   1     -42.338-123.388 -48.317  0.00  0.00     0.127 A 
ATOM     14  C   UNL d   1     -41.698-123.798 -48.626  0.00  0.00     0.024 A 
ATOM     15  C   UNL d   1     -41.329-123.518 -49.308  0.00  0.00     0.002 A 
BRANCH  13  16
ATOM     16  N   UNL d   1     -42.714-123.664 -47.631  0.00  0.00    -0.114 N 
ATOM     17  O   UNL d   1     -42.266-123.817 -46.936  0.00  0.00    -0.532 OA
ATOM     18  O   UNL d   1     -43.537-123.794 -47.618  0.00  0.00    -0.532 OA
ENDBRANCH  13  16
ENDBRANCH   9  10
ENDBRANCH   8   9
ENDBRANCH   2   8
BRANCH   3  19
ATOM     19  C   UNL d   1     -41.621-122.879 -53.680  0.00  0.00     0.057 A 
ATOM     20  C   UNL d   1     -42.065-122.333 -54.119  0.00  0.00     0.005 A 
ATOM     21  C   UNL d   1     -42.043-122.379 -54.941  0.00  0.00     0.000 A 
ATOM     22  C   UNL d   1     -42.485-121.835 -55.382  0.00  0.00     0.000 C 
ATOM     23  C   UNL d   1     -41.587-122.958 -55.321  0.00  0.00     0.000 A 
ATOM     24  C   UNL d   1     -41.151-123.494 -54.881  0.00  0.00     0.000 A 
ATOM     25  C   UNL d   1     -41.168-123.456 -54.058  0.00  0.00     0.005 A 
ENDBRANCH   3  19
TORSDOF 5
ENDMDL
MODEL 3
REMARK VINA RESULT:      -2.5      1.380      2.010
REMARK  5 active torsions:
REMARK  status: ('A' for Active; 'I' for Inactive)
REMARK       I    between atoms: C_3  and  N_1 
REMARK    1  A    between atoms: S_7  and  C_2 
REMARK    2  A    between atoms: C_6  and  C_3 
REMARK    3  A    between atoms: N_4  and  C_8 
REMARK    4  A    between atoms: C_17  and  S_7 
REMARK    5  A    between atoms: C_18  and  C_17 
ROOT
ATOM      1  N   UNL d   1     -42.585-122.596 -49.802  0.00  0.00    -0.251 N 
ATOM      2  C   UNL d   1     -42.564-122.381 -50.603  0.00  0.00     0.182 A 
ATOM      3  C   UNL d   1     -41.992-122.993 -49.387  0.00  0.00     0.266 C 
ATOM      4  N   UNL d   1     -43.269-121.999 -50.777  0.00  0.00    -0.219 NA
ATOM      5  O   UNL d   1     -41.294-123.217 -49.769  0.00  0.00    -0.267 OA
ATOM      6  C   UNL d   1     -43.311-122.341 -49.485  0.00  0.00     0.106 A 
ATOM      7  C   UNL d   1     -43.733-121.970 -50.096  0.00  0.00     0.120 A 
ENDROOT
BRANCH   2   8
ATOM      8  S   UNL d   1     -41.941-122.531 -51.119  0.00  0.00    -0.049 SA
BRANCH   8   9
ATOM      9  C   UNL d   1     -41.749-121.983 -51.695  0.00  0.00     0.038 C 
BRANCH   9  10
ATOM     10  C   UNL d   1     -41.635-122.223 -52.470  0.00  0.00     0.007 A 
ATOM     11  C   UNL d   1     -41.922-121.756 -53.094  0.00  0.00     0.002 A 
ATOM     12  C   UNL d   1     -41.807-121.999 -53.877  0.00  0.00     0.024 A 
ATOM     13  C   UNL d   1     -41.409-122.701 -54.030  0.00  0.00     0.127 A 
ATOM     14  C   UNL d   1     -41.123-123.166 -53.418  0.00  0.00     0.024 A 
ATOM     15  C   UNL d   1     -41.238-122.924 -52.637  0.00  0.00     0.002 A 
BRANCH  13  16
ATOM     16  N   UNL d   1     -41.297-122.939 -54.817  0.00  0.00    -0.114 N 
ATOM     17  O   UNL d   1     -41.292-122.368 -55.434  0.00  0.00    -0.532 OA
ATOM     18  O   UNL d   1     -41.187-123.742 -55.008  0.00  0.00    -0.532 OA
ENDBRANCH  13  16
ENDBRANCH   9  10
ENDBRANCH   8   9
ENDBRANCH   2   8
BRANCH   3  19
ATOM     19  C   UNL d   1     -42.096-123.170 -48.582  0.00  0.00     0.057 A 
ATOM     20  C   UNL d   1     -41.551-122.881 -48.027  0.00  0.00     0.005 A 
ATOM     21  C   UNL d   1     -41.666-123.064 -47.232  0.00  0.00     0.000 A 
ATOM     22  C   UNL d   1     -41.123-122.778 -46.676  0.00  0.00     0.000 C 
ATOM     23  C   UNL d   1     -42.311-123.526 -46.993  0.00  0.00     0.000 A 
ATOM     24  C   UNL d   1     -42.846-123.808 -47.547  0.00  0.00     0.000 A 
ATOM     25  C   UNL d   1     -42.739-123.630 -48.344  0.00  0.00     0.005 A 
ENDBRANCH   3  19
TORSDOF 5
ENDMDL
