MODEL 1
REMARK VINA RESULT:      93.6      0.000      0.000
REMARK  7 active torsions:
REMARK  status: ('A' for Active; 'I' for Inactive)
REMARK    1  A    between atoms: N_3  and  S_1 
REMARK    2  A    between atoms: C_6  and  S_1 
REMARK    3  A    between atoms: N_2  and  C_5 
REMARK    4  A    between atoms: C_4  and  N_3 
REMARK    5  A    between atoms: C_5  and  C_4 
REMARK    6  A    between atoms: C_10  and  C_5 
REMARK    7  A    between atoms: C_22  and  N_7 
ROOT
ATOM      1  C   UNL d   1      60.592  48.918  50.622  0.00  0.00     0.086 C 
ENDROOT
BRANCH   1   2
ATOM      2  N   UNL d   1      60.801  49.109  51.398  0.00  0.00    -0.300 N 
ATOM      3  C   UNL d   1      60.225  49.128  51.984  0.00  0.00     0.100 A 
ATOM      4  C   UNL d   1      60.429  49.319  52.763  0.00  0.00     0.100 A 
ATOM      5  N   UNL d   1      61.213  49.491  52.950  0.00  0.00    -0.300 N 
ATOM      6  C   UNL d   1      61.791  49.471  52.357  0.00  0.00     0.100 A 
ATOM      7  C   UNL d   1      61.585  49.281  51.585  0.00  0.00     0.100 A 
BRANCH   5   8
ATOM      8  C   UNL d   1      61.426  49.683  53.728  0.00  0.00     0.080 C 
ATOM      9  C   UNL d   1      62.146  49.413  54.037  0.00  0.00     0.021 C 
ENDBRANCH   5   8
ENDBRANCH   1   2
BRANCH   1  10
ATOM     10  C   UNL d   1      61.119  48.499  50.141  0.00  0.00     0.130 C 
BRANCH  10  11
ATOM     11  N   UNL d   1      61.109  47.671  50.144  0.00  0.00    -0.155 NA
BRANCH  11  12
ATOM     12  S   UNL d   1      61.752  47.250  49.854  0.00  0.00     0.285 S 
ATOM     13  O   UNL d   1      62.399  46.829  49.563  0.00  0.00    -0.198 OA
ATOM     14  O   UNL d   1      62.083  47.960  49.568  0.00  0.00    -0.198 OA
BRANCH  12  15
ATOM     15  C   UNL d   1      61.416  46.545  50.142  0.00  0.00     0.105 A 
ATOM     16  C   UNL d   1      61.151  45.968  49.619  0.00  0.00     0.013 A 
ATOM     17  C   UNL d   1      60.820  45.273  49.906  0.00  0.00     0.001 A 
ATOM     18  C   UNL d   1      60.754  45.153  50.720  0.00  0.00     0.000 A 
ATOM     19  C   UNL d   1      61.019  45.730  51.243  0.00  0.00     0.001 A 
ATOM     20  C   UNL d   1      60.418  44.448  51.014  0.00  0.00     0.000 C 
ATOM     21  C   UNL d   1      61.350  46.425  50.956  0.00  0.00     0.013 A 
ENDBRANCH  12  15
ENDBRANCH  11  12
ENDBRANCH  10  11
ENDBRANCH   1  10
BRANCH   1  22
ATOM     22  C   UNL d   1      59.850  49.147  50.321  0.00  0.00     0.037 A 
ATOM     23  C   UNL d   1      59.169  49.039  50.779  0.00  0.00     0.100 A 
ATOM     24  N   UNL d   1      58.436  49.265  50.481  0.00  0.00    -0.242 NA
ATOM     25  C   UNL d   1      58.384  49.598  49.725  0.00  0.00     0.099 A 
ATOM     26  C   UNL d   1      59.062  49.703  49.273  0.00  0.00     0.021 A 
ATOM     27  C   UNL d   1      59.796  49.477  49.571  0.00  0.00     0.005 A 
ENDBRANCH   1  22
TORSDOF 7
ENDMDL
