MODEL 1
REMARK VINA RESULT:      19.7      0.000      0.000
REMARK  2 active torsions:
REMARK  status: ('A' for Active; 'I' for Inactive)
REMARK    1  A    between atoms: C_6  and  C_1 
REMARK    2  A    between atoms: C_7  and  C_5 
ROOT
ATOM      1  C   UNL d   1      13.406  13.052  -3.058  0.00  0.00     0.085 A 
ATOM      2  C   UNL d   1      13.325  12.238  -3.179  0.00  0.00     0.137 A 
ATOM      3  C   UNL d   1      13.838  13.184  -2.383  0.00  0.00     0.013 A 
ATOM      4  S   UNL d   1      13.719  11.867  -2.560  0.00  0.00    -0.066 SA
ATOM      5  C   UNL d   1      14.031  12.436  -2.077  0.00  0.00     0.031 A 
ATOM      6  N   UNL d   1      12.918  11.899  -3.813  0.00  0.00    -0.141 N 
ENDROOT
BRANCH   5   7
ATOM      7  C   UNL d   1      14.468  12.346  -1.393  0.00  0.00     0.006 A 
ATOM      8  C   UNL d   1      15.224  12.636  -1.359  0.00  0.00     0.001 A 
ATOM      9  C   UNL d   1      15.673  12.549  -0.669  0.00  0.00     0.000 A 
ATOM     10  C   UNL d   1      15.355  12.169  -0.020  0.00  0.00     0.000 A 
ATOM     11  C   UNL d   1      14.586  11.873  -0.053  0.00  0.00     0.000 A 
ATOM     12  C   UNL d   1      14.147  11.963  -0.737  0.00  0.00     0.001 A 
ENDBRANCH   5   7
BRANCH   1  13
ATOM     13  C   UNL d   1      13.095  13.661  -3.549  0.00  0.00     0.299 C 
ATOM     14  O   UNL d   1      12.951  13.516  -4.336  0.00  0.00    -0.264 OA
ATOM     15  N   UNL d   1      12.941  14.397  -3.219  0.00  0.00    -0.102 N 
ENDBRANCH   1  13
TORSDOF 2
ENDMDL
