MODEL 1
REMARK VINA RESULT:      17.9      0.000      0.000
REMARK  3 active torsions:
REMARK  status: ('A' for Active; 'I' for Inactive)
REMARK    1  A    between atoms: S_4  and  C_1 
REMARK    2  A    between atoms: C_8  and  S_4 
REMARK    3  A    between atoms: C_9  and  C_8 
ROOT
ATOM      1  C   UNL d   1      13.733  11.881  -1.731  0.00  0.00     0.114 A 
ATOM      2  C   UNL d   1      14.428  11.959  -1.294  0.00  0.00     0.042 A 
ATOM      3  N   UNL d   1      13.014  11.791  -1.340  0.00  0.00    -0.217 NA
ATOM      4  N   UNL d   1      13.686  11.857  -0.079  0.00  0.00    -0.224 NA
ATOM      5  C   UNL d   1      12.991  11.779  -0.511  0.00  0.00     0.200 A 
ATOM      6  C   UNL d   1      14.405  11.947  -0.469  0.00  0.00     0.085 A 
ATOM      7  C   UNL d   1      15.146  12.048  -1.685  0.00  0.00     0.004 A 
ATOM      8  C   UNL d   1      15.105  12.026  -0.037  0.00  0.00     0.019 A 
ATOM      9  C   UNL d   1      15.854  12.128  -1.256  0.00  0.00     0.000 A 
ATOM     10  C   UNL d   1      15.823  12.115  -0.427  0.00  0.00     0.002 A 
ENDROOT
BRANCH   1  11
ATOM     11  S   UNL d   1      13.756  11.892  -2.563  0.00  0.00    -0.067 SA
BRANCH  11  12
ATOM     12  C   UNL d   1      13.106  12.152  -2.990  0.00  0.00     0.037 C 
BRANCH  12  13
ATOM     13  C   UNL d   1      13.191  12.354  -3.786  0.00  0.00     0.006 A 
ATOM     14  C   UNL d   1      13.056  13.143  -4.029  0.00  0.00     0.001 A 
ATOM     15  C   UNL d   1      12.839  13.713  -3.473  0.00  0.00     0.000 C 
ATOM     16  C   UNL d   1      13.143  13.339  -4.831  0.00  0.00     0.000 A 
ATOM     17  C   UNL d   1      13.357  12.770  -5.375  0.00  0.00     0.000 A 
ATOM     18  C   UNL d   1      13.489  11.996  -5.131  0.00  0.00     0.000 A 
ATOM     19  C   UNL d   1      13.408  11.779  -4.336  0.00  0.00     0.001 A 
ENDBRANCH  12  13
ENDBRANCH  11  12
ENDBRANCH   1  11
TORSDOF 3
ENDMDL
MODEL 2
REMARK VINA RESULT:      18.4      1.178      3.960
REMARK  3 active torsions:
REMARK  status: ('A' for Active; 'I' for Inactive)
REMARK    1  A    between atoms: S_4  and  C_1 
REMARK    2  A    between atoms: C_8  and  S_4 
REMARK    3  A    between atoms: C_9  and  C_8 
ROOT
ATOM      1  C   UNL d   1      13.313  12.566  -3.386  0.00  0.00     0.114 A 
ATOM      2  C   UNL d   1      13.265  13.246  -3.851  0.00  0.00     0.042 A 
ATOM      3  N   UNL d   1      13.138  11.834  -3.717  0.00  0.00    -0.217 NA
ATOM      4  N   UNL d   1      12.866  12.460  -4.974  0.00  0.00    -0.224 NA
ATOM      5  C   UNL d   1      12.914  11.780  -4.513  0.00  0.00     0.200 A 
ATOM      6  C   UNL d   1      13.042  13.193  -4.644  0.00  0.00     0.085 A 
ATOM      7  C   UNL d   1      13.441  13.978  -3.521  0.00  0.00     0.004 A 
ATOM      8  C   UNL d   1      12.995  13.877  -5.105  0.00  0.00     0.019 A 
ATOM      9  C   UNL d   1      13.396  14.671  -3.979  0.00  0.00     0.000 A 
ATOM     10  C   UNL d   1      13.171  14.610  -4.775  0.00  0.00     0.002 A 
ENDROOT
BRANCH   1  11
ATOM     11  S   UNL d   1      13.538  12.620  -2.586  0.00  0.00    -0.067 SA
BRANCH  11  12
ATOM     12  C   UNL d   1      13.509  11.958  -2.104  0.00  0.00     0.037 C 
BRANCH  12  13
ATOM     13  C   UNL d   1      14.009  11.903  -1.449  0.00  0.00     0.006 A 
ATOM     14  C   UNL d   1      13.680  11.835  -0.683  0.00  0.00     0.001 A 
ATOM     15  C   UNL d   1      12.860  11.825  -0.587  0.00  0.00     0.000 C 
ATOM     16  C   UNL d   1      14.189  11.780  -0.029  0.00  0.00     0.000 A 
ATOM     17  C   UNL d   1      14.998  11.791  -0.133  0.00  0.00     0.000 A 
ATOM     18  C   UNL d   1      15.316  11.858  -0.889  0.00  0.00     0.000 A 
ATOM     19  C   UNL d   1      14.826  11.914  -1.554  0.00  0.00     0.001 A 
ENDBRANCH  12  13
ENDBRANCH  11  12
ENDBRANCH   1  11
TORSDOF 3
ENDMDL
