MODEL 1
REMARK VINA RESULT:      -3.4      0.000      0.000
REMARK  4 active torsions:
REMARK  status: ('A' for Active; 'I' for Inactive)
REMARK       I    between atoms: C_3  and  N_1 
REMARK    1  A    between atoms: C_9  and  C_3 
REMARK    2  A    between atoms: S_8  and  C_9 
REMARK    3  A    between atoms: C_12  and  S_8 
REMARK    4  A    between atoms: C_11  and  C_12 
ROOT
ATOM      1  N   UNL d   1      33.039  21.564 -21.858  0.00  0.00    -0.274 N 
ATOM      2  C   UNL d   1      32.851  22.075 -21.240  0.00  0.00     0.067 A 
ATOM      3  C   UNL d   1      33.030  20.731 -21.830  0.00  0.00     0.259 C 
ATOM      4  C   UNL d   1      33.240  22.021 -22.521  0.00  0.00     0.083 A 
ATOM      5  C   UNL d   1      32.933  22.847 -21.512  0.00  0.00     0.018 A 
ATOM      6  O   UNL d   1      32.817  20.335 -21.128  0.00  0.00    -0.267 OA
ATOM      7  C   UNL d   1      33.173  22.809 -22.299  0.00  0.00     0.021 A 
ATOM      8  C   UNL d   1      32.615  21.937 -20.464  0.00  0.00     0.018 A 
ATOM      9  C   UNL d   1      32.783  23.481 -21.018  0.00  0.00     0.002 A 
ATOM     10  C   UNL d   1      32.462  22.559 -19.962  0.00  0.00     0.002 A 
ATOM     11  C   UNL d   1      32.543  23.341 -20.230  0.00  0.00     0.000 A 
ENDROOT
BRANCH   3  12
ATOM     12  C   UNL d   1      33.236  20.285 -22.504  0.00  0.00     0.125 C 
BRANCH  12  13
ATOM     13  S   UNL d   1      33.022  19.493 -22.554  0.00  0.00    -0.094 SA
BRANCH  13  14
ATOM     14  C   UNL d   1      33.241  19.050 -23.221  0.00  0.00     0.035 C 
BRANCH  14  15
ATOM     15  C   UNL d   1      32.881  18.314 -23.363  0.00  0.00     0.006 A 
ATOM     16  C   UNL d   1      33.228  17.627 -23.067  0.00  0.00     0.001 A 
ATOM     17  C   UNL d   1      32.871  16.895 -23.208  0.00  0.00     0.000 A 
ATOM     18  C   UNL d   1      32.168  16.866 -23.646  0.00  0.00     0.000 A 
ATOM     19  C   UNL d   1      31.825  17.549 -23.940  0.00  0.00     0.000 A 
ATOM     20  C   UNL d   1      32.177  18.275 -23.801  0.00  0.00     0.001 A 
ENDBRANCH  14  15
ENDBRANCH  13  14
ENDBRANCH  12  13
ENDBRANCH   3  12
TORSDOF 4
ENDMDL
MODEL 2
REMARK VINA RESULT:      -3.1      1.405      5.326
REMARK  4 active torsions:
REMARK  status: ('A' for Active; 'I' for Inactive)
REMARK       I    between atoms: C_3  and  N_1 
REMARK    1  A    between atoms: C_9  and  C_3 
REMARK    2  A    between atoms: S_8  and  C_9 
REMARK    3  A    between atoms: C_12  and  S_8 
REMARK    4  A    between atoms: C_11  and  C_12 
ROOT
ATOM      1  N   UNL d   1      32.641  17.540 -23.341  0.00  0.00    -0.274 N 
ATOM      2  C   UNL d   1      32.223  17.056 -23.861  0.00  0.00     0.067 A 
ATOM      3  C   UNL d   1      32.543  18.363 -23.246  0.00  0.00     0.259 C 
ATOM      4  C   UNL d   1      33.181  17.068 -22.924  0.00  0.00     0.083 A 
ATOM      5  C   UNL d   1      32.498  16.286 -23.771  0.00  0.00     0.018 A 
ATOM      6  O   UNL d   1      31.980  18.775 -23.700  0.00  0.00    -0.267 OA
ATOM      7  C   UNL d   1      33.086  16.298 -23.195  0.00  0.00     0.021 A 
ATOM      8  C   UNL d   1      31.627  17.218 -24.405  0.00  0.00     0.018 A 
ATOM      9  C   UNL d   1      32.185  15.678 -24.218  0.00  0.00     0.002 A 
ATOM     10  C   UNL d   1      31.307  16.621 -24.856  0.00  0.00     0.002 A 
ATOM     11  C   UNL d   1      31.580  15.841 -24.771  0.00  0.00     0.000 A 
ENDROOT
BRANCH   3  12
ATOM     12  C   UNL d   1      33.009  18.780 -22.695  0.00  0.00     0.125 C 
BRANCH  12  13
ATOM     13  S   UNL d   1      32.806  19.547 -22.481  0.00  0.00    -0.094 SA
BRANCH  13  14
ATOM     14  C   UNL d   1      33.240  19.939 -21.894  0.00  0.00     0.035 C 
BRANCH  14  15
ATOM     15  C   UNL d   1      33.028  20.711 -21.669  0.00  0.00     0.006 A 
ATOM     16  C   UNL d   1      33.234  21.347 -22.153  0.00  0.00     0.001 A 
ATOM     17  C   UNL d   1      33.023  22.115 -21.931  0.00  0.00     0.000 A 
ATOM     18  C   UNL d   1      32.608  22.232 -21.224  0.00  0.00     0.000 A 
ATOM     19  C   UNL d   1      32.404  21.599 -20.744  0.00  0.00     0.000 A 
ATOM     20  C   UNL d   1      32.612  20.838 -20.964  0.00  0.00     0.001 A 
ENDBRANCH  14  15
ENDBRANCH  13  14
ENDBRANCH  12  13
ENDBRANCH   3  12
TORSDOF 4
ENDMDL
MODEL 3
REMARK VINA RESULT:      -3.0      1.001      4.855
REMARK  4 active torsions:
REMARK  status: ('A' for Active; 'I' for Inactive)
REMARK       I    between atoms: C_3  and  N_1 
REMARK    1  A    between atoms: C_9  and  C_3 
REMARK    2  A    between atoms: S_8  and  C_9 
REMARK    3  A    between atoms: C_12  and  S_8 
REMARK    4  A    between atoms: C_11  and  C_12 
ROOT
ATOM      1  N   UNL d   1      33.043  19.245 -23.330  0.00  0.00    -0.274 N 
ATOM      2  C   UNL d   1      32.911  18.439 -23.442  0.00  0.00     0.067 A 
ATOM      3  C   UNL d   1      33.105  19.637 -22.596  0.00  0.00     0.259 C 
ATOM      4  C   UNL d   1      33.105  19.604 -24.075  0.00  0.00     0.083 A 
ATOM      5  C   UNL d   1      32.890  18.293 -24.251  0.00  0.00     0.018 A 
ATOM      6  O   UNL d   1      33.032  19.213 -21.884  0.00  0.00    -0.267 OA
ATOM      7  C   UNL d   1      33.010  19.011 -24.636  0.00  0.00     0.021 A 
ATOM      8  C   UNL d   1      32.806  17.819 -22.910  0.00  0.00     0.018 A 
ATOM      9  C   UNL d   1      32.766  17.537 -24.534  0.00  0.00     0.002 A 
ATOM     10  C   UNL d   1      32.682  17.061 -23.180  0.00  0.00     0.002 A 
ATOM     11  C   UNL d   1      32.660  16.907 -23.996  0.00  0.00     0.000 A 
ENDROOT
BRANCH   3  12
ATOM     12  C   UNL d   1      33.241  20.460 -22.570  0.00  0.00     0.125 C 
BRANCH  12  13
ATOM     13  S   UNL d   1      33.041  20.889 -21.899  0.00  0.00    -0.094 SA
BRANCH  13  14
ATOM     14  C   UNL d   1      33.241  21.692 -21.850  0.00  0.00     0.035 C 
BRANCH  14  15
ATOM     15  C   UNL d   1      32.933  22.157 -21.233  0.00  0.00     0.006 A 
ATOM     16  C   UNL d   1      33.182  22.021 -20.458  0.00  0.00     0.001 A 
ATOM     17  C   UNL d   1      32.877  22.483 -19.844  0.00  0.00     0.000 A 
ATOM     18  C   UNL d   1      32.325  23.075 -20.019  0.00  0.00     0.000 A 
ATOM     19  C   UNL d   1      32.079  23.209 -20.789  0.00  0.00     0.000 A 
ATOM     20  C   UNL d   1      32.381  22.753 -21.398  0.00  0.00     0.001 A 
ENDBRANCH  14  15
ENDBRANCH  13  14
ENDBRANCH  12  13
ENDBRANCH   3  12
TORSDOF 4
ENDMDL
MODEL 4
REMARK VINA RESULT:      -2.5      2.349      5.654
REMARK  4 active torsions:
REMARK  status: ('A' for Active; 'I' for Inactive)
REMARK       I    between atoms: C_3  and  N_1 
REMARK    1  A    between atoms: C_9  and  C_3 
REMARK    2  A    between atoms: S_8  and  C_9 
REMARK    3  A    between atoms: C_12  and  S_8 
REMARK    4  A    between atoms: C_11  and  C_12 
ROOT
ATOM      1  N   UNL d   1      31.046  16.818 -24.053  0.00  0.00    -0.274 N 
ATOM      2  C   UNL d   1      30.294  16.587 -24.299  0.00  0.00     0.067 A 
ATOM      3  C   UNL d   1      31.452  17.508 -24.289  0.00  0.00     0.259 C 
ATOM      4  C   UNL d   1      31.336  16.245 -23.528  0.00  0.00     0.083 A 
ATOM      5  C   UNL d   1      30.112  15.874 -23.931  0.00  0.00     0.018 A 
ATOM      6  O   UNL d   1      31.100  18.043 -24.822  0.00  0.00    -0.267 OA
ATOM      7  C   UNL d   1      30.754  15.668 -23.459  0.00  0.00     0.021 A 
ATOM      8  C   UNL d   1      29.751  16.935 -24.811  0.00  0.00     0.018 A 
ATOM      9  C   UNL d   1      29.396  15.506 -24.068  0.00  0.00     0.002 A 
ATOM     10  C   UNL d   1      29.034  16.578 -24.956  0.00  0.00     0.002 A 
ATOM     11  C   UNL d   1      28.844  15.858 -24.588  0.00  0.00     0.000 A 
ENDROOT
BRANCH   3  12
ATOM     12  C   UNL d   1      32.214  17.669 -23.992  0.00  0.00     0.125 C 
BRANCH  12  13
ATOM     13  S   UNL d   1      32.444  18.444 -23.844  0.00  0.00    -0.094 SA
BRANCH  13  14
ATOM     14  C   UNL d   1      33.124  18.592 -23.393  0.00  0.00     0.035 C 
BRANCH  14  15
ATOM     15  C   UNL d   1      33.163  19.274 -22.918  0.00  0.00     0.006 A 
ATOM     16  C   UNL d   1      33.178  19.197 -22.097  0.00  0.00     0.001 A 
ATOM     17  C   UNL d   1      33.217  19.873 -21.624  0.00  0.00     0.000 A 
ATOM     18  C   UNL d   1      33.241  20.619 -21.985  0.00  0.00     0.000 A 
ATOM     19  C   UNL d   1      33.226  20.693 -22.801  0.00  0.00     0.000 A 
ATOM     20  C   UNL d   1      33.187  20.024 -23.270  0.00  0.00     0.001 A 
ENDBRANCH  14  15
ENDBRANCH  13  14
ENDBRANCH  12  13
ENDBRANCH   3  12
TORSDOF 4
ENDMDL
