MODEL 1
REMARK VINA RESULT:       6.5      0.000      0.000
REMARK  8 active torsions:
REMARK  status: ('A' for Active; 'I' for Inactive)
REMARK    1  A    between atoms: C_11  and  C_1 
REMARK    2  A    between atoms: C_10  and  C_2 
REMARK    3  A    between atoms: C_4  and  C_3 
REMARK    4  A    between atoms: C_14  and  C_9 
REMARK    5  A    between atoms: O_17  and  C_10 
REMARK    6  A    between atoms: O_18  and  C_11 
REMARK    7  A    between atoms: C_24  and  O_17 
REMARK    8  A    between atoms: C_23  and  O_18 
ROOT
ATOM      1  C   UNL d   1     -41.814-122.437 -51.023  0.00  0.00     0.083 A 
ATOM      2  C   UNL d   1     -41.436-121.149 -51.582  0.00  0.00     0.083 A 
ATOM      3  C   UNL d   1     -41.608-121.952 -51.658  0.00  0.00     0.036 A 
ATOM      4  C   UNL d   1     -41.474-120.816 -50.834  0.00  0.00     0.087 A 
ATOM      5  C   UNL d   1     -41.850-122.071 -50.236  0.00  0.00     0.087 A 
ATOM      6  N   UNL d   1     -41.675-121.255 -50.163  0.00  0.00    -0.245 NA
ATOM      7  C   UNL d   1     -41.296-119.969 -50.727  0.00  0.00     0.021 C 
ATOM      8  C   UNL d   1     -42.051-122.510 -49.571  0.00  0.00     0.021 C 
ENDROOT
BRANCH   3   9
ATOM      9  C   UNL d   1     -41.576-122.311 -52.407  0.00  0.00     0.100 A 
ATOM     10  O   UNL d   1     -41.985-122.068 -53.097  0.00  0.00    -0.307 OA
ATOM     11  C   UNL d   1     -41.769-122.604 -53.692  0.00  0.00     0.100 A 
ATOM     12  C   UNL d   1     -41.247-123.149 -53.362  0.00  0.00     0.027 A 
ATOM     13  C   UNL d   1     -41.129-122.974 -52.586  0.00  0.00     0.027 A 
BRANCH  11  14
ATOM     14  C   UNL d   1     -42.124-122.449 -54.427  0.00  0.00     0.023 A 
ATOM     15  C   UNL d   1     -42.939-122.516 -54.484  0.00  0.00     0.002 A 
ATOM     16  C   UNL d   1     -43.314-122.372 -55.187  0.00  0.00     0.000 A 
ATOM     17  C   UNL d   1     -42.833-122.146 -55.874  0.00  0.00     0.000 A 
ATOM     18  C   UNL d   1     -42.019-122.084 -55.795  0.00  0.00     0.000 A 
ATOM     19  C   UNL d   1     -41.682-122.241 -55.057  0.00  0.00     0.002 A 
ENDBRANCH  11  14
ENDBRANCH   3   9
BRANCH   2  20
ATOM     20  C   UNL d   1     -41.229-120.666 -52.223  0.00  0.00     0.302 C 
ATOM     21  O   UNL d   1     -41.123-120.984 -52.960  0.00  0.00    -0.259 OA
BRANCH  20  22
ATOM     22  O   UNL d   1     -41.126-119.854 -52.128  0.00  0.00    -0.271 OA
BRANCH  22  23
ATOM     23  C   UNL d   1     -41.138-119.162 -52.810  0.00  0.00     0.126 C 
ATOM     24  C   UNL d   1     -41.469-118.455 -52.557  0.00  0.00     0.029 C 
ENDBRANCH  22  23
ENDBRANCH  20  22
ENDBRANCH   2  20
BRANCH   1  25
ATOM     25  C   UNL d   1     -41.993-123.271 -51.095  0.00  0.00     0.302 C 
ATOM     26  O   UNL d   1     -41.724-123.696 -51.721  0.00  0.00    -0.259 OA
BRANCH  25  27
ATOM     27  O   UNL d   1     -42.455-123.622 -50.495  0.00  0.00    -0.271 OA
BRANCH  27  28
ATOM     28  C   UNL d   1     -43.239-123.395 -50.335  0.00  0.00     0.126 C 
ATOM     29  C   UNL d   1     -43.397-123.817 -49.600  0.00  0.00     0.029 C 
ENDBRANCH  27  28
ENDBRANCH  25  27
ENDBRANCH   1  25
TORSDOF 8
ENDMDL
MODEL 2
REMARK VINA RESULT:       7.6      2.045      3.725
REMARK  8 active torsions:
REMARK  status: ('A' for Active; 'I' for Inactive)
REMARK    1  A    between atoms: C_11  and  C_1 
REMARK    2  A    between atoms: C_10  and  C_2 
REMARK    3  A    between atoms: C_4  and  C_3 
REMARK    4  A    between atoms: C_14  and  C_9 
REMARK    5  A    between atoms: O_17  and  C_10 
REMARK    6  A    between atoms: O_18  and  C_11 
REMARK    7  A    between atoms: C_24  and  O_17 
REMARK    8  A    between atoms: C_23  and  O_18 
ROOT
ATOM      1  C   UNL d   1     -42.574-123.194 -48.357  0.00  0.00     0.083 A 
ATOM      2  C   UNL d   1     -43.607-123.225 -49.381  0.00  0.00     0.083 A 
ATOM      3  C   UNL d   1     -42.820-123.155 -49.144  0.00  0.00     0.036 A 
ATOM      4  C   UNL d   1     -44.174-123.340 -48.801  0.00  0.00     0.087 A 
ATOM      5  C   UNL d   1     -43.186-123.317 -47.754  0.00  0.00     0.087 A 
ATOM      6  N   UNL d   1     -43.985-123.388 -47.997  0.00  0.00    -0.245 NA
ATOM      7  C   UNL d   1     -45.014-123.418 -49.025  0.00  0.00     0.021 C 
ATOM      8  C   UNL d   1     -42.994-123.364 -46.955  0.00  0.00     0.021 C 
ENDROOT
BRANCH   3   9
ATOM      9  C   UNL d   1     -42.227-123.037 -49.715  0.00  0.00     0.100 A 
ATOM     10  O   UNL d   1     -42.196-122.425 -50.287  0.00  0.00    -0.307 OA
ATOM     11  C   UNL d   1     -41.500-122.551 -50.720  0.00  0.00     0.100 A 
ATOM     12  C   UNL d   1     -41.130-123.220 -50.412  0.00  0.00     0.027 A 
ATOM     13  C   UNL d   1     -41.567-123.515 -49.805  0.00  0.00     0.027 A 
BRANCH  11  14
ATOM     14  C   UNL d   1     -41.373-121.992 -51.320  0.00  0.00     0.023 A 
ATOM     15  C   UNL d   1     -41.279-122.263 -52.087  0.00  0.00     0.002 A 
ATOM     16  C   UNL d   1     -41.154-121.741 -52.695  0.00  0.00     0.000 A 
ATOM     17  C   UNL d   1     -41.123-120.893 -52.511  0.00  0.00     0.000 A 
ATOM     18  C   UNL d   1     -41.220-120.643 -51.736  0.00  0.00     0.000 A 
ATOM     19  C   UNL d   1     -41.345-121.212 -51.151  0.00  0.00     0.002 A 
ENDBRANCH  11  14
ENDBRANCH   3   9
BRANCH   2  20
ATOM     20  C   UNL d   1     -43.849-123.184 -50.172  0.00  0.00     0.302 C 
ATOM     21  O   UNL d   1     -43.674-123.784 -50.687  0.00  0.00    -0.259 OA
BRANCH  20  22
ATOM     22  O   UNL d   1     -44.271-122.535 -50.455  0.00  0.00    -0.271 OA
BRANCH  22  23
ATOM     23  C   UNL d   1     -44.850-122.489 -51.234  0.00  0.00     0.126 C 
ATOM     24  C   UNL d   1     -44.737-121.815 -51.689  0.00  0.00     0.029 C 
ENDBRANCH  22  23
ENDBRANCH  20  22
ENDBRANCH   2  20
BRANCH   1  25
ATOM     25  C   UNL d   1     -41.759-123.123 -48.105  0.00  0.00     0.302 C 
ATOM     26  O   UNL d   1     -41.325-123.775 -47.931  0.00  0.00    -0.259 OA
BRANCH  25  27
ATOM     27  O   UNL d   1     -41.436-122.356 -48.048  0.00  0.00    -0.271 OA
BRANCH  27  28
ATOM     28  C   UNL d   1     -41.483-121.894 -47.358  0.00  0.00     0.126 C 
ATOM     29  C   UNL d   1     -41.124-122.415 -46.773  0.00  0.00     0.029 C 
ENDBRANCH  27  28
ENDBRANCH  25  27
ENDBRANCH   1  25
TORSDOF 8
ENDMDL
