MODEL 1
REMARK VINA RESULT:      -2.7      0.000      0.000
REMARK  5 active torsions:
REMARK  status: ('A' for Active; 'I' for Inactive)
REMARK    1  A    between atoms: C_10  and  C_4 
REMARK    2  A    between atoms: N_12  and  C_5 
REMARK    3  A    between atoms: N_11  and  C_22 
REMARK    4  A    between atoms: C_21  and  N_12 
REMARK    5  A    between atoms: C_22  and  C_21 
ROOT
ATOM      1  N   UNL d   1      33.124  19.510 -22.580  0.00  0.00    -0.195 N 
ATOM      2  C   UNL d   1      33.085  20.331 -22.627  0.00  0.00     0.167 A 
ATOM      3  N   UNL d   1      33.073  19.300 -21.791  0.00  0.00    -0.163 NA
ATOM      4  C   UNL d   1      33.011  20.623 -21.866  0.00  0.00     0.055 A 
ATOM      5  C   UNL d   1      33.201  19.060 -23.267  0.00  0.00     0.167 A 
ATOM      6  C   UNL d   1      33.003  19.996 -21.355  0.00  0.00     0.104 A 
ATOM      7  N   UNL d   1      33.123  20.705 -23.360  0.00  0.00    -0.227 NA
ATOM      8  C   UNL d   1      33.240  19.438 -24.008  0.00  0.00     0.058 A 
ATOM      9  C   UNL d   1      33.201  20.251 -24.054  0.00  0.00     0.086 A 
ATOM     10  C   UNL d   1      32.935  20.053 -20.531  0.00  0.00     0.023 C 
ATOM     11  C   UNL d   1      33.241  20.620 -24.805  0.00  0.00     0.021 C 
ENDROOT
BRANCH   5  12
ATOM     12  N   UNL d   1      33.240  18.238 -23.220  0.00  0.00    -0.224 NA
BRANCH  12  13
ATOM     13  C   UNL d   1      32.779  17.774 -23.719  0.00  0.00     0.120 C 
BRANCH  13  14
ATOM     14  C   UNL d   1      32.809  16.943 -23.664  0.00  0.00     0.101 C 
BRANCH  14  15
ATOM     15  N   UNL d   1      32.144  16.498 -23.848  0.00  0.00    -0.298 N 
ATOM     16  C   UNL d   1      31.710  16.136 -23.242  0.00  0.00     0.107 A 
ATOM     17  C   UNL d   1      31.045  15.690 -23.426  0.00  0.00     0.142 A 
ATOM     18  O   UNL d   1      30.800  15.596 -24.216  0.00  0.00    -0.300 OA
ATOM     19  C   UNL d   1      31.236  15.959 -24.825  0.00  0.00     0.142 A 
ATOM     20  C   UNL d   1      31.906  16.409 -24.642  0.00  0.00     0.107 A 
ENDBRANCH  14  15
ENDBRANCH  13  14
ENDBRANCH  12  13
ENDBRANCH   5  12
BRANCH   4  21
ATOM     21  C   UNL d   1      32.948  21.397 -21.574  0.00  0.00     0.004 A 
ATOM     22  C   UNL d   1      32.588  21.528 -20.838  0.00  0.00     0.001 A 
ATOM     23  C   UNL d   1      32.526  22.297 -20.548  0.00  0.00     0.011 A 
ATOM     24  C   UNL d   1      32.821  22.929 -20.989  0.00  0.00     0.058 A 
ATOM     25  C   UNL d   1      33.178  22.804 -21.719  0.00  0.00     0.011 A 
ATOM     26 CL   UNL d   1      32.755  23.702 -20.691  0.00  0.00    -0.082 Cl
ATOM     27  C   UNL d   1      33.241  22.030 -22.012  0.00  0.00     0.001 A 
ENDBRANCH   4  21
TORSDOF 5
ENDMDL
MODEL 2
REMARK VINA RESULT:      -2.0      1.224      2.289
REMARK  5 active torsions:
REMARK  status: ('A' for Active; 'I' for Inactive)
REMARK    1  A    between atoms: C_10  and  C_4 
REMARK    2  A    between atoms: N_12  and  C_5 
REMARK    3  A    between atoms: N_11  and  C_22 
REMARK    4  A    between atoms: C_21  and  N_12 
REMARK    5  A    between atoms: C_22  and  C_21 
ROOT
ATOM      1  N   UNL d   1      32.940  20.858 -21.906  0.00  0.00    -0.195 N 
ATOM      2  C   UNL d   1      32.902  21.016 -21.098  0.00  0.00     0.167 A 
ATOM      3  N   UNL d   1      32.833  21.565 -22.305  0.00  0.00    -0.163 NA
ATOM      4  C   UNL d   1      32.772  21.819 -21.004  0.00  0.00     0.055 A 
ATOM      5  C   UNL d   1      33.067  20.089 -22.171  0.00  0.00     0.167 A 
ATOM      6  C   UNL d   1      32.730  22.155 -21.739  0.00  0.00     0.104 A 
ATOM      7  N   UNL d   1      32.991  20.404 -20.553  0.00  0.00    -0.227 NA
ATOM      8  C   UNL d   1      33.157  19.470 -21.620  0.00  0.00     0.058 A 
ATOM      9  C   UNL d   1      33.120  19.626 -20.820  0.00  0.00     0.086 A 
ATOM     10  C   UNL d   1      32.603  22.960 -21.889  0.00  0.00     0.023 C 
ATOM     11  C   UNL d   1      33.212  18.996 -20.277  0.00  0.00     0.021 C 
ENDROOT
BRANCH   5  12
ATOM     12  N   UNL d   1      33.105  19.931 -22.979  0.00  0.00    -0.224 NA
BRANCH  12  13
ATOM     13  C   UNL d   1      32.967  19.169 -23.258  0.00  0.00     0.120 C 
BRANCH  13  14
ATOM     14  C   UNL d   1      32.879  19.033 -24.075  0.00  0.00     0.101 C 
BRANCH  14  15
ATOM     15  N   UNL d   1      32.612  18.302 -24.340  0.00  0.00    -0.298 N 
ATOM     16  C   UNL d   1      33.106  17.639 -24.285  0.00  0.00     0.107 A 
ATOM     17  C   UNL d   1      32.840  16.909 -24.550  0.00  0.00     0.142 A 
ATOM     18  O   UNL d   1      32.079  16.824 -24.875  0.00  0.00    -0.300 OA
ATOM     19  C   UNL d   1      31.582  17.491 -24.930  0.00  0.00     0.142 A 
ATOM     20  C   UNL d   1      31.848  18.228 -24.664  0.00  0.00     0.107 A 
ENDBRANCH  14  15
ENDBRANCH  13  14
ENDBRANCH  12  13
ENDBRANCH   5  12
BRANCH   4  21
ATOM     21  C   UNL d   1      32.686  22.290 -20.327  0.00  0.00     0.004 A 
ATOM     22  C   UNL d   1      32.040  22.806 -20.267  0.00  0.00     0.001 A 
ATOM     23  C   UNL d   1      31.955  23.274 -19.594  0.00  0.00     0.011 A 
ATOM     24  C   UNL d   1      32.511  23.227 -18.987  0.00  0.00     0.058 A 
ATOM     25  C   UNL d   1      33.154  22.718 -19.042  0.00  0.00     0.011 A 
ATOM     26 CL   UNL d   1      32.420  23.702 -18.311  0.00  0.00    -0.082 Cl
ATOM     27  C   UNL d   1      33.241  22.246 -19.718  0.00  0.00     0.001 A 
ENDBRANCH   4  21
TORSDOF 5
ENDMDL
