MODEL 1
REMARK VINA RESULT:      -3.3      0.000      0.000
REMARK  3 active torsions:
REMARK  status: ('A' for Active; 'I' for Inactive)
REMARK    1  A    between atoms: C_8  and  N_1 
REMARK    2  A    between atoms: N_7  and  C_2 
REMARK    3  A    between atoms: C_16  and  C_8 
ROOT
ATOM      1  N   UNL d   1      33.228  18.951 -23.389  0.00  0.00    -0.225 N 
ATOM      2  C   UNL d   1      33.204  20.406 -22.619  0.00  0.00     0.158 A 
ATOM      3  C   UNL d   1      33.216  18.984 -22.563  0.00  0.00     0.358 A 
ATOM      4  N   UNL d   1      33.204  19.709 -22.182  0.00  0.00    -0.174 NA
ATOM      5  C   UNL d   1      33.228  19.643 -23.834  0.00  0.00     0.271 A 
ATOM      6  C   UNL d   1      33.216  20.373 -23.446  0.00  0.00     0.099 A 
ATOM      7  O   UNL d   1      33.216  18.282 -22.122  0.00  0.00    -0.244 OA
ATOM      8  O   UNL d   1      33.240  19.611 -24.660  0.00  0.00    -0.266 OA
ENDROOT
BRANCH   1   9
ATOM      9  C   UNL d   1      33.240  18.222 -23.774  0.00  0.00     0.087 C 
BRANCH   9  10
ATOM     10  C   UNL d   1      32.533  17.818 -23.913  0.00  0.00     0.018 A 
ATOM     11  C   UNL d   1      32.355  17.151 -23.457  0.00  0.00     0.004 A 
ATOM     12  C   UNL d   1      31.649  16.746 -23.596  0.00  0.00     0.030 A 
ATOM     13  C   UNL d   1      31.137  17.010 -24.181  0.00  0.00     0.140 A 
ATOM     14  C   UNL d   1      31.316  17.667 -24.627  0.00  0.00     0.030 A 
ATOM     15  F   UNL d   1      30.429  16.599 -24.314  0.00  0.00    -0.204 F 
ATOM     16  C   UNL d   1      32.016  18.074 -24.495  0.00  0.00     0.004 A 
ENDBRANCH   9  10
ENDBRANCH   1   9
BRANCH   2  17
ATOM     17  N   UNL d   1      33.192  21.135 -22.239  0.00  0.00    -0.285 N 
ATOM     18  C   UNL d   1      33.222  21.825 -22.674  0.00  0.00     0.106 A 
ATOM     19  C   UNL d   1      33.210  22.554 -22.294  0.00  0.00     0.118 A 
ATOM     20  C   UNL d   1      33.240  23.251 -22.734  0.00  0.00     0.028 C 
ATOM     21  O   UNL d   1      33.168  22.598 -21.478  0.00  0.00    -0.304 OA
ATOM     22  C   UNL d   1      33.137  21.890 -21.025  0.00  0.00     0.118 A 
ATOM     23  C   UNL d   1      33.149  21.160 -21.409  0.00  0.00     0.106 A 
ATOM     24  C   UNL d   1      33.095  21.930 -20.204  0.00  0.00     0.028 C 
ENDBRANCH   2  17
TORSDOF 3
ENDMDL
MODEL 2
REMARK VINA RESULT:      -3.2      0.226      1.035
REMARK  3 active torsions:
REMARK  status: ('A' for Active; 'I' for Inactive)
REMARK    1  A    between atoms: C_8  and  N_1 
REMARK    2  A    between atoms: N_7  and  C_2 
REMARK    3  A    between atoms: C_16  and  C_8 
ROOT
ATOM      1  N   UNL d   1      33.229  18.851 -23.344  0.00  0.00    -0.225 N 
ATOM      2  C   UNL d   1      33.229  20.256 -22.486  0.00  0.00     0.158 A 
ATOM      3  C   UNL d   1      33.235  18.833 -22.517  0.00  0.00     0.358 A 
ATOM      4  N   UNL d   1      33.235  19.533 -22.093  0.00  0.00    -0.174 NA
ATOM      5  C   UNL d   1      33.223  19.569 -23.745  0.00  0.00     0.271 A 
ATOM      6  C   UNL d   1      33.223  20.274 -23.313  0.00  0.00     0.099 A 
ATOM      7  O   UNL d   1      33.241  18.105 -22.120  0.00  0.00    -0.244 OA
ATOM      8  O   UNL d   1      33.217  19.587 -24.572  0.00  0.00    -0.266 OA
ENDROOT
BRANCH   1   9
ATOM      9  C   UNL d   1      33.229  18.146 -23.773  0.00  0.00     0.087 C 
BRANCH   9  10
ATOM     10  C   UNL d   1      32.513  17.788 -23.977  0.00  0.00     0.018 A 
ATOM     11  C   UNL d   1      32.238  17.152 -23.526  0.00  0.00     0.004 A 
ATOM     12  C   UNL d   1      31.524  16.794 -23.730  0.00  0.00     0.030 A 
ATOM     13  C   UNL d   1      31.098  17.073 -24.375  0.00  0.00     0.140 A 
ATOM     14  C   UNL d   1      31.372  17.699 -24.816  0.00  0.00     0.030 A 
ATOM     15  F   UNL d   1      30.380  16.708 -24.574  0.00  0.00    -0.204 F 
ATOM     16  C   UNL d   1      32.082  18.061 -24.620  0.00  0.00     0.004 A 
ENDBRANCH   9  10
ENDBRANCH   1   9
BRANCH   2  17
ATOM     17  N   UNL d   1      33.229  20.960 -22.062  0.00  0.00    -0.285 N 
ATOM     18  C   UNL d   1      33.234  20.947 -21.246  0.00  0.00     0.106 A 
ATOM     19  C   UNL d   1      33.234  21.652 -20.821  0.00  0.00     0.118 A 
ATOM     20  C   UNL d   1      33.239  21.639 -19.996  0.00  0.00     0.028 C 
ATOM     21  O   UNL d   1      33.228  22.372 -21.209  0.00  0.00    -0.304 OA
ATOM     22  C   UNL d   1      33.223  22.391 -22.050  0.00  0.00     0.118 A 
ATOM     23  C   UNL d   1      33.223  21.682 -22.473  0.00  0.00     0.106 A 
ATOM     24  C   UNL d   1      33.217  23.113 -22.444  0.00  0.00     0.028 C 
ENDBRANCH   2  17
TORSDOF 3
ENDMDL
MODEL 3
REMARK VINA RESULT:      -2.7      1.723      2.682
REMARK  3 active torsions:
REMARK  status: ('A' for Active; 'I' for Inactive)
REMARK    1  A    between atoms: C_8  and  N_1 
REMARK    2  A    between atoms: N_7  and  C_2 
REMARK    3  A    between atoms: C_16  and  C_8 
ROOT
ATOM      1  N   UNL d   1      31.392  17.070 -24.128  0.00  0.00    -0.225 N 
ATOM      2  C   UNL d   1      32.134  18.414 -23.536  0.00  0.00     0.158 A 
ATOM      3  C   UNL d   1      31.923  17.008 -23.497  0.00  0.00     0.358 A 
ATOM      4  N   UNL d   1      32.291  17.678 -23.204  0.00  0.00    -0.174 NA
ATOM      5  C   UNL d   1      31.230  17.802 -24.466  0.00  0.00     0.271 A 
ATOM      6  C   UNL d   1      31.603  18.476 -24.167  0.00  0.00     0.099 A 
ATOM      7  O   UNL d   1      32.081  16.266 -23.162  0.00  0.00    -0.244 OA
ATOM      8  O   UNL d   1      30.699  17.864 -25.097  0.00  0.00    -0.266 OA
ENDROOT
BRANCH   1   9
ATOM      9  C   UNL d   1      31.021  16.395 -24.423  0.00  0.00     0.087 C 
BRANCH   9  10
ATOM     10  C   UNL d   1      30.281  16.171 -24.134  0.00  0.00     0.018 A 
ATOM     11  C   UNL d   1      29.617  16.252 -24.621  0.00  0.00     0.004 A 
ATOM     12  C   UNL d   1      28.877  16.029 -24.332  0.00  0.00     0.030 A 
ATOM     13  C   UNL d   1      28.810  15.732 -23.570  0.00  0.00     0.140 A 
ATOM     14  C   UNL d   1      29.466  15.654 -23.094  0.00  0.00     0.030 A 
ATOM     15  F   UNL d   1      28.063  15.509 -23.286  0.00  0.00    -0.204 F 
ATOM     16  C   UNL d   1      30.205  15.873 -23.374  0.00  0.00     0.004 A 
ENDBRANCH   9  10
ENDBRANCH   1   9
BRANCH   2  17
ATOM     17  N   UNL d   1      32.502  19.089 -23.243  0.00  0.00    -0.285 N 
ATOM     18  C   UNL d   1      32.686  19.705 -23.746  0.00  0.00     0.106 A 
ATOM     19  C   UNL d   1      33.055  20.381 -23.453  0.00  0.00     0.118 A 
ATOM     20  C   UNL d   1      33.241  21.004 -23.961  0.00  0.00     0.028 C 
ATOM     21  O   UNL d   1      33.241  20.443 -22.659  0.00  0.00    -0.304 OA
ATOM     22  C   UNL d   1      33.053  19.810 -22.137  0.00  0.00     0.118 A 
ATOM     23  C   UNL d   1      32.684  19.135 -22.434  0.00  0.00     0.106 A 
ATOM     24  C   UNL d   1      33.239  19.869 -21.338  0.00  0.00     0.028 C 
ENDBRANCH   2  17
TORSDOF 3
ENDMDL
MODEL 4
REMARK VINA RESULT:      -2.5      2.162      4.998
REMARK  3 active torsions:
REMARK  status: ('A' for Active; 'I' for Inactive)
REMARK    1  A    between atoms: C_8  and  N_1 
REMARK    2  A    between atoms: N_7  and  C_2 
REMARK    3  A    between atoms: C_16  and  C_8 
ROOT
ATOM      1  N   UNL d   1      32.566  18.669 -23.810  0.00  0.00    -0.225 N 
ATOM      2  C   UNL d   1      31.220  17.875 -24.326  0.00  0.00     0.158 A 
ATOM      3  C   UNL d   1      32.278  18.793 -24.575  0.00  0.00     0.358 A 
ATOM      4  N   UNL d   1      31.608  18.397 -24.829  0.00  0.00    -0.174 NA
ATOM      5  C   UNL d   1      32.184  18.149 -23.300  0.00  0.00     0.271 A 
ATOM      6  C   UNL d   1      31.508  17.751 -23.561  0.00  0.00     0.099 A 
ATOM      7  O   UNL d   1      32.669  19.319 -25.083  0.00  0.00    -0.244 OA
ATOM      8  O   UNL d   1      32.472  18.024 -22.535  0.00  0.00    -0.266 OA
ENDROOT
BRANCH   1   9
ATOM      9  C   UNL d   1      33.241  19.067 -23.553  0.00  0.00     0.087 C 
BRANCH   9  10
ATOM     10  C   UNL d   1      33.169  19.792 -23.165  0.00  0.00     0.018 A 
ATOM     11  C   UNL d   1      33.203  20.491 -23.606  0.00  0.00     0.004 A 
ATOM     12  C   UNL d   1      33.131  21.215 -23.219  0.00  0.00     0.030 A 
ATOM     13  C   UNL d   1      33.026  21.233 -22.404  0.00  0.00     0.140 A 
ATOM     14  C   UNL d   1      32.993  20.543 -21.973  0.00  0.00     0.030 A 
ATOM     15  F   UNL d   1      32.954  21.965 -22.021  0.00  0.00    -0.204 F 
ATOM     16  C   UNL d   1      33.064  19.819 -22.352  0.00  0.00     0.004 A 
ENDBRANCH   9  10
ENDBRANCH   1   9
BRANCH   2  17
ATOM     17  N   UNL d   1      30.546  17.476 -24.579  0.00  0.00    -0.285 N 
ATOM     18  C   UNL d   1      30.572  16.671 -24.708  0.00  0.00     0.106 A 
ATOM     19  C   UNL d   1      29.898  16.272 -24.961  0.00  0.00     0.118 A 
ATOM     20  C   UNL d   1      29.923  15.458 -25.091  0.00  0.00     0.028 C 
ATOM     21  O   UNL d   1      29.197  16.674 -25.087  0.00  0.00    -0.304 OA
ATOM     22  C   UNL d   1      29.166  17.505 -24.956  0.00  0.00     0.118 A 
ATOM     23  C   UNL d   1      29.843  17.902 -24.702  0.00  0.00     0.106 A 
ATOM     24  C   UNL d   1      28.463  17.914 -25.081  0.00  0.00     0.028 C 
ENDBRANCH   2  17
TORSDOF 3
ENDMDL
MODEL 5
REMARK VINA RESULT:      -1.8      1.980      4.683
REMARK  3 active torsions:
REMARK  status: ('A' for Active; 'I' for Inactive)
REMARK    1  A    between atoms: C_8  and  N_1 
REMARK    2  A    between atoms: N_7  and  C_2 
REMARK    3  A    between atoms: C_16  and  C_8 
ROOT
ATOM      1  N   UNL d   1      33.042  20.715 -22.238  0.00  0.00    -0.225 N 
ATOM      2  C   UNL d   1      32.646  19.378 -23.112  0.00  0.00     0.158 A 
ATOM      3  C   UNL d   1      33.041  20.744 -23.065  0.00  0.00     0.358 A 
ATOM      4  N   UNL d   1      32.844  20.078 -23.497  0.00  0.00    -0.174 NA
ATOM      5  C   UNL d   1      32.846  20.019 -21.845  0.00  0.00     0.271 A 
ATOM      6  C   UNL d   1      32.647  19.349 -22.286  0.00  0.00     0.099 A 
ATOM      7  O   UNL d   1      33.241  21.449 -23.453  0.00  0.00    -0.244 OA
ATOM      8  O   UNL d   1      32.847  19.990 -21.019  0.00  0.00    -0.266 OA
ENDROOT
BRANCH   1   9
ATOM      9  C   UNL d   1      33.241  21.386 -21.801  0.00  0.00     0.087 C 
BRANCH   9  10
ATOM     10  C   UNL d   1      32.674  21.969 -21.661  0.00  0.00     0.018 A 
ATOM     11  C   UNL d   1      32.210  21.923 -20.978  0.00  0.00     0.004 A 
ATOM     12  C   UNL d   1      31.643  22.506 -20.838  0.00  0.00     0.030 A 
ATOM     13  C   UNL d   1      31.548  23.120 -21.375  0.00  0.00     0.140 A 
ATOM     14  C   UNL d   1      32.007  23.161 -22.046  0.00  0.00     0.030 A 
ATOM     15  F   UNL d   1      30.976  23.702 -21.227  0.00  0.00    -0.204 F 
ATOM     16  C   UNL d   1      32.573  22.585 -22.192  0.00  0.00     0.004 A 
ENDBRANCH   9  10
ENDBRANCH   1   9
BRANCH   2  17
ATOM     17  N   UNL d   1      32.448  18.707 -23.545  0.00  0.00    -0.285 N 
ATOM     18  C   UNL d   1      31.822  18.728 -24.069  0.00  0.00     0.106 A 
ATOM     19  C   UNL d   1      31.623  18.057 -24.502  0.00  0.00     0.118 A 
ATOM     20  C   UNL d   1      30.991  18.077 -25.031  0.00  0.00     0.028 C 
ATOM     21  O   UNL d   1      32.048  17.363 -24.413  0.00  0.00    -0.304 OA
ATOM     22  C   UNL d   1      32.694  17.337 -23.874  0.00  0.00     0.118 A 
ATOM     23  C   UNL d   1      32.890  18.011 -23.442  0.00  0.00     0.106 A 
ATOM     24  C   UNL d   1      33.123  16.640 -23.783  0.00  0.00     0.028 C 
ENDBRANCH   2  17
TORSDOF 3
ENDMDL
MODEL 6
REMARK VINA RESULT:      -1.7      2.671      5.404
REMARK  3 active torsions:
REMARK  status: ('A' for Active; 'I' for Inactive)
REMARK    1  A    between atoms: C_8  and  N_1 
REMARK    2  A    between atoms: N_7  and  C_2 
REMARK    3  A    between atoms: C_16  and  C_8 
ROOT
ATOM      1  N   UNL d   1      32.191  22.681 -20.762  0.00  0.00    -0.225 N 
ATOM      2  C   UNL d   1      32.606  21.471 -21.797  0.00  0.00     0.158 A 
ATOM      3  C   UNL d   1      31.828  21.941 -20.702  0.00  0.00     0.358 A 
ATOM      4  N   UNL d   1      32.036  21.341 -21.218  0.00  0.00    -0.174 NA
ATOM      5  C   UNL d   1      32.762  22.821 -21.337  0.00  0.00     0.271 A 
ATOM      6  C   UNL d   1      32.969  22.212 -21.856  0.00  0.00     0.099 A 
ATOM      7  O   UNL d   1      31.253  21.808 -20.119  0.00  0.00    -0.244 OA
ATOM      8  O   UNL d   1      33.125  23.562 -21.397  0.00  0.00    -0.266 OA
ENDROOT
BRANCH   1   9
ATOM      9  C   UNL d   1      31.981  23.287 -20.242  0.00  0.00     0.087 C 
BRANCH   9  10
ATOM     10  C   UNL d   1      32.261  23.279 -19.465  0.00  0.00     0.018 A 
ATOM     11  C   UNL d   1      31.817  23.649 -18.874  0.00  0.00     0.004 A 
ATOM     12  C   UNL d   1      32.097  23.641 -18.098  0.00  0.00     0.030 A 
ATOM     13  C   UNL d   1      32.807  23.267 -17.924  0.00  0.00     0.140 A 
ATOM     14  C   UNL d   1      33.240  22.904 -18.509  0.00  0.00     0.030 A 
ATOM     15  F   UNL d   1      33.081  23.263 -17.141  0.00  0.00    -0.204 F 
ATOM     16  C   UNL d   1      32.969  22.908 -19.284  0.00  0.00     0.004 A 
ENDBRANCH   9  10
ENDBRANCH   1   9
BRANCH   2  17
ATOM     17  N   UNL d   1      32.817  20.869 -22.317  0.00  0.00    -0.285 N 
ATOM     18  C   UNL d   1      32.922  21.031 -23.109  0.00  0.00     0.106 A 
ATOM     19  C   UNL d   1      33.133  20.429 -23.629  0.00  0.00     0.118 A 
ATOM     20  C   UNL d   1      33.238  20.592 -24.431  0.00  0.00     0.028 C 
ATOM     21  O   UNL d   1      33.240  19.664 -23.360  0.00  0.00    -0.304 OA
ATOM     22  C   UNL d   1      33.133  19.493 -22.543  0.00  0.00     0.118 A 
ATOM     23  C   UNL d   1      32.922  20.098 -22.024  0.00  0.00     0.106 A 
ATOM     24  C   UNL d   1      33.241  18.724 -22.268  0.00  0.00     0.028 C 
ENDBRANCH   2  17
TORSDOF 3
ENDMDL
MODEL 7
REMARK VINA RESULT:      -0.6      0.426      1.054
REMARK  3 active torsions:
REMARK  status: ('A' for Active; 'I' for Inactive)
REMARK    1  A    between atoms: C_8  and  N_1 
REMARK    2  A    between atoms: N_7  and  C_2 
REMARK    3  A    between atoms: C_16  and  C_8 
ROOT
ATOM      1  N   UNL d   1      33.241  19.100 -23.435  0.00  0.00    -0.225 N 
ATOM      2  C   UNL d   1      33.240  20.498 -22.566  0.00  0.00     0.158 A 
ATOM      3  C   UNL d   1      33.241  19.831 -23.823  0.00  0.00     0.358 A 
ATOM      4  N   UNL d   1      33.240  20.524 -23.388  0.00  0.00    -0.174 NA
ATOM      5  C   UNL d   1      33.241  19.064 -22.613  0.00  0.00     0.271 A 
ATOM      6  C   UNL d   1      33.241  19.767 -22.178  0.00  0.00     0.099 A 
ATOM      7  O   UNL d   1      33.241  19.858 -24.651  0.00  0.00    -0.244 OA
ATOM      8  O   UNL d   1      33.241  18.334 -22.225  0.00  0.00    -0.266 OA
ENDROOT
BRANCH   1   9
ATOM      9  C   UNL d   1      33.241  18.401 -23.872  0.00  0.00     0.087 C 
BRANCH   9  10
ATOM     10  C   UNL d   1      32.526  18.058 -24.101  0.00  0.00     0.018 A 
ATOM     11  C   UNL d   1      32.201  17.456 -23.635  0.00  0.00     0.004 A 
ATOM     12  C   UNL d   1      31.486  17.113 -23.864  0.00  0.00     0.030 A 
ATOM     13  C   UNL d   1      31.109  17.372 -24.546  0.00  0.00     0.140 A 
ATOM     14  C   UNL d   1      31.433  17.964 -25.001  0.00  0.00     0.030 A 
ATOM     15  F   UNL d   1      30.391  17.022 -24.770  0.00  0.00    -0.204 F 
ATOM     16  C   UNL d   1      32.143  18.310 -24.781  0.00  0.00     0.004 A 
ENDBRANCH   9  10
ENDBRANCH   1   9
BRANCH   2  17
ATOM     17  N   UNL d   1      33.240  21.194 -22.127  0.00  0.00    -0.285 N 
ATOM     18  C   UNL d   1      33.241  21.917 -22.505  0.00  0.00     0.106 A 
ATOM     19  C   UNL d   1      33.240  22.613 -22.067  0.00  0.00     0.118 A 
ATOM     20  C   UNL d   1      33.241  23.344 -22.449  0.00  0.00     0.028 C 
ATOM     21  O   UNL d   1      33.240  22.590 -21.249  0.00  0.00    -0.304 OA
ATOM     22  C   UNL d   1      33.239  21.847 -20.854  0.00  0.00     0.118 A 
ATOM     23  C   UNL d   1      33.239  21.151 -21.297  0.00  0.00     0.106 A 
ATOM     24  C   UNL d   1      33.239  21.820 -20.031  0.00  0.00     0.028 C 
ENDBRANCH   2  17
TORSDOF 3
ENDMDL
