MODEL 1
REMARK VINA RESULT:      36.8      0.000      0.000
REMARK  2 active torsions:
REMARK  status: ('A' for Active; 'I' for Inactive)
REMARK       I    between atoms: N_2  and  C_1 
REMARK    1  A    between atoms: C_3  and  C_1 
REMARK    2  A    between atoms: C_4  and  N_2 
ROOT
ATOM      1  C   UNL d   1     -54.866-102.164 -38.705  0.00  0.00     0.059 A 
ATOM      2  C   UNL d   1     -54.799-101.454 -38.292  0.00  0.00     0.025 A 
ATOM      3  C   UNL d   1     -54.832-101.453 -37.460  0.00  0.00     0.099 A 
ATOM      4  N   UNL d   1     -54.765-100.741 -37.045  0.00  0.00    -0.241 NA
ATOM      5  N   UNL d   1     -54.966-102.173 -36.230  0.00  0.00    -0.241 NA
ATOM      6  C   UNL d   1     -54.932-102.162 -37.050  0.00  0.00     0.099 A 
ATOM      7  C   UNL d   1     -54.966-102.876 -38.293  0.00  0.00     0.006 A 
ATOM      8  C   UNL d   1     -54.999-102.876 -37.470  0.00  0.00     0.021 A 
ATOM      9  C   UNL d   1     -54.799-100.748 -36.218  0.00  0.00     0.120 A 
ATOM     10  C   UNL d   1     -54.899-101.459 -35.812  0.00  0.00     0.120 A 
ENDROOT
BRANCH   1  11
ATOM     11  C   UNL d   1     -54.833-102.163 -39.527  0.00  0.00     0.281 C 
ATOM     12  N   UNL d   1     -54.917-101.457 -39.945  0.00  0.00    -0.189 NA
ATOM     13  O   UNL d   1     -54.717-102.871 -39.933  0.00  0.00    -0.265 OA
BRANCH  12  14
ATOM     14  C   UNL d   1     -54.884-101.458 -40.768  0.00  0.00     0.166 A 
ATOM     15  N   UNL d   1     -54.746-100.752 -41.171  0.00  0.00    -0.225 NA
ATOM     16  C   UNL d   1     -54.713-100.752 -41.998  0.00  0.00     0.107 A 
ATOM     17  C   UNL d   1     -54.818-101.456 -42.414  0.00  0.00     0.054 A 
ATOM     18  C   UNL d   1     -54.957-102.161 -42.005  0.00  0.00     0.011 A 
ATOM     19 BR   UNL d   1     -54.785-101.458 -43.238  0.00  0.00    -0.048 Br
ATOM     20  C   UNL d   1     -54.989-102.159 -41.182  0.00  0.00     0.039 A 
ENDBRANCH  12  14
ENDBRANCH   1  11
TORSDOF 2
ENDMDL
MODEL 2
REMARK VINA RESULT:      37.2      1.929      4.645
REMARK  2 active torsions:
REMARK  status: ('A' for Active; 'I' for Inactive)
REMARK       I    between atoms: N_2  and  C_1 
REMARK    1  A    between atoms: C_3  and  C_1 
REMARK    2  A    between atoms: C_4  and  N_2 
ROOT
ATOM      1  C   UNL d   1     -54.751-101.693 -40.022  0.00  0.00     0.059 A 
ATOM      2  C   UNL d   1     -54.781-102.225 -40.650  0.00  0.00     0.025 A 
ATOM      3  C   UNL d   1     -54.777-101.944 -41.434  0.00  0.00     0.099 A 
ATOM      4  N   UNL d   1     -54.808-102.477 -42.065  0.00  0.00    -0.241 NA
ATOM      5  N   UNL d   1     -54.738-100.844 -42.349  0.00  0.00    -0.241 NA
ATOM      6  C   UNL d   1     -54.743-101.133 -41.581  0.00  0.00     0.099 A 
ATOM      7  C   UNL d   1     -54.716-100.878 -40.170  0.00  0.00     0.006 A 
ATOM      8  C   UNL d   1     -54.712-100.598 -40.945  0.00  0.00     0.021 A 
ATOM      9  C   UNL d   1     -54.803-102.190 -42.841  0.00  0.00     0.120 A 
ATOM     10  C   UNL d   1     -54.769-101.378 -42.984  0.00  0.00     0.120 A 
ENDROOT
BRANCH   1  11
ATOM     11  C   UNL d   1     -54.755-101.972 -39.248  0.00  0.00     0.281 C 
ATOM     12  N   UNL d   1     -54.791-101.442 -38.617  0.00  0.00    -0.189 NA
ATOM     13  O   UNL d   1     -54.723-102.783 -39.105  0.00  0.00    -0.265 OA
BRANCH  12  14
ATOM     14  C   UNL d   1     -54.795-101.723 -37.843  0.00  0.00     0.166 A 
ATOM     15  N   UNL d   1     -54.729-101.191 -37.216  0.00  0.00    -0.225 NA
ATOM     16  C   UNL d   1     -54.733-101.472 -36.437  0.00  0.00     0.107 A 
ATOM     17  C   UNL d   1     -54.803-102.281 -36.292  0.00  0.00     0.054 A 
ATOM     18  C   UNL d   1     -54.869-102.810 -36.925  0.00  0.00     0.011 A 
ATOM     19 BR   UNL d   1     -54.807-102.563 -35.518  0.00  0.00    -0.048 Br
ATOM     20  C   UNL d   1     -54.865-102.528 -37.698  0.00  0.00     0.039 A 
ENDBRANCH  12  14
ENDBRANCH   1  11
TORSDOF 2
ENDMDL
