MODEL 1
REMARK VINA RESULT:      -6.8      0.000      0.000
REMARK  5 active torsions:
REMARK  status: ('A' for Active; 'I' for Inactive)
REMARK    1  A    between atoms: N_2  and  S_1 
REMARK    2  A    between atoms: C_4  and  S_1 
REMARK    3  A    between atoms: C_5  and  N_3 
REMARK    4  A    between atoms: C_11  and  C_4 
REMARK    5  A    between atoms: C_15  and  C_11 
ROOT
ATOM      1  N   UNL d   1     -47.404  12.888  23.330  0.00  0.00    -0.226 N 
ATOM      2  N   UNL d   1     -48.760  13.759  23.027  0.00  0.00    -0.301 N 
ATOM      3  C   UNL d   1     -48.132  12.598  23.564  0.00  0.00     0.111 A 
ATOM      4  C   UNL d   1     -47.352  13.614  22.944  0.00  0.00     0.111 A 
ATOM      5  C   UNL d   1     -48.028  14.042  22.796  0.00  0.00     0.100 A 
ATOM      6  C   UNL d   1     -48.812  13.033  23.413  0.00  0.00     0.100 A 
ENDROOT
BRANCH   1   7
ATOM      7  S   UNL d   1     -46.712  12.440  23.487  0.00  0.00     0.272 S 
ATOM      8  O   UNL d   1     -46.281  13.147  23.596  0.00  0.00    -0.200 OA
ATOM      9  O   UNL d   1     -47.142  11.741  23.377  0.00  0.00    -0.200 OA
BRANCH   7  10
ATOM     10  C   UNL d   1     -46.028  12.001  23.641  0.00  0.00     0.116 C 
BRANCH  10  11
ATOM     11  C   UNL d   1     -45.772  11.427  23.090  0.00  0.00     0.014 C 
BRANCH  11  12
ATOM     12  C   UNL d   1     -45.052  11.033  23.207  0.00  0.00     0.001 A 
ATOM     13  C   UNL d   1     -44.339  11.387  22.949  0.00  0.00     0.000 A 
ATOM     14  C   UNL d   1     -43.613  10.993  23.066  0.00  0.00     0.000 A 
ATOM     15  C   UNL d   1     -43.598  10.253  23.437  0.00  0.00     0.000 A 
ATOM     16  C   UNL d   1     -44.310   9.892  23.698  0.00  0.00     0.000 A 
ATOM     17  C   UNL d   1     -45.038  10.285  23.582  0.00  0.00     0.000 A 
ENDBRANCH  11  12
ENDBRANCH  10  11
ENDBRANCH   7  10
ENDBRANCH   1   7
BRANCH   2  18
ATOM     18  C   UNL d   1     -49.433  14.194  22.874  0.00  0.00     0.065 A 
ATOM     19  C   UNL d   1     -49.900  14.004  22.233  0.00  0.00     0.029 A 
ATOM     20  C   UNL d   1     -50.571  14.436  22.079  0.00  0.00     0.059 A 
ATOM     21 CL   UNL d   1     -51.048  14.246  21.427  0.00  0.00    -0.082 Cl
ATOM     22  C   UNL d   1     -50.780  15.065  22.569  0.00  0.00     0.011 A 
ATOM     23  C   UNL d   1     -50.308  15.250  23.210  0.00  0.00     0.002 A 
ATOM     24  C   UNL d   1     -49.636  14.815  23.363  0.00  0.00     0.018 A 
ENDBRANCH   2  18
TORSDOF 5
ENDMDL
MODEL 2
REMARK VINA RESULT:      -6.0      1.360      1.872
REMARK  5 active torsions:
REMARK  status: ('A' for Active; 'I' for Inactive)
REMARK    1  A    between atoms: N_2  and  S_1 
REMARK    2  A    between atoms: C_4  and  S_1 
REMARK    3  A    between atoms: C_5  and  N_3 
REMARK    4  A    between atoms: C_11  and  C_4 
REMARK    5  A    between atoms: C_15  and  C_11 
ROOT
ATOM      1  N   UNL d   1     -46.989  13.712  22.710  0.00  0.00    -0.226 N 
ATOM      2  N   UNL d   1     -48.521  14.287  22.824  0.00  0.00    -0.301 N 
ATOM      3  C   UNL d   1     -47.135  14.506  22.577  0.00  0.00     0.111 A 
ATOM      4  C   UNL d   1     -47.609  13.204  22.900  0.00  0.00     0.111 A 
ATOM      5  C   UNL d   1     -48.368  13.494  22.955  0.00  0.00     0.100 A 
ATOM      6  C   UNL d   1     -47.901  14.795  22.634  0.00  0.00     0.100 A 
ENDROOT
BRANCH   1   7
ATOM      7  S   UNL d   1     -46.204  13.421  22.651  0.00  0.00     0.272 S 
ATOM      8  O   UNL d   1     -46.435  12.935  22.011  0.00  0.00    -0.200 OA
ATOM      9  O   UNL d   1     -45.981  13.904  23.285  0.00  0.00    -0.200 OA
BRANCH   7  10
ATOM     10  C   UNL d   1     -45.432  13.133  22.591  0.00  0.00     0.116 C 
BRANCH  10  11
ATOM     11  C   UNL d   1     -45.128  12.917  21.842  0.00  0.00     0.014 C 
BRANCH  11  12
ATOM     12  C   UNL d   1     -44.316  12.780  21.749  0.00  0.00     0.001 A 
ATOM     13  C   UNL d   1     -43.948  12.165  22.180  0.00  0.00     0.000 A 
ATOM     14  C   UNL d   1     -43.130  12.024  22.089  0.00  0.00     0.000 A 
ATOM     15  C   UNL d   1     -42.684  12.494  21.573  0.00  0.00     0.000 A 
ATOM     16  C   UNL d   1     -43.048  13.114  21.138  0.00  0.00     0.000 A 
ATOM     17  C   UNL d   1     -43.866  13.255  21.228  0.00  0.00     0.000 A 
ENDBRANCH  11  12
ENDBRANCH  10  11
ENDBRANCH   7  10
ENDBRANCH   1   7
BRANCH   2  18
ATOM     18  C   UNL d   1     -49.284  14.570  22.881  0.00  0.00     0.065 A 
ATOM     19  C   UNL d   1     -49.788  14.504  22.243  0.00  0.00     0.029 A 
ATOM     20  C   UNL d   1     -50.549  14.785  22.297  0.00  0.00     0.059 A 
ATOM     21 CL   UNL d   1     -51.064  14.720  21.650  0.00  0.00    -0.082 Cl
ATOM     22  C   UNL d   1     -50.811  15.137  22.995  0.00  0.00     0.011 A 
ATOM     23  C   UNL d   1     -50.301  15.200  23.630  0.00  0.00     0.002 A 
ATOM     24  C   UNL d   1     -49.539  14.918  23.574  0.00  0.00     0.018 A 
ENDBRANCH   2  18
TORSDOF 5
ENDMDL
MODEL 3
REMARK VINA RESULT:      -5.8      1.904      5.632
REMARK  5 active torsions:
REMARK  status: ('A' for Active; 'I' for Inactive)
REMARK    1  A    between atoms: N_2  and  S_1 
REMARK    2  A    between atoms: C_4  and  S_1 
REMARK    3  A    between atoms: C_5  and  N_3 
REMARK    4  A    between atoms: C_11  and  C_4 
REMARK    5  A    between atoms: C_15  and  C_11 
ROOT
ATOM      1  N   UNL d   1     -47.340  12.475  23.322  0.00  0.00    -0.226 N 
ATOM      2  N   UNL d   1     -45.945  11.612  23.327  0.00  0.00    -0.301 N 
ATOM      3  C   UNL d   1     -47.328  11.727  23.653  0.00  0.00     0.111 A 
ATOM      4  C   UNL d   1     -46.655  12.793  22.992  0.00  0.00     0.111 A 
ATOM      5  C   UNL d   1     -45.965  12.360  22.998  0.00  0.00     0.100 A 
ATOM      6  C   UNL d   1     -46.630  11.294  23.656  0.00  0.00     0.100 A 
ENDROOT
BRANCH   1   7
ATOM      7  S   UNL d   1     -48.055  12.914  23.320  0.00  0.00     0.272 S 
ATOM      8  O   UNL d   1     -48.461  12.250  23.624  0.00  0.00    -0.200 OA
ATOM      9  O   UNL d   1     -47.648  13.569  23.018  0.00  0.00    -0.200 OA
BRANCH   7  10
ATOM     10  C   UNL d   1     -48.761  13.345  23.319  0.00  0.00     0.116 C 
BRANCH  10  11
ATOM     11  C   UNL d   1     -48.805  14.066  22.898  0.00  0.00     0.014 C 
BRANCH  11  12
ATOM     12  C   UNL d   1     -49.523  14.477  22.857  0.00  0.00     0.001 A 
ATOM     13  C   UNL d   1     -50.105  14.239  22.304  0.00  0.00     0.000 A 
ATOM     14  C   UNL d   1     -50.830  14.651  22.259  0.00  0.00     0.000 A 
ATOM     15  C   UNL d   1     -50.972  15.294  22.760  0.00  0.00     0.000 A 
ATOM     16  C   UNL d   1     -50.392  15.538  23.317  0.00  0.00     0.000 A 
ATOM     17  C   UNL d   1     -49.666  15.127  23.363  0.00  0.00     0.000 A 
ENDBRANCH  11  12
ENDBRANCH  10  11
ENDBRANCH   7  10
ENDBRANCH   1   7
BRANCH   2  18
ATOM     18  C   UNL d   1     -45.250  11.185  23.329  0.00  0.00     0.065 A 
ATOM     19  C   UNL d   1     -44.588  11.490  22.963  0.00  0.00     0.029 A 
ATOM     20  C   UNL d   1     -43.894  11.067  22.963  0.00  0.00     0.059 A 
ATOM     21 CL   UNL d   1     -43.219  11.374  22.592  0.00  0.00    -0.082 Cl
ATOM     22  C   UNL d   1     -43.859  10.331  23.332  0.00  0.00     0.011 A 
ATOM     23  C   UNL d   1     -44.526  10.030  23.697  0.00  0.00     0.002 A 
ATOM     24  C   UNL d   1     -45.220  10.456  23.695  0.00  0.00     0.018 A 
ENDBRANCH   2  18
TORSDOF 5
ENDMDL
MODEL 4
REMARK VINA RESULT:      -4.4      9.440     10.523
REMARK  5 active torsions:
REMARK  status: ('A' for Active; 'I' for Inactive)
REMARK    1  A    between atoms: N_2  and  S_1 
REMARK    2  A    between atoms: C_4  and  S_1 
REMARK    3  A    between atoms: C_5  and  N_3 
REMARK    4  A    between atoms: C_11  and  C_4 
REMARK    5  A    between atoms: C_15  and  C_11 
ROOT
ATOM      1  N   UNL d   1     -38.794  14.508  19.109  0.00  0.00    -0.226 N 
ATOM      2  N   UNL d   1     -38.574  14.737  17.500  0.00  0.00    -0.301 N 
ATOM      3  C   UNL d   1     -38.052  14.701  18.825  0.00  0.00     0.111 A 
ATOM      4  C   UNL d   1     -39.428  14.429  18.589  0.00  0.00     0.111 A 
ATOM      5  C   UNL d   1     -39.313  14.544  17.791  0.00  0.00     0.100 A 
ATOM      6  C   UNL d   1     -37.940  14.816  18.020  0.00  0.00     0.100 A 
ENDROOT
BRANCH   1   7
ATOM      7  S   UNL d   1     -38.904  14.392  19.933  0.00  0.00     0.272 S 
ATOM      8  O   UNL d   1     -38.616  13.611  19.858  0.00  0.00    -0.200 OA
ATOM      9  O   UNL d   1     -39.189  15.166  20.001  0.00  0.00    -0.200 OA
BRANCH   7  10
ATOM     10  C   UNL d   1     -39.012  14.274  20.744  0.00  0.00     0.116 C 
BRANCH  10  11
ATOM     11  C   UNL d   1     -38.345  14.205  21.243  0.00  0.00     0.014 C 
BRANCH  11  12
ATOM     12  C   UNL d   1     -38.448  14.078  22.056  0.00  0.00     0.001 A 
ATOM     13  C   UNL d   1     -38.690  14.711  22.547  0.00  0.00     0.000 A 
ATOM     14  C   UNL d   1     -38.795  14.587  23.366  0.00  0.00     0.000 A 
ATOM     15  C   UNL d   1     -38.661  13.838  23.691  0.00  0.00     0.000 A 
ATOM     16  C   UNL d   1     -38.418  13.197  23.204  0.00  0.00     0.000 A 
ATOM     17  C   UNL d   1     -38.312  13.321  22.384  0.00  0.00     0.000 A 
ENDBRANCH  11  12
ENDBRANCH  10  11
ENDBRANCH   7  10
ENDBRANCH   1   7
BRANCH   2  18
ATOM     18  C   UNL d   1     -38.467  14.850  16.699  0.00  0.00     0.065 A 
ATOM     19  C   UNL d   1     -38.259  14.218  16.226  0.00  0.00     0.029 A 
ATOM     20  C   UNL d   1     -38.152  14.328  15.428  0.00  0.00     0.059 A 
ATOM     21 CL   UNL d   1     -37.941  13.688  14.944  0.00  0.00    -0.082 Cl
ATOM     22  C   UNL d   1     -38.252  15.076  15.096  0.00  0.00     0.011 A 
ATOM     23  C   UNL d   1     -38.459  15.705  15.575  0.00  0.00     0.002 A 
ATOM     24  C   UNL d   1     -38.567  15.592  16.375  0.00  0.00     0.018 A 
ENDBRANCH   2  18
TORSDOF 5
ENDMDL
