MODEL 1
REMARK VINA RESULT:      -7.9      0.000      0.000
REMARK  6 active torsions:
REMARK  status: ('A' for Active; 'I' for Inactive)
REMARK    1  A    between atoms: C_3  and  N_1 
REMARK       I    between atoms: C_4  and  N_1 
REMARK    2  A    between atoms: C_6  and  N_1 
REMARK    3  A    between atoms: N_2  and  C_3 
REMARK    4  A    between atoms: C_7  and  C_4 
REMARK    5  A    between atoms: O_14  and  C_16 
REMARK    6  A    between atoms: C_24  and  O_14 
ROOT
ATOM      1  N   UNL d   1      52.600  33.527  53.612  0.00  0.00    -0.258 N 
ATOM      2  C   UNL d   1      52.271  34.225  53.308  0.00  0.00     0.266 C 
ATOM      3  O   UNL d   1      52.614  34.912  53.401  0.00  0.00    -0.267 OA
ENDROOT
BRANCH   1   4
ATOM      4  C   UNL d   1      52.219  32.801  53.503  0.00  0.00     0.171 C 
BRANCH   4   5
ATOM      5  N   UNL d   1      52.506  32.086  53.205  0.00  0.00    -0.257 N 
ATOM      6  C   UNL d   1      52.183  31.336  53.315  0.00  0.00     0.266 A 
ATOM      7  O   UNL d   1      51.498  31.161  53.753  0.00  0.00    -0.267 OA
ATOM      8  C   UNL d   1      52.658  30.781  52.912  0.00  0.00     0.063 A 
ATOM      9  C   UNL d   1      53.278  31.193  52.552  0.00  0.00     0.024 A 
ATOM     10  C   UNL d   1      53.193  31.997  52.727  0.00  0.00     0.085 A 
ENDBRANCH   4   5
ENDBRANCH   1   4
BRANCH   1  11
ATOM     11  C   UNL d   1      53.316  33.554  54.030  0.00  0.00     0.068 A 
ATOM     12  C   UNL d   1      54.032  33.659  53.621  0.00  0.00     0.018 A 
ATOM     13  C   UNL d   1      54.730  33.684  54.048  0.00  0.00     0.002 A 
ATOM     14  C   UNL d   1      54.732  33.607  54.859  0.00  0.00     0.000 A 
ATOM     15  C   UNL d   1      54.026  33.504  55.262  0.00  0.00     0.002 A 
ATOM     16  C   UNL d   1      55.441  33.633  55.280  0.00  0.00     0.000 C 
ATOM     17  C   UNL d   1      53.317  33.477  54.855  0.00  0.00     0.018 A 
ENDBRANCH   1  11
BRANCH   2  18
ATOM     18  C   UNL d   1      51.560  34.184  52.896  0.00  0.00     0.057 A 
ATOM     19  C   UNL d   1      50.847  34.138  53.304  0.00  0.00     0.007 A 
ATOM     20  C   UNL d   1      50.137  34.097  52.901  0.00  0.00     0.025 A 
ATOM     21  C   UNL d   1      50.131  34.102  52.075  0.00  0.00     0.100 A 
ATOM     22  C   UNL d   1      50.858  34.149  51.659  0.00  0.00     0.025 A 
ATOM     23  C   UNL d   1      51.560  34.189  52.071  0.00  0.00     0.007 A 
BRANCH  21  24
ATOM     24  O   UNL d   1      49.432  34.061  51.676  0.00  0.00    -0.307 OA
BRANCH  24  25
ATOM     25  C   UNL d   1      49.025  34.751  51.469  0.00  0.00     0.100 C 
ATOM     26  C   UNL d   1      48.917  34.935  50.674  0.00  0.00     0.027 C 
ATOM     27  C   UNL d   1      48.730  35.253  52.052  0.00  0.00     0.027 C 
ENDBRANCH  24  25
ENDBRANCH  21  24
ENDBRANCH   2  18
TORSDOF 6
ENDMDL
MODEL 2
REMARK VINA RESULT:      -7.4      1.613      3.882
REMARK  6 active torsions:
REMARK  status: ('A' for Active; 'I' for Inactive)
REMARK    1  A    between atoms: C_3  and  N_1 
REMARK       I    between atoms: C_4  and  N_1 
REMARK    2  A    between atoms: C_6  and  N_1 
REMARK    3  A    between atoms: N_2  and  C_3 
REMARK    4  A    between atoms: C_7  and  C_4 
REMARK    5  A    between atoms: O_14  and  C_16 
REMARK    6  A    between atoms: C_24  and  O_14 
ROOT
ATOM      1  N   UNL d   1      53.165  33.502  54.042  0.00  0.00    -0.258 N 
ATOM      2  C   UNL d   1      53.839  33.024  54.114  0.00  0.00     0.266 C 
ATOM      3  O   UNL d   1      54.518  33.308  54.353  0.00  0.00    -0.267 OA
ENDROOT
BRANCH   1   4
ATOM      4  C   UNL d   1      52.448  33.182  53.785  0.00  0.00     0.171 C 
BRANCH   4   5
ATOM      5  N   UNL d   1      51.924  33.440  53.201  0.00  0.00    -0.257 N 
ATOM      6  C   UNL d   1      51.104  33.360  53.196  0.00  0.00     0.266 A 
ATOM      7  O   UNL d   1      50.648  32.998  53.790  0.00  0.00    -0.267 OA
ATOM      8  C   UNL d   1      50.808  33.703  52.496  0.00  0.00     0.063 A 
ATOM      9  C   UNL d   1      51.450  33.997  52.067  0.00  0.00     0.024 A 
ATOM     10  C   UNL d   1      52.142  33.840  52.492  0.00  0.00     0.085 A 
ENDBRANCH   4   5
ENDBRANCH   1   4
BRANCH   1  11
ATOM     11  C   UNL d   1      53.209  34.309  54.227  0.00  0.00     0.068 A 
ATOM     12  C   UNL d   1      53.563  34.840  53.694  0.00  0.00     0.018 A 
ATOM     13  C   UNL d   1      53.597  35.634  53.892  0.00  0.00     0.002 A 
ATOM     14  C   UNL d   1      53.293  35.907  54.596  0.00  0.00     0.000 A 
ATOM     15  C   UNL d   1      52.944  35.384  55.121  0.00  0.00     0.002 A 
ATOM     16  C   UNL d   1      53.333  36.709  54.787  0.00  0.00     0.000 C 
ATOM     17  C   UNL d   1      52.898  34.587  54.944  0.00  0.00     0.018 A 
ENDBRANCH   1  11
BRANCH   2  18
ATOM     18  C   UNL d   1      53.782  32.225  53.927  0.00  0.00     0.057 A 
ATOM     19  C   UNL d   1      54.008  31.957  53.182  0.00  0.00     0.007 A 
ATOM     20  C   UNL d   1      53.954  31.164  52.989  0.00  0.00     0.025 A 
ATOM     21  C   UNL d   1      53.671  30.623  53.546  0.00  0.00     0.100 A 
ATOM     22  C   UNL d   1      53.441  30.896  54.306  0.00  0.00     0.025 A 
ATOM     23  C   UNL d   1      53.499  31.689  54.487  0.00  0.00     0.007 A 
BRANCH  21  24
ATOM     24  O   UNL d   1      53.617  29.841  53.358  0.00  0.00    -0.307 OA
BRANCH  24  25
ATOM     25  C   UNL d   1      53.053  29.359  53.722  0.00  0.00     0.100 C 
ATOM     26  C   UNL d   1      52.295  29.312  53.405  0.00  0.00     0.027 C 
ATOM     27  C   UNL d   1      53.245  28.927  54.398  0.00  0.00     0.027 C 
ENDBRANCH  24  25
ENDBRANCH  21  24
ENDBRANCH   2  18
TORSDOF 6
ENDMDL
MODEL 3
REMARK VINA RESULT:      -7.4      1.296      2.777
REMARK  6 active torsions:
REMARK  status: ('A' for Active; 'I' for Inactive)
REMARK    1  A    between atoms: C_3  and  N_1 
REMARK       I    between atoms: C_4  and  N_1 
REMARK    2  A    between atoms: C_6  and  N_1 
REMARK    3  A    between atoms: N_2  and  C_3 
REMARK    4  A    between atoms: C_7  and  C_4 
REMARK    5  A    between atoms: O_14  and  C_16 
REMARK    6  A    between atoms: C_24  and  O_14 
ROOT
ATOM      1  N   UNL d   1      52.725  31.674  53.457  0.00  0.00    -0.258 N 
ATOM      2  C   UNL d   1      51.916  31.756  53.295  0.00  0.00     0.266 C 
ATOM      3  O   UNL d   1      51.434  31.151  53.308  0.00  0.00    -0.267 OA
ENDROOT
BRANCH   1   4
ATOM      4  C   UNL d   1      53.226  32.332  53.439  0.00  0.00     0.171 C 
BRANCH   4   5
ATOM      5  N   UNL d   1      53.738  32.630  54.014  0.00  0.00    -0.257 N 
ATOM      6  C   UNL d   1      54.482  32.963  53.893  0.00  0.00     0.266 A 
ATOM      7  O   UNL d   1      54.858  33.061  53.158  0.00  0.00    -0.267 OA
ATOM      8  C   UNL d   1      54.796  33.187  54.633  0.00  0.00     0.063 A 
ATOM      9  C   UNL d   1      54.241  32.990  55.213  0.00  0.00     0.024 A 
ATOM     10  C   UNL d   1      53.586  32.646  54.842  0.00  0.00     0.085 A 
ENDBRANCH   4   5
ENDBRANCH   1   4
BRANCH   1  11
ATOM     11  C   UNL d   1      53.038  30.928  53.638  0.00  0.00     0.068 A 
ATOM     12  C   UNL d   1      53.505  30.526  53.080  0.00  0.00     0.018 A 
ATOM     13  C   UNL d   1      53.807  29.789  53.275  0.00  0.00     0.002 A 
ATOM     14  C   UNL d   1      53.656  29.450  53.999  0.00  0.00     0.000 A 
ATOM     15  C   UNL d   1      53.195  29.846  54.549  0.00  0.00     0.002 A 
ATOM     16  C   UNL d   1      53.964  28.707  54.186  0.00  0.00     0.000 C 
ATOM     17  C   UNL d   1      52.884  30.582  54.376  0.00  0.00     0.018 A 
ENDBRANCH   1  11
BRANCH   2  18
ATOM     18  C   UNL d   1      51.619  32.502  53.117  0.00  0.00     0.057 A 
ATOM     19  C   UNL d   1      51.138  32.895  53.656  0.00  0.00     0.007 A 
ATOM     20  C   UNL d   1      50.839  33.637  53.486  0.00  0.00     0.025 A 
ATOM     21  C   UNL d   1      51.019  33.998  52.765  0.00  0.00     0.100 A 
ATOM     22  C   UNL d   1      51.510  33.597  52.215  0.00  0.00     0.025 A 
ATOM     23  C   UNL d   1      51.802  32.858  52.396  0.00  0.00     0.007 A 
BRANCH  21  24
ATOM     24  O   UNL d   1      50.726  34.730  52.595  0.00  0.00    -0.307 OA
BRANCH  24  25
ATOM     25  C   UNL d   1      49.918  34.836  52.451  0.00  0.00     0.100 C 
ATOM     26  C   UNL d   1      49.438  35.141  53.046  0.00  0.00     0.027 C 
ATOM     27  C   UNL d   1      49.594  34.637  51.719  0.00  0.00     0.027 C 
ENDBRANCH  24  25
ENDBRANCH  21  24
ENDBRANCH   2  18
TORSDOF 6
ENDMDL
MODEL 4
REMARK VINA RESULT:      -6.6      1.140      4.281
REMARK  6 active torsions:
REMARK  status: ('A' for Active; 'I' for Inactive)
REMARK    1  A    between atoms: C_3  and  N_1 
REMARK       I    between atoms: C_4  and  N_1 
REMARK    2  A    between atoms: C_6  and  N_1 
REMARK    3  A    between atoms: N_2  and  C_3 
REMARK    4  A    between atoms: C_7  and  C_4 
REMARK    5  A    between atoms: O_14  and  C_16 
REMARK    6  A    between atoms: C_24  and  O_14 
ROOT
ATOM      1  N   UNL d   1      51.638  34.198  52.894  0.00  0.00    -0.258 N 
ATOM      2  C   UNL d   1      51.843  34.811  53.413  0.00  0.00     0.266 C 
ATOM      3  O   UNL d   1      51.409  35.446  53.487  0.00  0.00    -0.267 OA
ENDROOT
BRANCH   1   4
ATOM      4  C   UNL d   1      52.115  33.526  52.827  0.00  0.00     0.171 C 
BRANCH   4   5
ATOM      5  N   UNL d   1      51.946  32.732  52.982  0.00  0.00    -0.257 N 
ATOM      6  C   UNL d   1      52.374  32.074  52.731  0.00  0.00     0.266 A 
ATOM      7  O   UNL d   1      53.064  32.091  52.268  0.00  0.00    -0.267 OA
ATOM      8  C   UNL d   1      51.998  31.388  53.019  0.00  0.00     0.063 A 
ATOM      9  C   UNL d   1      51.334  31.625  53.451  0.00  0.00     0.024 A 
ATOM     10  C   UNL d   1      51.293  32.451  53.434  0.00  0.00     0.085 A 
ENDBRANCH   4   5
ENDBRANCH   1   4
BRANCH   1  11
ATOM     11  C   UNL d   1      50.948  34.256  52.437  0.00  0.00     0.068 A 
ATOM     12  C   UNL d   1      50.206  34.296  52.807  0.00  0.00     0.018 A 
ATOM     13  C   UNL d   1      49.534  34.353  52.341  0.00  0.00     0.002 A 
ATOM     14  C   UNL d   1      49.585  34.372  51.529  0.00  0.00     0.000 A 
ATOM     15  C   UNL d   1      50.317  34.333  51.164  0.00  0.00     0.002 A 
ATOM     16  C   UNL d   1      48.903  34.429  51.068  0.00  0.00     0.000 C 
ATOM     17  C   UNL d   1      51.001  34.275  51.609  0.00  0.00     0.018 A 
ENDBRANCH   1  11
BRANCH   2  18
ATOM     18  C   UNL d   1      52.530  34.741  53.861  0.00  0.00     0.057 A 
ATOM     19  C   UNL d   1      52.486  34.525  54.654  0.00  0.00     0.007 A 
ATOM     20  C   UNL d   1      53.165  34.453  55.105  0.00  0.00     0.025 A 
ATOM     21  C   UNL d   1      53.904  34.597  54.764  0.00  0.00     0.100 A 
ATOM     22  C   UNL d   1      53.948  34.817  53.955  0.00  0.00     0.025 A 
ATOM     23  C   UNL d   1      53.265  34.886  53.516  0.00  0.00     0.007 A 
BRANCH  21  24
ATOM     24  O   UNL d   1      54.574  34.527  55.207  0.00  0.00    -0.307 OA
BRANCH  24  25
ATOM     25  C   UNL d   1      55.002  33.820  55.211  0.00  0.00     0.100 C 
ATOM     26  C   UNL d   1      55.723  33.780  54.815  0.00  0.00     0.027 C 
ATOM     27  C   UNL d   1      54.713  33.158  55.609  0.00  0.00     0.027 C 
ENDBRANCH  24  25
ENDBRANCH  21  24
ENDBRANCH   2  18
TORSDOF 6
ENDMDL
MODEL 5
REMARK VINA RESULT:      -6.4      1.724      4.657
REMARK  6 active torsions:
REMARK  status: ('A' for Active; 'I' for Inactive)
REMARK    1  A    between atoms: C_3  and  N_1 
REMARK       I    between atoms: C_4  and  N_1 
REMARK    2  A    between atoms: C_6  and  N_1 
REMARK    3  A    between atoms: N_2  and  C_3 
REMARK    4  A    between atoms: C_7  and  C_4 
REMARK    5  A    between atoms: O_14  and  C_16 
REMARK    6  A    between atoms: C_24  and  O_14 
ROOT
ATOM      1  N   UNL d   1      52.645  32.269  53.429  0.00  0.00    -0.258 N 
ATOM      2  C   UNL d   1      52.505  31.551  53.039  0.00  0.00     0.266 C 
ATOM      3  O   UNL d   1      52.051  31.507  52.414  0.00  0.00    -0.267 OA
ENDROOT
BRANCH   1   4
ATOM      4  C   UNL d   1      53.133  32.297  54.096  0.00  0.00     0.171 C 
BRANCH   4   5
ATOM      5  N   UNL d   1      53.823  32.729  54.236  0.00  0.00    -0.257 N 
ATOM      6  C   UNL d   1      54.102  33.000  54.963  0.00  0.00     0.266 A 
ATOM      7  O   UNL d   1      53.731  32.886  55.698  0.00  0.00    -0.267 OA
ATOM      8  C   UNL d   1      54.817  33.409  54.837  0.00  0.00     0.063 A 
ATOM      9  C   UNL d   1      54.981  33.389  54.027  0.00  0.00     0.024 A 
ATOM     10  C   UNL d   1      54.375  32.973  53.648  0.00  0.00     0.085 A 
ENDBRANCH   4   5
ENDBRANCH   1   4
BRANCH   1  11
ATOM     11  C   UNL d   1      52.294  32.967  53.150  0.00  0.00     0.068 A 
ATOM     12  C   UNL d   1      52.572  33.322  52.452  0.00  0.00     0.018 A 
ATOM     13  C   UNL d   1      52.214  34.011  52.190  0.00  0.00     0.002 A 
ATOM     14  C   UNL d   1      51.598  34.349  52.601  0.00  0.00     0.000 A 
ATOM     15  C   UNL d   1      51.325  33.999  53.289  0.00  0.00     0.002 A 
ATOM     16  C   UNL d   1      51.244  35.043  52.329  0.00  0.00     0.000 C 
ATOM     17  C   UNL d   1      51.667  33.311  53.569  0.00  0.00     0.018 A 
ENDBRANCH   1  11
BRANCH   2  18
ATOM     18  C   UNL d   1      52.859  30.866  53.326  0.00  0.00     0.057 A 
ATOM     19  C   UNL d   1      52.508  30.444  53.939  0.00  0.00     0.007 A 
ATOM     20  C   UNL d   1      52.855  29.763  54.229  0.00  0.00     0.025 A 
ATOM     21  C   UNL d   1      53.565  29.492  53.905  0.00  0.00     0.100 A 
ATOM     22  C   UNL d   1      53.923  29.921  53.280  0.00  0.00     0.025 A 
ATOM     23  C   UNL d   1      53.568  30.599  52.999  0.00  0.00     0.007 A 
BRANCH  21  24
ATOM     24  O   UNL d   1      53.908  28.820  54.190  0.00  0.00    -0.307 OA
BRANCH  24  25
ATOM     25  C   UNL d   1      53.628  28.465  54.883  0.00  0.00     0.100 C 
ATOM     26  C   UNL d   1      53.296  27.713  54.847  0.00  0.00     0.027 C 
ATOM     27  C   UNL d   1      53.679  28.861  55.605  0.00  0.00     0.027 C 
ENDBRANCH  24  25
ENDBRANCH  21  24
ENDBRANCH   2  18
TORSDOF 6
ENDMDL
MODEL 6
REMARK VINA RESULT:      -5.8      1.293      2.631
REMARK  6 active torsions:
REMARK  status: ('A' for Active; 'I' for Inactive)
REMARK    1  A    between atoms: C_3  and  N_1 
REMARK       I    between atoms: C_4  and  N_1 
REMARK    2  A    between atoms: C_6  and  N_1 
REMARK    3  A    between atoms: N_2  and  C_3 
REMARK    4  A    between atoms: C_7  and  C_4 
REMARK    5  A    between atoms: O_14  and  C_16 
REMARK    6  A    between atoms: C_24  and  O_14 
ROOT
ATOM      1  N   UNL d   1      51.842  33.278  53.154  0.00  0.00    -0.258 N 
ATOM      2  C   UNL d   1      51.022  33.158  53.118  0.00  0.00     0.266 C 
ATOM      3  O   UNL d   1      50.709  32.455  53.188  0.00  0.00    -0.267 OA
ENDROOT
BRANCH   1   4
ATOM      4  C   UNL d   1      52.160  34.038  53.076  0.00  0.00     0.171 C 
BRANCH   4   5
ATOM      5  N   UNL d   1      52.649  34.467  53.584  0.00  0.00    -0.257 N 
ATOM      6  C   UNL d   1      53.203  35.040  53.376  0.00  0.00     0.266 A 
ATOM      7  O   UNL d   1      53.372  35.294  52.602  0.00  0.00    -0.267 OA
ATOM      8  C   UNL d   1      53.567  35.324  54.070  0.00  0.00     0.063 A 
ATOM      9  C   UNL d   1      53.234  34.922  54.712  0.00  0.00     0.024 A 
ATOM     10  C   UNL d   1      52.669  34.392  54.423  0.00  0.00     0.085 A 
ENDBRANCH   4   5
ENDBRANCH   1   4
BRANCH   1  11
ATOM     11  C   UNL d   1      52.350  32.633  53.268  0.00  0.00     0.068 A 
ATOM     12  C   UNL d   1      52.438  32.302  54.025  0.00  0.00     0.018 A 
ATOM     13  C   UNL d   1      52.944  31.664  54.121  0.00  0.00     0.002 A 
ATOM     14  C   UNL d   1      53.357  31.355  53.491  0.00  0.00     0.000 A 
ATOM     15  C   UNL d   1      53.270  31.681  52.745  0.00  0.00     0.002 A 
ATOM     16  C   UNL d   1      53.864  30.713  53.598  0.00  0.00     0.000 C 
ATOM     17  C   UNL d   1      52.770  32.318  52.626  0.00  0.00     0.018 A 
ENDBRANCH   1  11
BRANCH   2  18
ATOM     18  C   UNL d   1      50.529  33.807  53.004  0.00  0.00     0.057 A 
ATOM     19  C   UNL d   1      50.186  34.184  53.650  0.00  0.00     0.007 A 
ATOM     20  C   UNL d   1      49.695  34.830  53.545  0.00  0.00     0.025 A 
ATOM     21  C   UNL d   1      49.540  35.110  52.783  0.00  0.00     0.100 A 
ATOM     22  C   UNL d   1      49.890  34.725  52.124  0.00  0.00     0.025 A 
ATOM     23  C   UNL d   1      50.378  34.082  52.242  0.00  0.00     0.007 A 
BRANCH  21  24
ATOM     24  O   UNL d   1      49.057  35.746  52.677  0.00  0.00    -0.307 OA
BRANCH  24  25
ATOM     25  C   UNL d   1      48.236  35.667  52.747  0.00  0.00     0.100 C 
ATOM     26  C   UNL d   1      47.871  35.857  53.460  0.00  0.00     0.027 C 
ATOM     27  C   UNL d   1      47.786  35.401  52.110  0.00  0.00     0.027 C 
ENDBRANCH  24  25
ENDBRANCH  21  24
ENDBRANCH   2  18
TORSDOF 6
ENDMDL
