MODEL 1
REMARK VINA RESULT:      -2.5      0.000      0.000
REMARK  9 active torsions:
REMARK  status: ('A' for Active; 'I' for Inactive)
REMARK    1  A    between atoms: C_17  and  N_4 
REMARK    2  A    between atoms: S_16  and  C_7 
REMARK    3  A    between atoms: S_15  and  C_8 
REMARK    4  A    between atoms: C_10  and  C_19 
REMARK    5  A    between atoms: C_22  and  S_15 
REMARK    6  A    between atoms: C_19  and  S_16 
REMARK    7  A    between atoms: C_20  and  C_22 
REMARK    8  A    between atoms: O_24  and  C_20 
REMARK    9  A    between atoms: C_28  and  O_24 
ROOT
ATOM      1  N   UNL d   1      58.600  -1.005  29.972  0.00  0.00    -0.269 N 
ATOM      2  C   UNL d   1      58.593  -1.737  29.617  0.00  0.00     0.201 A 
ATOM      3  C   UNL d   1      57.905  -0.890  30.429  0.00  0.00     0.177 A 
ATOM      4  N   UNL d   1      57.895  -2.107  29.838  0.00  0.00    -0.121 NA
ATOM      5  N   UNL d   1      57.465  -1.596  30.336  0.00  0.00    -0.127 NA
ENDROOT
BRANCH   3   6
ATOM      6  C   UNL d   1      57.764  -0.203  30.847  0.00  0.00     0.078 C 
BRANCH   6   7
ATOM      7  S   UNL d   1      57.001  -0.027  31.097  0.00  0.00    -0.045 SA
BRANCH   7   8
ATOM      8  C   UNL d   1      56.845   0.098  31.903  0.00  0.00     0.198 A 
ATOM      9  N   UNL d   1      57.473   0.274  32.467  0.00  0.00    -0.183 NA
ATOM     10  C   UNL d   1      57.313   0.397  33.268  0.00  0.00     0.283 A 
ATOM     11  C   UNL d   1      56.517   0.351  33.542  0.00  0.00     0.082 A 
ATOM     12  O   UNL d   1      57.923   0.566  33.805  0.00  0.00    -0.265 OA
ATOM     13  C   UNL d   1      55.902   0.180  32.994  0.00  0.00     0.117 A 
ATOM     14  C   UNL d   1      56.188   0.447  34.299  0.00  0.00     0.013 A 
ATOM     15  N   UNL d   1      56.063   0.056  32.190  0.00  0.00    -0.214 NA
ATOM     16  S   UNL d   1      55.196   0.175  33.437  0.00  0.00    -0.068 SA
ATOM     17  C   UNL d   1      55.380   0.340  34.241  0.00  0.00     0.031 A 
ATOM     18  C   UNL d   1      54.868   0.394  34.885  0.00  0.00     0.006 A 
ATOM     19  C   UNL d   1      55.201   0.568  35.640  0.00  0.00     0.001 A 
ATOM     20  C   UNL d   1      56.027   0.678  35.700  0.00  0.00     0.000 A 
ATOM     21  C   UNL d   1      56.520   0.617  35.029  0.00  0.00     0.001 A 
ENDBRANCH   7   8
ENDBRANCH   6   7
ENDBRANCH   3   6
BRANCH   1  22
ATOM     22  C   UNL d   1      59.220  -0.456  29.884  0.00  0.00     0.067 A 
ATOM     23  C   UNL d   1      59.234   0.051  29.229  0.00  0.00     0.018 A 
ATOM     24  C   UNL d   1      59.840   0.590  29.139  0.00  0.00     0.002 A 
ATOM     25  C   UNL d   1      60.443   0.636  29.697  0.00  0.00     0.000 A 
ATOM     26  C   UNL d   1      60.441   0.147  30.342  0.00  0.00     0.002 A 
ATOM     27  C   UNL d   1      59.827  -0.403  30.438  0.00  0.00     0.018 A 
ENDBRANCH   1  22
BRANCH   2  28
ATOM     28  S   UNL d   1      59.173  -2.063  29.124  0.00  0.00    -0.042 SA
BRANCH  28  29
ATOM     29  C   UNL d   1      59.326  -2.851  29.143  0.00  0.00     0.107 C 
BRANCH  29  30
ATOM     30  C   UNL d   1      60.022  -3.152  28.826  0.00  0.00     0.307 C 
ATOM     31  O   UNL d   1      60.553  -2.640  28.455  0.00  0.00    -0.258 OA
BRANCH  30  32
ATOM     32  O   UNL d   1      60.208  -3.947  28.864  0.00  0.00    -0.271 OA
BRANCH  32  33
ATOM     33  C   UNL d   1      60.849  -4.268  28.482  0.00  0.00     0.126 C 
ATOM     34  C   UNL d   1      61.013  -5.045  28.480  0.00  0.00     0.029 C 
ENDBRANCH  32  33
ENDBRANCH  30  32
ENDBRANCH  29  30
ENDBRANCH  28  29
ENDBRANCH   2  28
TORSDOF 9
ENDMDL
