MODEL 1
REMARK VINA RESULT:      27.8      0.000      0.000
REMARK  6 active torsions:
REMARK  status: ('A' for Active; 'I' for Inactive)
REMARK    1  A    between atoms: C_4  and  C_1 
REMARK    2  A    between atoms: C_3  and  C_7 
REMARK    3  A    between atoms: O_18  and  C_3 
REMARK    4  A    between atoms: C_9  and  C_4 
REMARK    5  A    between atoms: O_13  and  C_9 
REMARK    6  A    between atoms: C_15  and  O_13 
ROOT
ATOM      1  C   UNL d   1     -55.464 -99.179 -44.154  0.00  0.00     0.165 C 
ENDROOT
BRANCH   1   2
ATOM      2  C   UNL d   1     -55.059 -99.791 -43.798  0.00  0.00     0.223 C 
ATOM      3  O   UNL d   1     -54.739 -99.699 -43.043  0.00  0.00    -0.284 OA
BRANCH   2   4
ATOM      4  C   UNL d   1     -54.971-100.524 -44.216  0.00  0.00     0.080 A 
ATOM      5  C   UNL d   1     -54.939-101.219 -43.792  0.00  0.00     0.202 A 
ATOM      6  C   UNL d   1     -54.852-101.952 -44.195  0.00  0.00     0.084 A 
ATOM      7  O   UNL d   1     -54.992-101.189 -42.965  0.00  0.00    -0.286 OA
ATOM      8  C   UNL d   1     -54.802-101.945 -45.019  0.00  0.00     0.199 A 
ATOM      9  C   UNL d   1     -54.837-101.234 -45.443  0.00  0.00     0.042 A 
ATOM     10  O   UNL d   1     -54.716-102.678 -45.421  0.00  0.00    -0.286 OA
ATOM     11  C   UNL d   1     -54.921-100.532 -45.040  0.00  0.00     0.010 A 
ENDBRANCH   2   4
ENDBRANCH   1   2
BRANCH   1  12
ATOM     12  O   UNL d   1     -56.091 -98.814 -43.769  0.00  0.00    -0.302 OA
BRANCH  12  13
ATOM     13  C   UNL d   1     -56.843 -98.811 -44.115  0.00  0.00     0.100 A 
ATOM     14  C   UNL d   1     -57.516 -98.772 -43.639  0.00  0.00     0.025 A 
ATOM     15  C   UNL d   1     -58.252 -98.769 -43.974  0.00  0.00     0.007 A 
ATOM     16  C   UNL d   1     -58.345 -98.805 -44.808  0.00  0.00     0.063 A 
ATOM     17  C   UNL d   1     -57.672 -98.843 -45.284  0.00  0.00     0.007 A 
ATOM     18  C   UNL d   1     -56.909 -98.846 -44.923  0.00  0.00     0.025 A 
BRANCH  16  19
ATOM     19  C   UNL d   1     -59.110 -98.801 -45.145  0.00  0.00     0.296 C 
ATOM     20  O   UNL d   1     -59.783 -98.781 -44.668  0.00  0.00    -0.259 OA
BRANCH  19  21
ATOM     21  O   UNL d   1     -59.174 -98.817 -45.978  0.00  0.00    -0.296 OA
ATOM     22  C   UNL d   1     -59.898 -98.962 -46.346  0.00  0.00     0.185 C 
ENDBRANCH  19  21
ENDBRANCH  16  19
ENDBRANCH  12  13
ENDBRANCH   1  12
TORSDOF 6
ENDMDL
