MODEL 1
REMARK VINA RESULT:      -3.4      0.000      0.000
REMARK  3 active torsions:
REMARK  status: ('A' for Active; 'I' for Inactive)
REMARK    1  A    between atoms: C_5  and  C_1 
REMARK    2  A    between atoms: C_8  and  N_2 
REMARK    3  A    between atoms: C_10  and  C_8 
ROOT
ATOM      1  C   UNL d   1      30.340  16.574 -24.004  0.00  0.00     0.166 A 
ATOM      2  N   UNL d   1      31.870  17.189 -24.074  0.00  0.00    -0.302 N 
ATOM      3  C   UNL d   1      30.954  16.206 -23.593  0.00  0.00     0.058 A 
ATOM      4  C   UNL d   1      30.492  17.250 -24.450  0.00  0.00     0.058 A 
ATOM      5  C   UNL d   1      31.257  17.558 -24.486  0.00  0.00     0.083 A 
ATOM      6  C   UNL d   1      31.719  16.513 -23.628  0.00  0.00     0.083 A 
ATOM      7  O   UNL d   1      29.718  17.000 -24.458  0.00  0.00    -0.290 OA
ENDROOT
BRANCH   1   8
ATOM      8  C   UNL d   1      29.576  16.266 -23.968  0.00  0.00     0.036 A 
ATOM      9  C   UNL d   1      29.305  15.755 -24.573  0.00  0.00     0.003 A 
ATOM     10  C   UNL d   1      28.542  15.454 -24.527  0.00  0.00     0.000 A 
ATOM     11  C   UNL d   1      28.044  15.652 -23.893  0.00  0.00     0.000 A 
ATOM     12  C   UNL d   1      28.307  16.151 -23.303  0.00  0.00     0.000 A 
ATOM     13  C   UNL d   1      29.078  16.464 -23.334  0.00  0.00     0.003 A 
ENDBRANCH   1   8
BRANCH   2  14
ATOM     14  C   UNL d   1      32.634  17.497 -24.110  0.00  0.00     0.080 C 
BRANCH  14  15
ATOM     15  C   UNL d   1      32.836  18.153 -23.651  0.00  0.00     0.018 A 
ATOM     16  C   UNL d   1      33.018  18.057 -22.853  0.00  0.00     0.002 A 
ATOM     17  C   UNL d   1      33.220  18.712 -22.394  0.00  0.00     0.000 A 
ATOM     18  C   UNL d   1      33.241  19.463 -22.729  0.00  0.00     0.000 A 
ATOM     19  C   UNL d   1      33.059  19.559 -23.527  0.00  0.00     0.000 A 
ATOM     20  C   UNL d   1      32.856  18.905 -23.991  0.00  0.00     0.002 A 
ENDBRANCH  14  15
ENDBRANCH   2  14
TORSDOF 3
ENDMDL
MODEL 2
REMARK VINA RESULT:      -2.9      2.189      5.067
REMARK  3 active torsions:
REMARK  status: ('A' for Active; 'I' for Inactive)
REMARK    1  A    between atoms: C_5  and  C_1 
REMARK    2  A    between atoms: C_8  and  N_2 
REMARK    3  A    between atoms: C_10  and  C_8 
ROOT
ATOM      1  C   UNL d   1      32.902  20.407 -22.116  0.00  0.00     0.166 A 
ATOM      2  N   UNL d   1      33.128  19.032 -23.002  0.00  0.00    -0.302 N 
ATOM      3  C   UNL d   1      32.912  20.442 -22.941  0.00  0.00     0.058 A 
ATOM      4  C   UNL d   1      33.005  19.684 -21.735  0.00  0.00     0.058 A 
ATOM      5  C   UNL d   1      33.118  18.996 -22.177  0.00  0.00     0.083 A 
ATOM      6  C   UNL d   1      33.025  19.755 -23.383  0.00  0.00     0.083 A 
ATOM      7  O   UNL d   1      32.899  20.320 -21.240  0.00  0.00    -0.290 OA
ENDROOT
BRANCH   1   8
ATOM      8  C   UNL d   1      32.789  21.093 -21.674  0.00  0.00     0.036 A 
ATOM      9  C   UNL d   1      32.231  21.100 -21.050  0.00  0.00     0.003 A 
ATOM     10  C   UNL d   1      32.127  21.790 -20.617  0.00  0.00     0.000 A 
ATOM     11  C   UNL d   1      32.566  22.472 -20.791  0.00  0.00     0.000 A 
ATOM     12  C   UNL d   1      33.111  22.467 -21.399  0.00  0.00     0.000 A 
ATOM     13  C   UNL d   1      33.228  21.776 -21.849  0.00  0.00     0.003 A 
ENDBRANCH   1   8
BRANCH   2  14
ATOM     14  C   UNL d   1      33.241  18.345 -23.443  0.00  0.00     0.080 C 
BRANCH  14  15
ATOM     15  C   UNL d   1      32.594  17.873 -23.644  0.00  0.00     0.018 A 
ATOM     16  C   UNL d   1      32.117  18.077 -24.284  0.00  0.00     0.002 A 
ATOM     17  C   UNL d   1      31.470  17.605 -24.484  0.00  0.00     0.000 A 
ATOM     18  C   UNL d   1      31.298  16.930 -24.047  0.00  0.00     0.000 A 
ATOM     19  C   UNL d   1      31.776  16.725 -23.406  0.00  0.00     0.000 A 
ATOM     20  C   UNL d   1      32.425  17.195 -23.203  0.00  0.00     0.002 A 
ENDBRANCH  14  15
ENDBRANCH   2  14
TORSDOF 3
ENDMDL
MODEL 3
REMARK VINA RESULT:      -2.7      1.017      4.296
REMARK  3 active torsions:
REMARK  status: ('A' for Active; 'I' for Inactive)
REMARK    1  A    between atoms: C_5  and  C_1 
REMARK    2  A    between atoms: C_8  and  N_2 
REMARK    3  A    between atoms: C_10  and  C_8 
ROOT
ATOM      1  C   UNL d   1      31.993  17.763 -23.769  0.00  0.00     0.166 A 
ATOM      2  N   UNL d   1      31.160  16.348 -23.936  0.00  0.00    -0.302 N 
ATOM      3  C   UNL d   1      31.266  17.754 -24.160  0.00  0.00     0.058 A 
ATOM      4  C   UNL d   1      32.303  17.064 -23.461  0.00  0.00     0.058 A 
ATOM      5  C   UNL d   1      31.887  16.356 -23.544  0.00  0.00     0.083 A 
ATOM      6  C   UNL d   1      30.850  17.046 -24.244  0.00  0.00     0.083 A 
ATOM      7  O   UNL d   1      32.763  17.725 -23.345  0.00  0.00    -0.290 OA
ENDROOT
BRANCH   1   8
ATOM      8  C   UNL d   1      32.408  18.470 -23.686  0.00  0.00     0.036 A 
ATOM      9  C   UNL d   1      32.787  18.811 -24.351  0.00  0.00     0.003 A 
ATOM     10  C   UNL d   1      33.198  19.515 -24.257  0.00  0.00     0.000 A 
ATOM     11  C   UNL d   1      33.240  19.888 -23.516  0.00  0.00     0.000 A 
ATOM     12  C   UNL d   1      32.871  19.557 -22.867  0.00  0.00     0.000 A 
ATOM     13  C   UNL d   1      32.450  18.843 -22.946  0.00  0.00     0.003 A 
ENDBRANCH   1   8
BRANCH   2  14
ATOM     14  C   UNL d   1      30.745  15.640 -24.018  0.00  0.00     0.080 C 
BRANCH  14  15
ATOM     15  C   UNL d   1      29.953  15.597 -23.789  0.00  0.00     0.018 A 
ATOM     16  C   UNL d   1      29.356  15.658 -24.355  0.00  0.00     0.002 A 
ATOM     17  C   UNL d   1      28.565  15.615 -24.125  0.00  0.00     0.000 A 
ATOM     18  C   UNL d   1      28.367  15.513 -23.334  0.00  0.00     0.000 A 
ATOM     19  C   UNL d   1      28.964  15.453 -22.768  0.00  0.00     0.000 A 
ATOM     20  C   UNL d   1      29.758  15.495 -22.993  0.00  0.00     0.002 A 
ENDBRANCH  14  15
ENDBRANCH   2  14
TORSDOF 3
ENDMDL
MODEL 4
REMARK VINA RESULT:      -0.5      0.826      1.375
REMARK  3 active torsions:
REMARK  status: ('A' for Active; 'I' for Inactive)
REMARK    1  A    between atoms: C_5  and  C_1 
REMARK    2  A    between atoms: C_8  and  N_2 
REMARK    3  A    between atoms: C_10  and  C_8 
ROOT
ATOM      1  C   UNL d   1      31.101  17.112 -24.302  0.00  0.00     0.166 A 
ATOM      2  N   UNL d   1      32.519  17.884 -23.960  0.00  0.00    -0.302 N 
ATOM      3  C   UNL d   1      31.341  17.757 -24.757  0.00  0.00     0.058 A 
ATOM      4  C   UNL d   1      31.570  16.853 -23.676  0.00  0.00     0.058 A 
ATOM      5  C   UNL d   1      32.279  17.238 -23.504  0.00  0.00     0.083 A 
ATOM      6  C   UNL d   1      32.050  18.143 -24.586  0.00  0.00     0.083 A 
ATOM      7  O   UNL d   1      30.885  16.429 -23.790  0.00  0.00    -0.290 OA
ENDROOT
BRANCH   1   8
ATOM      8  C   UNL d   1      30.392  16.726 -24.473  0.00  0.00     0.036 A 
ATOM      9  C   UNL d   1      29.666  17.060 -24.223  0.00  0.00     0.003 A 
ATOM     10  C   UNL d   1      28.967  16.667 -24.399  0.00  0.00     0.000 A 
ATOM     11  C   UNL d   1      28.975  15.951 -24.819  0.00  0.00     0.000 A 
ATOM     12  C   UNL d   1      29.682  15.624 -25.063  0.00  0.00     0.000 A 
ATOM     13  C   UNL d   1      30.401  16.010 -24.892  0.00  0.00     0.003 A 
ENDBRANCH   1   8
BRANCH   2  14
ATOM     14  C   UNL d   1      33.228  18.268 -23.788  0.00  0.00     0.080 C 
BRANCH  14  15
ATOM     15  C   UNL d   1      33.230  18.921 -23.282  0.00  0.00     0.018 A 
ATOM     16  C   UNL d   1      33.224  18.809 -22.465  0.00  0.00     0.002 A 
ATOM     17  C   UNL d   1      33.227  19.462 -21.960  0.00  0.00     0.000 A 
ATOM     18  C   UNL d   1      33.235  20.225 -22.267  0.00  0.00     0.000 A 
ATOM     19  C   UNL d   1      33.241  20.336 -23.084  0.00  0.00     0.000 A 
ATOM     20  C   UNL d   1      33.239  19.685 -23.594  0.00  0.00     0.002 A 
ENDBRANCH  14  15
ENDBRANCH   2  14
TORSDOF 3
ENDMDL
