MODEL 1
REMARK VINA RESULT:      31.8      0.000      0.000
REMARK  5 active torsions:
REMARK  status: ('A' for Active; 'I' for Inactive)
REMARK    1  A    between atoms: S_3  and  N_1 
REMARK    2  A    between atoms: C_7  and  C_4 
REMARK    3  A    between atoms: C_8  and  C_5 
REMARK    4  A    between atoms: O_17  and  C_12 
REMARK    5  A    between atoms: C_20  and  O_17 
ROOT
ATOM      1  N   UNL d   1      13.678  12.333  -3.395  0.00  0.00    -0.155 N 
ATOM      2  N   UNL d   1      13.918  11.853  -2.756  0.00  0.00    -0.155 NA
ATOM      3  C   UNL d   1      13.668  13.098  -3.140  0.00  0.00     0.098 A 
ATOM      4  C   UNL d   1      14.050  12.346  -2.120  0.00  0.00     0.110 A 
ATOM      5  C   UNL d   1      13.895  13.145  -2.347  0.00  0.00     0.041 A 
ENDROOT
BRANCH   3   6
ATOM      6  C   UNL d   1      13.461  13.750  -3.602  0.00  0.00     0.041 A 
ATOM      7  C   UNL d   1      13.723  14.497  -3.403  0.00  0.00     0.102 A 
ATOM      8  C   UNL d   1      13.516  15.149  -3.864  0.00  0.00     0.025 A 
ATOM      9  C   UNL d   1      13.046  15.053  -4.525  0.00  0.00     0.002 A 
ATOM     10  C   UNL d   1      12.779  14.300  -4.731  0.00  0.00     0.000 A 
ATOM     11  C   UNL d   1      12.986  13.649  -4.269  0.00  0.00     0.004 A 
BRANCH   7  12
ATOM     12  O   UNL d   1      14.200  14.602  -2.733  0.00  0.00    -0.305 OA
BRANCH  12  13
ATOM     13  C   UNL d   1      14.639  15.290  -2.644  0.00  0.00     0.123 C 
ATOM     14  C   UNL d   1      14.692  15.656  -1.903  0.00  0.00     0.029 C 
ENDBRANCH  12  13
ENDBRANCH   7  12
ENDBRANCH   3   6
BRANCH   1  15
ATOM     15  S   UNL d   1      13.493  12.060  -4.131  0.00  0.00     0.266 S 
ATOM     16  O   UNL d   1      14.229  12.332  -4.425  0.00  0.00    -0.203 OA
ATOM     17  O   UNL d   1      12.769  11.782  -3.883  0.00  0.00    -0.203 OA
ATOM     18  C   UNL d   1      13.320  11.781  -4.912  0.00  0.00     0.165 C 
ENDBRANCH   1  15
BRANCH   4  19
ATOM     19  C   UNL d   1      14.297  12.127  -1.359  0.00  0.00     0.049 A 
ATOM     20  S   UNL d   1      13.776  12.023  -0.736  0.00  0.00    -0.085 SA
ATOM     21  C   UNL d   1      14.231  11.809  -0.081  0.00  0.00     0.035 A 
ATOM     22  C   UNL d   1      15.029  11.781  -0.302  0.00  0.00     0.007 A 
ATOM     23  C   UNL d   1      15.066  11.982  -1.109  0.00  0.00     0.009 A 
ENDBRANCH   4  19
TORSDOF 5
ENDMDL
