MODEL 1
REMARK VINA RESULT:      36.5      0.000      0.000
REMARK  1 active torsions:
REMARK  status: ('A' for Active; 'I' for Inactive)
REMARK       I    between atoms: C_8  and  N_9 
REMARK    1  A    between atoms: N_9  and  C_10 
ROOT
ATOM      1  N   UNL d   1     -58.731 -98.757 -44.005  0.00  0.00    -0.304 N 
ATOM      2  C   UNL d   1     -57.907 -98.758 -43.952  0.00  0.00     0.066 A 
ATOM      3  C   UNL d   1     -57.701 -98.758 -43.150  0.00  0.00     0.018 A 
ATOM      4  C   UNL d   1     -59.034 -98.758 -43.238  0.00  0.00     0.064 A 
ATOM      5  C   UNL d   1     -58.399 -98.758 -42.711  0.00  0.00     0.018 A 
ATOM      6  C   UNL d   1     -57.316 -98.758 -44.528  0.00  0.00     0.037 A 
ATOM      7  C   UNL d   1     -56.908 -98.758 -42.929  0.00  0.00     0.003 A 
ATOM      8  C   UNL d   1     -56.518 -98.758 -44.303  0.00  0.00     0.086 A 
ATOM      9  C   UNL d   1     -56.323 -98.758 -43.499  0.00  0.00     0.019 A 
ATOM     10  C   UNL d   1     -59.166 -98.757 -44.695  0.00  0.00     0.099 C 
ATOM     11  C   UNL d   1     -59.807 -98.758 -42.948  0.00  0.00     0.018 A 
ATOM     12  C   UNL d   1     -58.541 -98.758 -41.897  0.00  0.00     0.002 A 
ATOM     13  C   UNL d   1     -59.310 -98.758 -41.613  0.00  0.00     0.000 A 
ATOM     14  C   UNL d   1     -59.945 -98.758 -42.140  0.00  0.00     0.002 A 
ENDROOT
BRANCH   8  15
ATOM     15  N   UNL d   1     -55.939 -98.758 -44.877  0.00  0.00    -0.208 NA
ATOM     16  C   UNL d   1     -55.311 -99.285 -44.838  0.00  0.00     0.279 C 
ATOM     17  O   UNL d   1     -54.731 -99.280 -45.420  0.00  0.00    -0.265 OA
ATOM     18  C   UNL d   1     -55.267 -99.815 -44.216  0.00  0.00     0.068 C 
ENDBRANCH   8  15
TORSDOF 1
ENDMDL
