MODEL 1
REMARK VINA RESULT:      73.5      0.000      0.000
REMARK  9 active torsions:
REMARK  status: ('A' for Active; 'I' for Inactive)
REMARK    1  A    between atoms: C_17  and  N_4 
REMARK    2  A    between atoms: S_16  and  C_7 
REMARK    3  A    between atoms: S_15  and  C_8 
REMARK    4  A    between atoms: C_11  and  C_19 
REMARK    5  A    between atoms: C_22  and  S_15 
REMARK    6  A    between atoms: C_19  and  S_16 
REMARK    7  A    between atoms: C_20  and  C_22 
REMARK    8  A    between atoms: O_25  and  C_20 
REMARK    9  A    between atoms: C_29  and  O_25 
ROOT
ATOM      1  N   UNL d   1      14.090  15.340  -4.078  0.00  0.00    -0.269 N 
ATOM      2  C   UNL d   1      13.822  14.549  -4.133  0.00  0.00     0.201 A 
ATOM      3  C   UNL d   1      14.010  15.689  -4.815  0.00  0.00     0.177 A 
ATOM      4  N   UNL d   1      13.576  14.413  -4.910  0.00  0.00    -0.121 NA
ATOM      5  N   UNL d   1      13.697  15.121  -5.320  0.00  0.00    -0.127 NA
ENDROOT
BRANCH   3   6
ATOM      6  C   UNL d   1      14.231  16.467  -4.921  0.00  0.00     0.078 C 
BRANCH   6   7
ATOM      7  S   UNL d   1      14.178  16.827  -5.667  0.00  0.00    -0.045 SA
BRANCH   7   8
ATOM      8  C   UNL d   1      14.179  17.663  -5.755  0.00  0.00     0.198 A 
ATOM      9  N   UNL d   1      13.489  18.055  -6.024  0.00  0.00    -0.183 NA
ATOM     10  C   UNL d   1      13.483  18.868  -6.112  0.00  0.00     0.283 A 
ATOM     11  C   UNL d   1      14.148  19.320  -5.941  0.00  0.00     0.082 A 
ATOM     12  O   UNL d   1      12.769  19.248  -6.386  0.00  0.00    -0.265 OA
ATOM     13  C   UNL d   1      14.836  18.952  -5.676  0.00  0.00     0.117 A 
ATOM     14  C   UNL d   1      14.294  20.115  -5.977  0.00  0.00     0.013 A 
ATOM     15  N   UNL d   1      14.870  18.134  -5.579  0.00  0.00    -0.214 NA
ATOM     16  S   UNL d   1      15.405  19.515  -5.549  0.00  0.00    -0.068 SA
ATOM     17  C   UNL d   1      15.067  20.241  -5.737  0.00  0.00     0.031 A 
ATOM     18  C   UNL d   1      15.195  21.056  -5.781  0.00  0.00     0.006 A 
ATOM     19  C   UNL d   1      14.534  21.438  -6.039  0.00  0.00     0.001 A 
ATOM     20  C   UNL d   1      13.957  20.840  -6.165  0.00  0.00     0.001 A 
ENDBRANCH   7   8
ENDBRANCH   6   7
ENDBRANCH   3   6
BRANCH   1  21
ATOM     21  C   UNL d   1      14.379  15.678  -3.381  0.00  0.00     0.067 A 
ATOM     22  C   UNL d   1      13.908  16.193  -2.941  0.00  0.00     0.018 A 
ATOM     23  C   UNL d   1      14.228  16.528  -2.227  0.00  0.00     0.002 A 
ATOM     24  C   UNL d   1      14.985  16.347  -1.977  0.00  0.00     0.000 A 
ATOM     25  C   UNL d   1      15.462  15.825  -2.422  0.00  0.00     0.002 A 
ATOM     26  C   UNL d   1      15.165  15.492  -3.119  0.00  0.00     0.018 A 
ENDBRANCH   1  21
BRANCH   2  27
ATOM     27  S   UNL d   1      13.789  13.952  -3.524  0.00  0.00    -0.042 SA
BRANCH  27  28
ATOM     28  C   UNL d   1      13.321  13.288  -3.653  0.00  0.00     0.107 C 
BRANCH  28  29
ATOM     29  C   UNL d   1      13.471  12.580  -3.239  0.00  0.00     0.307 C 
ATOM     30  O   UNL d   1      13.228  11.853  -3.548  0.00  0.00    -0.258 OA
BRANCH  29  31
ATOM     31  O   UNL d   1      13.866  12.625  -2.518  0.00  0.00    -0.271 OA
BRANCH  31  32
ATOM     32  C   UNL d   1      14.065  11.946  -2.085  0.00  0.00     0.126 C 
ATOM     33  C   UNL d   1      14.351  11.991  -1.313  0.00  0.00     0.029 C 
ENDBRANCH  31  32
ENDBRANCH  29  31
ENDBRANCH  28  29
ENDBRANCH  27  28
ENDBRANCH   2  27
TORSDOF 9
ENDMDL
MODEL 2
REMARK VINA RESULT:      74.9      1.332      2.267
REMARK  9 active torsions:
REMARK  status: ('A' for Active; 'I' for Inactive)
REMARK    1  A    between atoms: C_17  and  N_4 
REMARK    2  A    between atoms: S_16  and  C_7 
REMARK    3  A    between atoms: S_15  and  C_8 
REMARK    4  A    between atoms: C_11  and  C_19 
REMARK    5  A    between atoms: C_22  and  S_15 
REMARK    6  A    between atoms: C_19  and  S_16 
REMARK    7  A    between atoms: C_20  and  C_22 
REMARK    8  A    between atoms: O_25  and  C_20 
REMARK    9  A    between atoms: C_29  and  O_25 
ROOT
ATOM      1  N   UNL d   1      13.944  14.528  -3.648  0.00  0.00    -0.269 N 
ATOM      2  C   UNL d   1      13.957  14.361  -2.828  0.00  0.00     0.201 A 
ATOM      3  C   UNL d   1      14.158  15.311  -3.753  0.00  0.00     0.177 A 
ATOM      4  N   UNL d   1      14.181  15.048  -2.427  0.00  0.00    -0.121 NA
ATOM      5  N   UNL d   1      14.302  15.625  -3.006  0.00  0.00    -0.127 NA
ENDROOT
BRANCH   3   6
ATOM      6  C   UNL d   1      14.192  15.625  -4.505  0.00  0.00     0.078 C 
BRANCH   6   7
ATOM      7  S   UNL d   1      14.866  16.033  -4.766  0.00  0.00    -0.045 SA
BRANCH   7   8
ATOM      8  C   UNL d   1      14.835  16.845  -4.982  0.00  0.00     0.198 A 
ATOM      9  N   UNL d   1      15.442  17.367  -4.734  0.00  0.00    -0.183 NA
ATOM     10  C   UNL d   1      15.418  18.157  -4.941  0.00  0.00     0.283 A 
ATOM     11  C   UNL d   1      14.802  18.460  -5.393  0.00  0.00     0.082 A 
ATOM     12  O   UNL d   1      16.047  18.671  -4.678  0.00  0.00    -0.265 OA
ATOM     13  C   UNL d   1      14.196  17.963  -5.646  0.00  0.00     0.117 A 
ATOM     14  C   UNL d   1      14.641  19.203  -5.672  0.00  0.00     0.013 A 
ATOM     15  N   UNL d   1      14.196  17.162  -5.452  0.00  0.00    -0.214 NA
ATOM     16  S   UNL d   1      13.663  18.394  -6.078  0.00  0.00    -0.068 SA
ATOM     17  C   UNL d   1      13.941  19.168  -6.095  0.00  0.00     0.031 A 
ATOM     18  C   UNL d   1      13.796  19.934  -6.369  0.00  0.00     0.006 A 
ATOM     19  C   UNL d   1      14.377  20.440  -6.134  0.00  0.00     0.001 A 
ATOM     20  C   UNL d   1      14.919  19.976  -5.688  0.00  0.00     0.001 A 
ENDBRANCH   7   8
ENDBRANCH   6   7
ENDBRANCH   3   6
BRANCH   1  21
ATOM     21  C   UNL d   1      13.744  13.970  -4.225  0.00  0.00     0.067 A 
ATOM     22  C   UNL d   1      12.952  13.793  -4.376  0.00  0.00     0.018 A 
ATOM     23  C   UNL d   1      12.771  13.217  -4.974  0.00  0.00     0.002 A 
ATOM     24  C   UNL d   1      13.364  12.843  -5.395  0.00  0.00     0.000 A 
ATOM     25  C   UNL d   1      14.166  13.022  -5.243  0.00  0.00     0.002 A 
ATOM     26  C   UNL d   1      14.358  13.581  -4.664  0.00  0.00     0.018 A 
ENDBRANCH   1  21
BRANCH   2  27
ATOM     27  S   UNL d   1      13.779  13.627  -2.428  0.00  0.00    -0.042 SA
BRANCH  27  28
ATOM     28  C   UNL d   1      14.405  13.156  -2.179  0.00  0.00     0.107 C 
BRANCH  28  29
ATOM     29  C   UNL d   1      14.265  12.493  -1.693  0.00  0.00     0.307 C 
ATOM     30  O   UNL d   1      13.781  11.875  -1.955  0.00  0.00    -0.258 OA
BRANCH  29  31
ATOM     31  O   UNL d   1      14.619  12.470  -0.950  0.00  0.00    -0.271 OA
BRANCH  31  32
ATOM     32  C   UNL d   1      15.045  11.808  -0.689  0.00  0.00     0.126 C 
ATOM     33  C   UNL d   1      15.529  11.838  -0.022  0.00  0.00     0.029 C 
ENDBRANCH  31  32
ENDBRANCH  29  31
ENDBRANCH  28  29
ENDBRANCH  27  28
ENDBRANCH   2  27
TORSDOF 9
ENDMDL
