MODEL 1
REMARK VINA RESULT:      -5.8      0.000      0.000
REMARK  1 active torsions:
REMARK  status: ('A' for Active; 'I' for Inactive)
REMARK    1  A    between atoms: N_4  and  C_1 
ROOT
ATOM      1  C   UNL d   1     -41.545-122.551 -52.796  0.00  0.00     0.735 A 
ATOM      2  N   UNL d   1     -41.124-122.884 -53.441  0.00  0.00    -0.059 NA
ATOM      3  N   UNL d   1     -42.113-122.036 -53.147  0.00  0.00    -0.059 NA
ATOM      4  C   UNL d   1     -41.420-122.589 -54.132  0.00  0.00     0.118 A 
ATOM      5  C   UNL d   1     -42.032-122.064 -53.951  0.00  0.00     0.118 A 
ATOM      6  C   UNL d   1     -41.202-122.738 -54.928  0.00  0.00     0.021 A 
ATOM      7  C   UNL d   1     -42.432-121.683 -54.563  0.00  0.00     0.021 A 
ATOM      8  C   UNL d   1     -41.621-122.340 -55.528  0.00  0.00     0.002 A 
ATOM      9  C   UNL d   1     -42.233-121.815 -55.347  0.00  0.00     0.002 A 
ENDROOT
BRANCH   1  10
ATOM     10  N   UNL d   1     -41.395-122.723 -52.013  0.00  0.00    -0.133 N 
ATOM     11  C   UNL d   1     -41.259-123.392 -51.604  0.00  0.00     0.125 A 
ATOM     12  C   UNL d   1     -41.123-123.383 -50.795  0.00  0.00     0.142 A 
ATOM     13  O   UNL d   1     -41.123-122.679 -50.375  0.00  0.00    -0.300 OA
ATOM     14  C   UNL d   1     -41.270-121.951 -50.816  0.00  0.00     0.142 A 
ATOM     15  C   UNL d   1     -41.401-121.991 -51.613  0.00  0.00     0.125 A 
ENDBRANCH   1  10
TORSDOF 1
ENDMDL
MODEL 2
REMARK VINA RESULT:      -5.7      1.509      3.442
REMARK  1 active torsions:
REMARK  status: ('A' for Active; 'I' for Inactive)
REMARK    1  A    between atoms: N_4  and  C_1 
ROOT
ATOM      1  C   UNL d   1     -41.513-122.505 -53.375  0.00  0.00     0.735 A 
ATOM      2  N   UNL d   1     -41.429-123.271 -53.044  0.00  0.00    -0.059 NA
ATOM      3  N   UNL d   1     -41.453-121.974 -52.723  0.00  0.00    -0.059 NA
ATOM      4  C   UNL d   1     -41.326-123.204 -52.245  0.00  0.00     0.118 A 
ATOM      5  C   UNL d   1     -41.341-122.402 -52.047  0.00  0.00     0.118 A 
ATOM      6  C   UNL d   1     -41.217-123.791 -51.657  0.00  0.00     0.021 A 
ATOM      7  C   UNL d   1     -41.246-122.179 -51.258  0.00  0.00     0.021 A 
ATOM      8  C   UNL d   1     -41.124-123.541 -50.868  0.00  0.00     0.002 A 
ATOM      9  C   UNL d   1     -41.138-122.739 -50.670  0.00  0.00     0.002 A 
ENDROOT
BRANCH   1  10
ATOM     10  N   UNL d   1     -41.628-122.360 -54.171  0.00  0.00    -0.133 N 
ATOM     11  C   UNL d   1     -41.228-122.542 -54.835  0.00  0.00     0.125 A 
ATOM     12  C   UNL d   1     -41.494-122.309 -55.576  0.00  0.00     0.142 A 
ATOM     13  O   UNL d   1     -42.186-121.877 -55.658  0.00  0.00    -0.300 OA
ATOM     14  C   UNL d   1     -42.621-121.678 -54.940  0.00  0.00     0.142 A 
ATOM     15  C   UNL d   1     -42.335-121.921 -54.224  0.00  0.00     0.125 A 
ENDBRANCH   1  10
TORSDOF 1
ENDMDL
MODEL 3
REMARK VINA RESULT:      -4.8      0.859      1.168
REMARK  1 active torsions:
REMARK  status: ('A' for Active; 'I' for Inactive)
REMARK    1  A    between atoms: N_4  and  C_1 
ROOT
ATOM      1  C   UNL d   1     -41.495-122.922 -51.889  0.00  0.00     0.735 A 
ATOM      2  N   UNL d   1     -41.258-123.548 -52.393  0.00  0.00    -0.059 NA
ATOM      3  N   UNL d   1     -41.681-122.281 -52.405  0.00  0.00    -0.059 NA
ATOM      4  C   UNL d   1     -41.301-123.300 -53.162  0.00  0.00     0.118 A 
ATOM      5  C   UNL d   1     -41.562-122.517 -53.169  0.00  0.00     0.118 A 
ATOM      6  C   UNL d   1     -41.128-123.704 -53.876  0.00  0.00     0.021 A 
ATOM      7  C   UNL d   1     -41.653-122.128 -53.890  0.00  0.00     0.021 A 
ATOM      8  C   UNL d   1     -41.228-123.289 -54.592  0.00  0.00     0.002 A 
ATOM      9  C   UNL d   1     -41.490-122.506 -54.599  0.00  0.00     0.002 A 
ENDROOT
BRANCH   1  10
ATOM     10  N   UNL d   1     -41.521-122.973 -51.074  0.00  0.00    -0.133 N 
ATOM     11  C   UNL d   1     -41.125-123.396 -50.529  0.00  0.00     0.125 A 
ATOM     12  C   UNL d   1     -41.283-123.323 -49.727  0.00  0.00     0.142 A 
ATOM     13  O   UNL d   1     -41.860-122.806 -49.457  0.00  0.00    -0.300 OA
ATOM     14  C   UNL d   1     -42.291-122.346 -50.047  0.00  0.00     0.142 A 
ATOM     15  C   UNL d   1     -42.113-122.440 -50.830  0.00  0.00     0.125 A 
ENDBRANCH   1  10
TORSDOF 1
ENDMDL
MODEL 4
REMARK VINA RESULT:      -4.6      1.800      4.287
REMARK  1 active torsions:
REMARK  status: ('A' for Active; 'I' for Inactive)
REMARK    1  A    between atoms: N_4  and  C_1 
ROOT
ATOM      1  C   UNL d   1     -41.611-122.779 -50.808  0.00  0.00     0.735 A 
ATOM      2  N   UNL d   1     -42.301-122.531 -50.401  0.00  0.00    -0.059 NA
ATOM      3  N   UNL d   1     -41.167-123.219 -50.242  0.00  0.00    -0.059 NA
ATOM      4  C   UNL d   1     -42.273-122.805 -49.641  0.00  0.00     0.118 A 
ATOM      5  C   UNL d   1     -41.571-123.230 -49.543  0.00  0.00     0.118 A 
ATOM      6  C   UNL d   1     -42.815-122.716 -49.007  0.00  0.00     0.021 A 
ATOM      7  C   UNL d   1     -41.405-123.571 -48.811  0.00  0.00     0.021 A 
ATOM      8  C   UNL d   1     -42.624-123.070 -48.278  0.00  0.00     0.002 A 
ATOM      9  C   UNL d   1     -41.922-123.495 -48.180  0.00  0.00     0.002 A 
ENDROOT
BRANCH   1  10
ATOM     10  N   UNL d   1     -41.452-122.603 -51.589  0.00  0.00    -0.133 N 
ATOM     11  C   UNL d   1     -41.366-121.929 -52.004  0.00  0.00     0.125 A 
ATOM     12  C   UNL d   1     -41.203-121.935 -52.808  0.00  0.00     0.142 A 
ATOM     13  O   UNL d   1     -41.123-122.641 -53.216  0.00  0.00    -0.300 OA
ATOM     14  C   UNL d   1     -41.216-123.374 -52.769  0.00  0.00     0.142 A 
ATOM     15  C   UNL d   1     -41.376-123.337 -51.978  0.00  0.00     0.125 A 
ENDBRANCH   1  10
TORSDOF 1
ENDMDL
MODEL 5
REMARK VINA RESULT:      -3.0      1.562      3.566
REMARK  1 active torsions:
REMARK  status: ('A' for Active; 'I' for Inactive)
REMARK    1  A    between atoms: N_4  and  C_1 
ROOT
ATOM      1  C   UNL d   1     -41.929-122.058 -53.075  0.00  0.00     0.735 A 
ATOM      2  N   UNL d   1     -42.573-122.231 -52.566  0.00  0.00    -0.059 NA
ATOM      3  N   UNL d   1     -41.283-121.883 -52.561  0.00  0.00    -0.059 NA
ATOM      4  C   UNL d   1     -42.330-122.164 -51.798  0.00  0.00     0.118 A 
ATOM      5  C   UNL d   1     -41.533-121.949 -51.795  0.00  0.00     0.118 A 
ATOM      6  C   UNL d   1     -42.749-122.276 -51.081  0.00  0.00     0.021 A 
ATOM      7  C   UNL d   1     -41.145-121.843 -51.075  0.00  0.00     0.021 A 
ATOM      8  C   UNL d   1     -42.335-122.163 -50.366  0.00  0.00     0.002 A 
ATOM      9  C   UNL d   1     -41.538-121.948 -50.363  0.00  0.00     0.002 A 
ENDROOT
BRANCH   1  10
ATOM     10  N   UNL d   1     -41.973-122.072 -53.890  0.00  0.00    -0.133 N 
ATOM     11  C   UNL d   1     -42.495-121.802 -54.426  0.00  0.00     0.125 A 
ATOM     12  C   UNL d   1     -42.379-121.904 -55.232  0.00  0.00     0.142 A 
ATOM     13  O   UNL d   1     -41.715-122.292 -55.515  0.00  0.00    -0.300 OA
ATOM     14  C   UNL d   1     -41.145-122.585 -54.936  0.00  0.00     0.142 A 
ATOM     15  C   UNL d   1     -41.287-122.469 -54.149  0.00  0.00     0.125 A 
ENDBRANCH   1  10
TORSDOF 1
ENDMDL
