MODEL 1
REMARK VINA RESULT:     -10.9      0.000      0.000
REMARK  1 active torsions:
REMARK  status: ('A' for Active; 'I' for Inactive)
REMARK    1  A    between atoms: C_7  and  C_2 
ROOT
ATOM      1  N   UNL d   1      52.976  34.473  54.314  0.00  0.00    -0.147 NA
ATOM      2  C   UNL d   1      52.716  33.864  53.827  0.00  0.00     0.103 A 
ATOM      3  N   UNL d   1      53.646  34.367  54.768  0.00  0.00    -0.137 NA
ATOM      4  C   UNL d   1      53.123  33.145  53.788  0.00  0.00     0.022 A 
ATOM      5  C   UNL d   1      54.057  33.653  54.735  0.00  0.00     0.157 A 
ATOM      6  C   UNL d   1      53.794  33.039  54.242  0.00  0.00     0.031 A 
ATOM      7  S   UNL d   1      54.754  33.543  55.207  0.00  0.00    -0.056 SA
ATOM      8  C   UNL d   1      52.864  32.531  53.299  0.00  0.00     0.002 A 
ATOM      9  C   UNL d   1      54.205  32.320  54.207  0.00  0.00     0.002 A 
ATOM     10  C   UNL d   1      53.270  31.822  53.264  0.00  0.00     0.000 A 
ATOM     11  C   UNL d   1      53.941  31.717  53.718  0.00  0.00     0.000 A 
ENDROOT
BRANCH   2  12
ATOM     12  C   UNL d   1      52.019  33.973  53.355  0.00  0.00     0.019 A 
ATOM     13  C   UNL d   1      52.084  34.307  52.597  0.00  0.00     0.002 A 
ATOM     14  C   UNL d   1      51.409  34.413  52.140  0.00  0.00     0.000 A 
ATOM     15  C   UNL d   1      50.670  34.186  52.440  0.00  0.00     0.000 A 
ATOM     16  C   UNL d   1      50.608  33.855  53.193  0.00  0.00     0.000 A 
ATOM     17  C   UNL d   1      49.982  34.294  51.974  0.00  0.00     0.000 C 
ATOM     18  C   UNL d   1      51.283  33.749  53.651  0.00  0.00     0.002 A 
ENDBRANCH   2  12
TORSDOF 1
ENDMDL
MODEL 2
REMARK VINA RESULT:      -9.8      1.720      2.931
REMARK  1 active torsions:
REMARK  status: ('A' for Active; 'I' for Inactive)
REMARK    1  A    between atoms: C_7  and  C_2 
ROOT
ATOM      1  N   UNL d   1      52.568  33.253  53.005  0.00  0.00    -0.147 NA
ATOM      2  C   UNL d   1      53.006  32.762  53.498  0.00  0.00     0.103 A 
ATOM      3  N   UNL d   1      52.567  34.059  53.138  0.00  0.00    -0.137 NA
ATOM      4  C   UNL d   1      53.445  33.070  54.128  0.00  0.00     0.022 A 
ATOM      5  C   UNL d   1      53.002  34.373  53.764  0.00  0.00     0.157 A 
ATOM      6  C   UNL d   1      53.443  33.876  54.261  0.00  0.00     0.031 A 
ATOM      7  S   UNL d   1      53.001  35.211  53.902  0.00  0.00    -0.056 SA
ATOM      8  C   UNL d   1      53.885  32.578  54.625  0.00  0.00     0.002 A 
ATOM      9  C   UNL d   1      53.882  34.190  54.890  0.00  0.00     0.002 A 
ATOM     10  C   UNL d   1      54.318  32.887  55.246  0.00  0.00     0.000 A 
ATOM     11  C   UNL d   1      54.316  33.694  55.378  0.00  0.00     0.000 A 
ENDROOT
BRANCH   2  12
ATOM     12  C   UNL d   1      53.007  31.924  53.361  0.00  0.00     0.019 A 
ATOM     13  C   UNL d   1      52.323  31.481  53.515  0.00  0.00     0.002 A 
ATOM     14  C   UNL d   1      52.324  30.670  53.381  0.00  0.00     0.000 A 
ATOM     15  C   UNL d   1      53.010  30.302  53.093  0.00  0.00     0.000 A 
ATOM     16  C   UNL d   1      53.689  30.745  52.941  0.00  0.00     0.000 A 
ATOM     17  C   UNL d   1      53.012  29.475  52.957  0.00  0.00     0.000 C 
ATOM     18  C   UNL d   1      53.687  31.556  53.074  0.00  0.00     0.002 A 
ENDBRANCH   2  12
TORSDOF 1
ENDMDL
MODEL 3
REMARK VINA RESULT:      -9.5      1.976      3.578
REMARK  1 active torsions:
REMARK  status: ('A' for Active; 'I' for Inactive)
REMARK    1  A    between atoms: C_7  and  C_2 
ROOT
ATOM      1  N   UNL d   1      54.054  31.141  53.916  0.00  0.00    -0.147 NA
ATOM      2  C   UNL d   1      53.774  31.913  53.901  0.00  0.00     0.103 A 
ATOM      3  N   UNL d   1      53.629  30.551  53.544  0.00  0.00    -0.137 NA
ATOM      4  C   UNL d   1      53.067  32.105  53.516  0.00  0.00     0.022 A 
ATOM      5  C   UNL d   1      52.923  30.734  53.158  0.00  0.00     0.157 A 
ATOM      6  C   UNL d   1      52.642  31.514  53.144  0.00  0.00     0.031 A 
ATOM      7  S   UNL d   1      52.481  30.120  52.772  0.00  0.00    -0.056 SA
ATOM      8  C   UNL d   1      52.783  32.880  53.499  0.00  0.00     0.002 A 
ATOM      9  C   UNL d   1      51.933  31.700  52.756  0.00  0.00     0.002 A 
ATOM     10  C   UNL d   1      52.085  33.064  53.117  0.00  0.00     0.000 A 
ATOM     11  C   UNL d   1      51.659  32.474  52.745  0.00  0.00     0.000 A 
ENDROOT
BRANCH   2  12
ATOM     12  C   UNL d   1      54.216  32.527  54.287  0.00  0.00     0.019 A 
ATOM     13  C   UNL d   1      54.789  32.951  53.862  0.00  0.00     0.002 A 
ATOM     14  C   UNL d   1      55.216  33.545  54.236  0.00  0.00     0.000 A 
ATOM     15  C   UNL d   1      55.071  33.715  55.035  0.00  0.00     0.000 A 
ATOM     16  C   UNL d   1      54.501  33.292  55.456  0.00  0.00     0.000 A 
ATOM     17  C   UNL d   1      55.508  34.320  55.417  0.00  0.00     0.000 C 
ATOM     18  C   UNL d   1      54.074  32.698  55.081  0.00  0.00     0.002 A 
ENDBRANCH   2  12
TORSDOF 1
ENDMDL
