MODEL 1
REMARK VINA RESULT:      71.0      0.000      0.000
REMARK  9 active torsions:
REMARK  status: ('A' for Active; 'I' for Inactive)
REMARK    1  A    between atoms: C_7  and  N_1 
REMARK    2  A    between atoms: C_8  and  C_3 
REMARK    3  A    between atoms: O_9  and  C_6 
REMARK    4  A    between atoms: O_19  and  C_8 
REMARK    5  A    between atoms: C_18  and  O_9 
REMARK    6  A    between atoms: C_10  and  C_18 
REMARK       I    between atoms: N_11  and  C_10 
REMARK    7  A    between atoms: C_14  and  N_11 
REMARK    8  A    between atoms: C_28  and  O_19 
REMARK    9  A    between atoms: O_23  and  C_20 
ROOT
ATOM      1  N   UNL d   1      58.844  49.571  50.361  0.00  0.00    -0.194 N 
ATOM      2  N   UNL d   1      59.261  49.629  51.073  0.00  0.00    -0.155 NA
ATOM      3  C   UNL d   1      60.080  49.586  51.067  0.00  0.00     0.187 A 
ATOM      4  C   UNL d   1      59.252  49.470  49.651  0.00  0.00     0.282 A 
ATOM      5  C   UNL d   1      60.076  49.427  49.652  0.00  0.00     0.089 A 
ATOM      6  C   UNL d   1      60.488  49.485  50.357  0.00  0.00     0.130 A 
ATOM      7  O   UNL d   1      58.837  49.412  48.942  0.00  0.00    -0.265 OA
ENDROOT
BRANCH   6   8
ATOM      8  O   UNL d   1      61.312  49.442  50.359  0.00  0.00    -0.298 OA
BRANCH   8   9
ATOM      9  C   UNL d   1      61.703  48.955  49.826  0.00  0.00     0.185 C 
BRANCH   9  10
ATOM     10  C   UNL d   1      61.754  48.143  49.977  0.00  0.00     0.304 C 
ATOM     11  N   UNL d   1      61.615  47.605  49.370  0.00  0.00    -0.206 NA
ATOM     12  O   UNL d   1      61.942  47.878  50.729  0.00  0.00    -0.263 OA
BRANCH  11  13
ATOM     13  C   UNL d   1      61.666  46.794  49.521  0.00  0.00     0.087 A 
ATOM     14  C   UNL d   1      61.271  46.465  50.151  0.00  0.00     0.043 A 
ATOM     15  C   UNL d   1      61.313  45.664  50.310  0.00  0.00     0.096 A 
ATOM     16  C   UNL d   1      61.768  45.179  49.820  0.00  0.00     0.024 A 
ATOM     17  C   UNL d   1      62.171  45.508  49.179  0.00  0.00     0.004 A 
ATOM     18  C   UNL d   1      62.121  46.310  49.030  0.00  0.00     0.019 A 
BRANCH  15  19
ATOM     19  O   UNL d   1      60.909  45.348  50.948  0.00  0.00    -0.328 OA
ATOM     20  C   UNL d   1      60.883  44.527  51.046  0.00  0.00     0.181 C 
ENDBRANCH  15  19
ENDBRANCH  11  13
ENDBRANCH   9  10
ENDBRANCH   8   9
ENDBRANCH   6   8
BRANCH   3  21
ATOM     21  C   UNL d   1      60.492  49.643  51.772  0.00  0.00     0.322 C 
ATOM     22  O   UNL d   1      61.316  49.696  51.766  0.00  0.00    -0.257 OA
BRANCH  21  23
ATOM     23  O   UNL d   1      60.090  49.649  52.497  0.00  0.00    -0.270 OA
BRANCH  23  24
ATOM     24  C   UNL d   1      60.502  49.703  53.202  0.00  0.00     0.126 C 
ATOM     25  C   UNL d   1      60.096  49.702  53.920  0.00  0.00     0.029 C 
ENDBRANCH  23  24
ENDBRANCH  21  23
ENDBRANCH   3  21
BRANCH   1  26
ATOM     26  C   UNL d   1      58.022  49.614  50.363  0.00  0.00     0.097 A 
ATOM     27  C   UNL d   1      57.608  49.633  51.089  0.00  0.00     0.075 A 
ATOM     28 CL   UNL d   1      58.023  49.608  51.794  0.00  0.00    -0.081 Cl
ATOM     29  C   UNL d   1      56.791  49.676  51.083  0.00  0.00     0.013 A 
ATOM     30  C   UNL d   1      56.372  49.701  50.371  0.00  0.00     0.001 A 
ATOM     31  C   UNL d   1      56.791  49.682  49.652  0.00  0.00     0.002 A 
ATOM     32  C   UNL d   1      57.615  49.639  49.654  0.00  0.00     0.020 A 
ENDBRANCH   1  26
TORSDOF 9
ENDMDL
