MODEL 1
REMARK VINA RESULT:       8.9      0.000      0.000
REMARK  4 active torsions:
REMARK  status: ('A' for Active; 'I' for Inactive)
REMARK       I    between atoms: N_3  and  C_1 
REMARK    1  A    between atoms: C_4  and  C_1 
REMARK    2  A    between atoms: N_2  and  C_4 
REMARK    3  A    between atoms: C_6  and  N_3 
REMARK    4  A    between atoms: O_17  and  C_9 
ROOT
ATOM      1  C   UNL d   1      45.903 -16.724  44.439  0.00  0.00     0.297 C 
ATOM      2  N   UNL d   1      45.564 -16.174  44.955  0.00  0.00    -0.207 NA
ATOM      3  O   UNL d   1      46.227 -16.470  43.726  0.00  0.00    -0.264 OA
ENDROOT
BRANCH   1   4
ATOM      4  C   UNL d   1      45.918 -17.521  44.636  0.00  0.00     0.144 C 
BRANCH   4   5
ATOM      5  N   UNL d   1      46.102 -18.092  44.055  0.00  0.00    -0.299 N 
ATOM      6  C   UNL d   1      45.954 -17.932  43.248  0.00  0.00     0.080 A 
ATOM      7  C   UNL d   1      46.134 -18.493  42.667  0.00  0.00     0.019 A 
ATOM      8  C   UNL d   1      46.467 -19.229  42.887  0.00  0.00     0.003 A 
ATOM      9  C   UNL d   1      46.618 -19.397  43.697  0.00  0.00     0.019 A 
ATOM     10  C   UNL d   1      46.647 -19.789  42.312  0.00  0.00     0.000 C 
ATOM     11  C   UNL d   1      46.433 -18.820  44.284  0.00  0.00     0.080 A 
ENDBRANCH   4   5
ENDBRANCH   1   4
BRANCH   2  12
ATOM     12  C   UNL d   1      45.550 -15.377  44.758  0.00  0.00     0.085 A 
ATOM     13  C   UNL d   1      46.245 -14.955  44.739  0.00  0.00     0.021 A 
ATOM     14  C   UNL d   1      46.234 -14.151  44.541  0.00  0.00     0.026 A 
ATOM     15  C   UNL d   1      45.520 -13.783  44.363  0.00  0.00     0.094 A 
ATOM     16  C   UNL d   1      44.820 -14.213  44.383  0.00  0.00     0.026 A 
ATOM     17  C   UNL d   1      44.831 -15.016  44.582  0.00  0.00     0.021 A 
BRANCH  15  18
ATOM     18  O   UNL d   1      45.501 -12.985  44.166  0.00  0.00    -0.328 OA
ATOM     19  C   UNL d   1      45.162 -12.740  43.457  0.00  0.00     0.181 C 
ENDBRANCH  15  18
ENDBRANCH   2  12
TORSDOF 4
ENDMDL
