MODEL 1
REMARK VINA RESULT:      -4.8      0.000      0.000
REMARK  5 active torsions:
REMARK  status: ('A' for Active; 'I' for Inactive)
REMARK    1  A    between atoms: N_2  and  S_1 
REMARK    2  A    between atoms: C_5  and  S_1 
REMARK    3  A    between atoms: C_3  and  N_2 
REMARK    4  A    between atoms: C_4  and  C_3 
REMARK       I    between atoms: N_8  and  C_4 
REMARK    5  A    between atoms: C_13  and  N_8 
ROOT
ATOM      1  N   UNL d   1      57.208  -0.020  31.998  0.00  0.00    -0.223 N 
ATOM      2  C   UNL d   1      57.843   0.312  32.407  0.00  0.00     0.112 C 
ENDROOT
BRANCH   1   3
ATOM      3  S   UNL d   1      56.685  -0.516  32.391  0.00  0.00     0.272 S 
ATOM      4  O   UNL d   1      56.644  -1.316  32.192  0.00  0.00    -0.200 OA
ATOM      5  O   UNL d   1      56.872   0.285  32.439  0.00  0.00    -0.200 OA
BRANCH   3   6
ATOM      6  C   UNL d   1      56.199  -0.217  32.984  0.00  0.00     0.104 A 
ATOM      7  C   UNL d   1      56.531   0.111  33.667  0.00  0.00     0.013 A 
ATOM      8  C   UNL d   1      56.035   0.409  34.258  0.00  0.00     0.001 A 
ATOM      9  C   UNL d   1      55.216   0.380  34.173  0.00  0.00     0.000 A 
ATOM     10  C   UNL d   1      54.882   0.054  33.495  0.00  0.00     0.001 A 
ATOM     11  C   UNL d   1      54.728   0.682  34.774  0.00  0.00     0.000 C 
ATOM     12  C   UNL d   1      55.370  -0.246  32.898  0.00  0.00     0.013 A 
ENDBRANCH   3   6
ENDBRANCH   1   3
BRANCH   1  13
ATOM     13  C   UNL d   1      57.101   0.146  31.199  0.00  0.00     0.154 C 
BRANCH  13  14
ATOM     14  C   UNL d   1      57.748   0.192  30.688  0.00  0.00     0.298 C 
ATOM     15  N   UNL d   1      57.753  -0.228  29.979  0.00  0.00    -0.207 NA
ATOM     16  O   UNL d   1      58.392   0.665  30.893  0.00  0.00    -0.264 OA
BRANCH  15  17
ATOM     17  C   UNL d   1      58.403  -0.175  29.477  0.00  0.00     0.088 A 
ATOM     18  C   UNL d   1      58.494   0.488  29.002  0.00  0.00     0.040 A 
ATOM     19  C   UNL d   1      59.145   0.541  28.499  0.00  0.00     0.101 A 
ATOM     20  N   UNL d   1      59.697  -0.070  28.479  0.00  0.00    -0.242 NA
ATOM     21  C   UNL d   1      59.599  -0.732  28.959  0.00  0.00     0.101 A 
ATOM     22  C   UNL d   1      58.949  -0.782  29.458  0.00  0.00     0.040 A 
ENDBRANCH  15  17
ENDBRANCH  13  14
ENDBRANCH   1  13
TORSDOF 5
ENDMDL
MODEL 2
REMARK VINA RESULT:      -4.8      1.206      4.915
REMARK  5 active torsions:
REMARK  status: ('A' for Active; 'I' for Inactive)
REMARK    1  A    between atoms: N_2  and  S_1 
REMARK    2  A    between atoms: C_5  and  S_1 
REMARK    3  A    between atoms: C_3  and  N_2 
REMARK    4  A    between atoms: C_4  and  C_3 
REMARK       I    between atoms: N_8  and  C_4 
REMARK    5  A    between atoms: C_13  and  N_8 
ROOT
ATOM      1  N   UNL d   1      57.952   0.110  30.662  0.00  0.00    -0.223 N 
ATOM      2  C   UNL d   1      58.378   0.678  31.081  0.00  0.00     0.112 C 
ENDROOT
BRANCH   1   3
ATOM      3  S   UNL d   1      58.063   0.031  29.853  0.00  0.00     0.272 S 
ATOM      4  O   UNL d   1      57.503   0.332  29.326  0.00  0.00    -0.200 OA
ATOM      5  O   UNL d   1      58.490  -0.193  30.521  0.00  0.00    -0.200 OA
BRANCH   3   6
ATOM      6  C   UNL d   1      58.733  -0.349  29.562  0.00  0.00     0.104 A 
ATOM      7  C   UNL d   1      58.709  -1.157  29.387  0.00  0.00     0.013 A 
ATOM      8  C   UNL d   1      59.387  -1.531  29.095  0.00  0.00     0.001 A 
ATOM      9  C   UNL d   1      60.083  -1.106  28.978  0.00  0.00     0.000 A 
ATOM     10  C   UNL d   1      60.110  -0.302  29.152  0.00  0.00     0.001 A 
ATOM     11  C   UNL d   1      60.758  -1.492  28.685  0.00  0.00     0.000 C 
ATOM     12  C   UNL d   1      59.437   0.080  29.444  0.00  0.00     0.013 A 
ENDBRANCH   3   6
ENDBRANCH   1   3
BRANCH   1  13
ATOM     13  C   UNL d   1      57.417  -0.377  31.056  0.00  0.00     0.154 C 
BRANCH  13  14
ATOM     14  C   UNL d   1      56.970  -0.088  31.686  0.00  0.00     0.298 C 
ATOM     15  N   UNL d   1      56.819  -0.559  32.345  0.00  0.00    -0.207 NA
ATOM     16  O   UNL d   1      56.672   0.681  31.651  0.00  0.00    -0.264 OA
BRANCH  15  17
ATOM     17  C   UNL d   1      56.371  -0.260  32.968  0.00  0.00     0.088 A 
ATOM     18  C   UNL d   1      56.735   0.193  33.547  0.00  0.00     0.040 A 
ATOM     19  C   UNL d   1      56.287   0.492  34.170  0.00  0.00     0.101 A 
ATOM     20  N   UNL d   1      55.480   0.333  34.206  0.00  0.00    -0.242 NA
ATOM     21  C   UNL d   1      55.121  -0.122  33.621  0.00  0.00     0.101 A 
ATOM     22  C   UNL d   1      55.571  -0.419  33.001  0.00  0.00     0.040 A 
ENDBRANCH  15  17
ENDBRANCH  13  14
ENDBRANCH   1  13
TORSDOF 5
ENDMDL
MODEL 3
REMARK VINA RESULT:      -1.9      1.247      1.703
REMARK  5 active torsions:
REMARK  status: ('A' for Active; 'I' for Inactive)
REMARK    1  A    between atoms: N_2  and  S_1 
REMARK    2  A    between atoms: C_5  and  S_1 
REMARK    3  A    between atoms: C_3  and  N_2 
REMARK    4  A    between atoms: C_4  and  C_3 
REMARK       I    between atoms: N_8  and  C_4 
REMARK    5  A    between atoms: C_13  and  N_8 
ROOT
ATOM      1  N   UNL d   1      57.830   0.173  30.956  0.00  0.00    -0.223 N 
ATOM      2  C   UNL d   1      58.300   0.061  31.626  0.00  0.00     0.112 C 
ENDROOT
BRANCH   1   3
ATOM      3  S   UNL d   1      57.018   0.262  31.037  0.00  0.00     0.272 S 
ATOM      4  O   UNL d   1      56.564   0.524  30.400  0.00  0.00    -0.200 OA
ATOM      5  O   UNL d   1      57.628   0.021  31.536  0.00  0.00    -0.200 OA
BRANCH   3   6
ATOM      6  C   UNL d   1      56.653   0.090  31.755  0.00  0.00     0.104 A 
ATOM      7  C   UNL d   1      56.562   0.681  32.326  0.00  0.00     0.013 A 
ATOM      8  C   UNL d   1      56.194   0.501  33.045  0.00  0.00     0.001 A 
ATOM      9  C   UNL d   1      55.918  -0.261  33.195  0.00  0.00     0.000 A 
ATOM     10  C   UNL d   1      56.007  -0.852  32.628  0.00  0.00     0.001 A 
ATOM     11  C   UNL d   1      55.550  -0.432  33.920  0.00  0.00     0.000 C 
ATOM     12  C   UNL d   1      56.374  -0.680  31.907  0.00  0.00     0.013 A 
ENDBRANCH   3   6
ENDBRANCH   1   3
BRANCH   1  13
ATOM     13  C   UNL d   1      58.176   0.195  30.209  0.00  0.00     0.154 C 
BRANCH  13  14
ATOM     14  C   UNL d   1      58.679  -0.410  29.960  0.00  0.00     0.298 C 
ATOM     15  N   UNL d   1      58.721  -0.620  29.164  0.00  0.00    -0.207 NA
ATOM     16  O   UNL d   1      59.143  -0.805  30.517  0.00  0.00    -0.264 OA
BRANCH  15  17
ATOM     17  C   UNL d   1      59.226  -1.225  28.927  0.00  0.00     0.088 A 
ATOM     18  C   UNL d   1      58.915  -1.958  28.728  0.00  0.00     0.040 A 
ATOM     19  C   UNL d   1      59.421  -2.563  28.491  0.00  0.00     0.101 A 
ATOM     20  N   UNL d   1      60.232  -2.428  28.455  0.00  0.00    -0.242 NA
ATOM     21  C   UNL d   1      60.537  -1.689  28.656  0.00  0.00     0.101 A 
ATOM     22  C   UNL d   1      60.031  -1.088  28.893  0.00  0.00     0.040 A 
ENDBRANCH  15  17
ENDBRANCH  13  14
ENDBRANCH   1  13
TORSDOF 5
ENDMDL
