MODEL 1
REMARK VINA RESULT:      22.1      0.000      0.000
REMARK  5 active torsions:
REMARK  status: ('A' for Active; 'I' for Inactive)
REMARK    1  A    between atoms: C_8  and  C_1 
REMARK    2  A    between atoms: C_6  and  O_10 
REMARK       I    between atoms: N_7  and  C_6 
REMARK    3  A    between atoms: C_15  and  C_8 
REMARK    4  A    between atoms: O_10  and  C_12 
REMARK    5  A    between atoms: C_27  and  C_18 
ROOT
ATOM      1  C   UNL d   1      46.223 -16.932  44.658  0.00  0.00     0.139 A 
ATOM      2  C   UNL d   1      45.359 -15.917  44.817  0.00  0.00     0.064 A 
ATOM      3  C   UNL d   1      45.435 -16.738  44.810  0.00  0.00     0.220 A 
ATOM      4  C   UNL d   1      46.099 -15.592  44.668  0.00  0.00     0.105 A 
ATOM      5  O   UNL d   1      46.644 -16.218  44.568  0.00  0.00    -0.304 OA
ATOM      6  C   UNL d   1      46.193 -14.778  44.641  0.00  0.00     0.050 A 
ATOM      7  C   UNL d   1      44.707 -15.429  44.939  0.00  0.00     0.007 A 
ATOM      8  C   UNL d   1      45.549 -14.295  44.762  0.00  0.00     0.107 A 
ATOM      9  O   UNL d   1      44.823 -17.292  44.936  0.00  0.00    -0.284 OA
ATOM     10  C   UNL d   1      44.805 -14.611  44.911  0.00  0.00     0.025 A 
ENDROOT
BRANCH   1  11
ATOM     11  C   UNL d   1      46.545 -17.691  44.603  0.00  0.00     0.028 C 
BRANCH  11  12
ATOM     12  C   UNL d   1      46.441 -18.134  43.916  0.00  0.00     0.002 A 
ATOM     13  C   UNL d   1      46.559 -17.785  43.181  0.00  0.00     0.000 A 
ATOM     14  C   UNL d   1      46.457 -18.220  42.484  0.00  0.00     0.000 A 
ATOM     15  C   UNL d   1      46.234 -19.017  42.535  0.00  0.00     0.000 A 
ATOM     16  C   UNL d   1      46.115 -19.369  43.277  0.00  0.00     0.000 A 
ATOM     17  C   UNL d   1      46.220 -18.923  43.966  0.00  0.00     0.000 A 
BRANCH  15  18
ATOM     18  C   UNL d   1      46.130 -19.459  41.843  0.00  0.00     0.000 C 
ATOM     19  C   UNL d   1      46.644 -20.076  41.666  0.00  0.00     0.000 C 
ENDBRANCH  15  18
ENDBRANCH  11  12
ENDBRANCH   1  11
BRANCH   8  20
ATOM     20  O   UNL d   1      45.640 -13.472  44.736  0.00  0.00    -0.259 OA
BRANCH  20  21
ATOM     21  C   UNL d   1      45.853 -13.092  44.028  0.00  0.00     0.378 C 
ATOM     22  N   UNL d   1      45.277 -12.776  43.537  0.00  0.00    -0.247 N 
ATOM     23  C   UNL d   1      44.471 -12.835  43.747  0.00  0.00     0.112 A 
ATOM     24  C   UNL d   1      45.479 -12.400  42.839  0.00  0.00     0.112 A 
ATOM     25  C   UNL d   1      43.885 -12.519  43.258  0.00  0.00     0.142 A 
ATOM     26  O   UNL d   1      44.107 -12.138  42.549  0.00  0.00    -0.300 OA
ATOM     27  C   UNL d   1      44.901 -12.080  42.342  0.00  0.00     0.142 A 
ATOM     28  O   UNL d   1      46.647 -13.034  43.821  0.00  0.00    -0.237 OA
ENDBRANCH  20  21
ENDBRANCH   8  20
TORSDOF 5
ENDMDL
