MODEL 1
REMARK VINA RESULT:      14.6      0.000      0.000
REMARK  3 active torsions:
REMARK  status: ('A' for Active; 'I' for Inactive)
REMARK    1  A    between atoms: C_12  and  C_4 
REMARK       I    between atoms: C_6  and  N_11 
REMARK    2  A    between atoms: C_7  and  C_6 
REMARK    3  A    between atoms: N_11  and  C_18 
ROOT
ATOM      1  C   UNL d   1      45.909 -15.811  44.410  0.00  0.00     0.019 A 
ATOM      2  C   UNL d   1      46.514 -15.276  44.241  0.00  0.00     0.003 A 
ATOM      3  C   UNL d   1      45.218 -15.551  44.758  0.00  0.00     0.003 A 
ATOM      4  C   UNL d   1      45.730 -14.216  44.773  0.00  0.00     0.085 A 
ATOM      5  C   UNL d   1      45.128 -14.752  44.940  0.00  0.00     0.019 A 
ATOM      6  C   UNL d   1      46.425 -14.486  44.421  0.00  0.00     0.019 A 
ENDROOT
BRANCH   1   7
ATOM      7  C   UNL d   1      45.997 -16.616  44.227  0.00  0.00     0.101 A 
ATOM      8  N   UNL d   1      46.068 -16.897  43.469  0.00  0.00    -0.221 NA
ATOM      9  C   UNL d   1      46.145 -17.716  43.501  0.00  0.00     0.179 A 
ATOM     10  N   UNL d   1      46.121 -17.948  44.285  0.00  0.00    -0.282 N 
ATOM     11  S   UNL d   1      46.238 -18.394  43.037  0.00  0.00    -0.048 SA
ATOM     12  C   UNL d   1      46.028 -17.261  44.741  0.00  0.00     0.101 A 
ATOM     13  C   UNL d   1      46.198 -18.767  44.318  0.00  0.00     0.089 A 
ATOM     14  C   UNL d   1      46.270 -19.039  43.541  0.00  0.00     0.057 A 
ENDBRANCH   1   7
BRANCH   4  15
ATOM     15  N   UNL d   1      45.642 -13.412  44.955  0.00  0.00    -0.208 NA
ATOM     16  C   UNL d   1      45.422 -12.876  44.364  0.00  0.00     0.279 C 
ATOM     17  O   UNL d   1      45.334 -12.080  44.541  0.00  0.00    -0.265 OA
BRANCH  16  18
ATOM     18  C   UNL d   1      45.292 -13.148  43.598  0.00  0.00     0.058 A 
ATOM     19  C   UNL d   1      44.976 -12.636  43.030  0.00  0.00     0.005 A 
ATOM     20  C   UNL d   1      45.160 -13.418  42.825  0.00  0.00     0.005 A 
ENDBRANCH  16  18
ENDBRANCH   4  15
TORSDOF 3
ENDMDL
