MODEL 1
REMARK VINA RESULT:      72.4      0.000      0.000
REMARK  6 active torsions:
REMARK  status: ('A' for Active; 'I' for Inactive)
REMARK    1  A    between atoms: C_5  and  C_4 
REMARK    2  A    between atoms: C_6  and  C_5 
REMARK       I    between atoms: N_9  and  C_6 
REMARK    3  A    between atoms: C_10  and  N_9 
REMARK    4  A    between atoms: O_14  and  C_13 
REMARK    5  A    between atoms: C_19  and  O_14 
REMARK    6  A    between atoms: C_20  and  C_19 
ROOT
ATOM      1  C   UNL d   1      60.059  49.291  50.700  0.00  0.00     0.281 C 
ATOM      2  N   UNL d   1      60.407  48.640  51.028  0.00  0.00    -0.206 NA
ATOM      3  O   UNL d   1      60.264  49.521  49.945  0.00  0.00    -0.265 OA
ENDROOT
BRANCH   1   4
ATOM      4  C   UNL d   1      59.509  49.707  51.130  0.00  0.00     0.086 C 
BRANCH   4   5
ATOM      5  C   UNL d   1      58.712  49.705  50.909  0.00  0.00     0.144 A 
ATOM      6  C   UNL d   1      58.120  49.702  51.485  0.00  0.00     0.297 A 
ATOM      7  N   UNL d   1      57.322  49.700  51.271  0.00  0.00    -0.205 NA
ATOM      8  O   UNL d   1      58.315  49.700  52.292  0.00  0.00    -0.264 OA
ATOM      9  C   UNL d   1      57.123  49.702  50.459  0.00  0.00     0.102 A 
ATOM     10  C   UNL d   1      57.715  49.705  49.883  0.00  0.00     0.099 A 
ATOM     11  C   UNL d   1      56.325  49.700  50.246  0.00  0.00     0.021 A 
ATOM     12  N   UNL d   1      58.516  49.707  50.110  0.00  0.00    -0.239 NA
ATOM     13  C   UNL d   1      57.519  49.706  49.084  0.00  0.00     0.021 A 
ATOM     14  C   UNL d   1      56.726  49.705  48.867  0.00  0.00     0.002 A 
ATOM     15  C   UNL d   1      56.134  49.701  49.443  0.00  0.00     0.002 A 
ENDBRANCH   4   5
ENDBRANCH   1   4
BRANCH   2  16
ATOM     16  C   UNL d   1      61.052  48.085  50.627  0.00  0.00     0.107 A 
ATOM     17  C   UNL d   1      60.995  47.265  50.501  0.00  0.00     0.118 A 
ATOM     18  C   UNL d   1      61.638  46.903  50.137  0.00  0.00     0.026 A 
ATOM     19  C   UNL d   1      62.332  47.346  49.899  0.00  0.00     0.002 A 
ATOM     20  C   UNL d   1      62.349  48.129  50.037  0.00  0.00     0.002 A 
ATOM     21  C   UNL d   1      61.719  48.511  50.398  0.00  0.00     0.021 A 
BRANCH  17  22
ATOM     22  O   UNL d   1      60.327  46.814  50.725  0.00  0.00    -0.304 OA
BRANCH  22  23
ATOM     23  C   UNL d   1      60.421  46.155  51.224  0.00  0.00     0.123 C 
BRANCH  23  24
ATOM     24  C   UNL d   1      59.795  45.896  51.742  0.00  0.00     0.027 C 
ATOM     25  C   UNL d   1      59.030  45.691  51.458  0.00  0.00     0.002 C 
ENDBRANCH  23  24
ENDBRANCH  22  23
ENDBRANCH  17  22
ENDBRANCH   2  16
TORSDOF 6
ENDMDL
MODEL 2
REMARK VINA RESULT:      74.2      1.010      1.405
REMARK  6 active torsions:
REMARK  status: ('A' for Active; 'I' for Inactive)
REMARK    1  A    between atoms: C_5  and  C_4 
REMARK    2  A    between atoms: C_6  and  C_5 
REMARK       I    between atoms: N_9  and  C_6 
REMARK    3  A    between atoms: C_10  and  N_9 
REMARK    4  A    between atoms: O_14  and  C_13 
REMARK    5  A    between atoms: C_19  and  O_14 
REMARK    6  A    between atoms: C_20  and  C_19 
ROOT
ATOM      1  C   UNL d   1      61.100  48.638  50.521  0.00  0.00     0.281 C 
ATOM      2  N   UNL d   1      61.420  47.951  50.802  0.00  0.00    -0.206 NA
ATOM      3  O   UNL d   1      61.047  48.758  49.717  0.00  0.00    -0.265 OA
ENDROOT
BRANCH   1   4
ATOM      4  C   UNL d   1      60.837  49.198  51.047  0.00  0.00     0.086 C 
BRANCH   4   5
ATOM      5  C   UNL d   1      60.027  49.324  51.158  0.00  0.00     0.144 A 
ATOM      6  C   UNL d   1      59.727  49.463  51.915  0.00  0.00     0.297 A 
ATOM      7  N   UNL d   1      58.918  49.590  52.032  0.00  0.00    -0.205 NA
ATOM      8  O   UNL d   1      60.231  49.480  52.573  0.00  0.00    -0.264 OA
ATOM      9  C   UNL d   1      58.408  49.574  51.371  0.00  0.00     0.102 A 
ATOM     10  C   UNL d   1      58.708  49.434  50.614  0.00  0.00     0.099 A 
ATOM     11  C   UNL d   1      57.600  49.700  51.489  0.00  0.00     0.021 A 
ATOM     12  N   UNL d   1      59.524  49.308  50.506  0.00  0.00    -0.239 NA
ATOM     13  C   UNL d   1      58.206  49.418  49.963  0.00  0.00     0.021 A 
ATOM     14  C   UNL d   1      57.401  49.544  50.075  0.00  0.00     0.002 A 
ATOM     15  C   UNL d   1      57.100  49.683  50.832  0.00  0.00     0.002 A 
ENDBRANCH   4   5
ENDBRANCH   1   4
BRANCH   2  16
ATOM     16  C   UNL d   1      61.756  47.237  50.291  0.00  0.00     0.107 A 
ATOM     17  C   UNL d   1      61.571  46.431  50.379  0.00  0.00     0.118 A 
ATOM     18  C   UNL d   1      61.940  45.909  49.860  0.00  0.00     0.026 A 
ATOM     19  C   UNL d   1      62.487  46.180  49.259  0.00  0.00     0.002 A 
ATOM     20  C   UNL d   1      62.639  46.959  49.206  0.00  0.00     0.002 A 
ATOM     21  C   UNL d   1      62.282  47.497  49.713  0.00  0.00     0.021 A 
BRANCH  17  22
ATOM     22  O   UNL d   1      61.039  46.145  50.958  0.00  0.00    -0.304 OA
BRANCH  22  23
ATOM     23  C   UNL d   1      60.792  45.350  50.938  0.00  0.00     0.123 C 
BRANCH  23  24
ATOM     24  C   UNL d   1      60.358  45.003  51.584  0.00  0.00     0.027 C 
ATOM     25  C   UNL d   1      60.399  44.182  51.765  0.00  0.00     0.002 C 
ENDBRANCH  23  24
ENDBRANCH  22  23
ENDBRANCH  17  22
ENDBRANCH   2  16
TORSDOF 6
ENDMDL
