MODEL 1
REMARK VINA RESULT:      10.3      0.000      0.000
REMARK  5 active torsions:
REMARK  status: ('A' for Active; 'I' for Inactive)
REMARK    1  A    between atoms: C_4  and  S_1 
REMARK    2  A    between atoms: N_6  and  S_1 
REMARK    3  A    between atoms: C_2  and  C_14 
REMARK    4  A    between atoms: C_7  and  C_16 
REMARK       I    between atoms: N_11  and  C_7 
REMARK    5  A    between atoms: C_26  and  N_11 
ROOT
ATOM      1  C   UNL d   1      56.066   0.050  32.765  0.00  0.00     0.279 C 
ATOM      2  N   UNL d   1      56.021   0.021  31.945  0.00  0.00    -0.208 NA
ATOM      3  O   UNL d   1      56.794  -0.004  33.140  0.00  0.00    -0.265 OA
ENDROOT
BRANCH   1   4
ATOM      4  C   UNL d   1      55.377   0.133  33.211  0.00  0.00     0.061 A 
ATOM      5  C   UNL d   1      54.630   0.052  32.847  0.00  0.00     0.025 A 
ATOM      6  C   UNL d   1      53.940   0.136  33.294  0.00  0.00     0.092 A 
ATOM      7  N   UNL d   1      53.989   0.301  34.104  0.00  0.00    -0.229 N 
ATOM      8  C   UNL d   1      54.730   0.381  34.463  0.00  0.00     0.092 A 
ATOM      9  C   UNL d   1      55.422   0.299  34.025  0.00  0.00     0.025 A 
BRANCH   7  10
ATOM     10  S   UNL d   1      53.300   0.385  34.556  0.00  0.00     0.277 S 
ATOM     11  O   UNL d   1      52.866   0.325  33.863  0.00  0.00    -0.199 OA
ATOM     12  O   UNL d   1      53.745   0.446  35.252  0.00  0.00    -0.199 OA
BRANCH  10  13
ATOM     13  C   UNL d   1      52.599   0.466  34.968  0.00  0.00     0.133 A 
ATOM     14  S   UNL d   1      52.515   0.662  35.769  0.00  0.00    -0.074 SA
ATOM     15  C   UNL d   1      51.716   0.682  35.948  0.00  0.00     0.036 A 
ATOM     16  C   UNL d   1      51.291   0.500  35.263  0.00  0.00     0.008 A 
ATOM     17  C   UNL d   1      51.836   0.367  34.659  0.00  0.00     0.020 A 
ENDBRANCH  10  13
ENDBRANCH   7  10
ENDBRANCH   1   4
BRANCH   2  18
ATOM     18  C   UNL d   1      56.707  -0.063  31.495  0.00  0.00     0.085 A 
ATOM     19  C   UNL d   1      57.040   0.604  31.130  0.00  0.00     0.019 A 
ATOM     20  C   UNL d   1      57.724   0.504  30.686  0.00  0.00     0.004 A 
ATOM     21  C   UNL d   1      58.057  -0.234  30.612  0.00  0.00     0.024 A 
ATOM     22  C   UNL d   1      57.719  -0.882  30.976  0.00  0.00     0.004 A 
ATOM     23  C   UNL d   1      57.051  -0.799  31.414  0.00  0.00     0.019 A 
BRANCH  21  24
ATOM     24  C   UNL d   1      58.743  -0.318  30.163  0.00  0.00     0.111 A 
ATOM     25  N   UNL d   1      59.256   0.297  29.933  0.00  0.00    -0.239 NA
ATOM     26  C   UNL d   1      59.875  -0.033  29.488  0.00  0.00     0.088 A 
ATOM     27  C   UNL d   1      60.531   0.301  29.123  0.00  0.00     0.020 A 
ATOM     28  C   UNL d   1      59.743  -0.845  29.444  0.00  0.00     0.049 A 
ATOM     29  C   UNL d   1      61.061  -0.181  28.710  0.00  0.00     0.002 A 
ATOM     30  C   UNL d   1      60.932  -0.994  28.665  0.00  0.00     0.001 A 
ATOM     31  C   UNL d   1      60.274  -1.332  29.030  0.00  0.00     0.008 A 
ATOM     32  S   UNL d   1      59.046  -1.038  29.857  0.00  0.00    -0.066 SA
ENDBRANCH  21  24
ENDBRANCH   2  18
TORSDOF 5
ENDMDL
