MODEL 1
REMARK VINA RESULT:      -5.9      0.000      0.000
REMARK  7 active torsions:
REMARK  status: ('A' for Active; 'I' for Inactive)
REMARK    1  A    between atoms: S_9  and  C_2 
REMARK    2  A    between atoms: C_6  and  C_8 
REMARK       I    between atoms: N_7  and  C_6 
REMARK    3  A    between atoms: C_11  and  N_7 
REMARK    4  A    between atoms: C_8  and  C_12 
REMARK    5  A    between atoms: C_12  and  S_9 
REMARK    6  A    between atoms: O_18  and  C_13 
REMARK    7  A    between atoms: C_20  and  O_18 
ROOT
ATOM      1  C   UNL d   1     -48.049  15.182  22.431  0.00  0.00     0.280 C 
ATOM      2  N   UNL d   1     -48.861  15.279  22.326  0.00  0.00    -0.208 NA
ATOM      3  O   UNL d   1     -47.529  15.791  22.217  0.00  0.00    -0.265 OA
ENDROOT
BRANCH   1   4
ATOM      4  C   UNL d   1     -47.753  14.479  22.748  0.00  0.00     0.070 C 
BRANCH   4   5
ATOM      5  C   UNL d   1     -46.973  14.254  22.599  0.00  0.00     0.042 C 
BRANCH   5   6
ATOM      6  S   UNL d   1     -46.572  13.754  23.135  0.00  0.00    -0.059 SA
BRANCH   6   7
ATOM      7  C   UNL d   1     -45.933  13.301  22.877  0.00  0.00     0.164 A 
ATOM      8  S   UNL d   1     -45.383  13.410  22.272  0.00  0.00    -0.039 SA
ATOM      9  C   UNL d   1     -44.867  12.773  22.273  0.00  0.00     0.134 A 
ATOM     10  N   UNL d   1     -45.089  12.255  22.879  0.00  0.00    -0.140 NA
ATOM     11  C   UNL d   1     -44.226  12.663  21.749  0.00  0.00     0.030 C 
ATOM     12  N   UNL d   1     -45.755  12.589  23.254  0.00  0.00    -0.134 NA
ENDBRANCH   6   7
ENDBRANCH   5   6
ENDBRANCH   4   5
ENDBRANCH   1   4
BRANCH   2  13
ATOM     13  C   UNL d   1     -49.390  14.667  22.540  0.00  0.00     0.085 A 
ATOM     14  C   UNL d   1     -49.709  14.179  21.955  0.00  0.00     0.021 A 
ATOM     15  C   UNL d   1     -50.230  13.573  22.159  0.00  0.00     0.026 A 
ATOM     16  C   UNL d   1     -50.433  13.457  22.952  0.00  0.00     0.100 A 
ATOM     17  C   UNL d   1     -50.114  13.945  23.537  0.00  0.00     0.026 A 
ATOM     18  C   UNL d   1     -49.592  14.551  23.331  0.00  0.00     0.021 A 
BRANCH  16  19
ATOM     19  O   UNL d   1     -50.965  12.838  23.157  0.00  0.00    -0.305 OA
BRANCH  19  20
ATOM     20  C   UNL d   1     -50.704  12.053  23.169  0.00  0.00     0.123 C 
ATOM     21  C   UNL d   1     -51.041  11.517  23.698  0.00  0.00     0.029 C 
ENDBRANCH  19  20
ENDBRANCH  16  19
ENDBRANCH   2  13
TORSDOF 7
ENDMDL
MODEL 2
REMARK VINA RESULT:      -5.1      8.497      9.709
REMARK  7 active torsions:
REMARK  status: ('A' for Active; 'I' for Inactive)
REMARK    1  A    between atoms: S_9  and  C_2 
REMARK    2  A    between atoms: C_6  and  C_8 
REMARK       I    between atoms: N_7  and  C_6 
REMARK    3  A    between atoms: C_11  and  N_7 
REMARK    4  A    between atoms: C_8  and  C_12 
REMARK    5  A    between atoms: C_12  and  S_9 
REMARK    6  A    between atoms: O_18  and  C_13 
REMARK    7  A    between atoms: C_20  and  O_18 
ROOT
ATOM      1  C   UNL d   1     -40.595  15.340  20.156  0.00  0.00     0.280 C 
ATOM      2  N   UNL d   1     -40.893  15.512  19.406  0.00  0.00    -0.208 NA
ATOM      3  O   UNL d   1     -41.004  15.592  20.832  0.00  0.00    -0.265 OA
ENDROOT
BRANCH   1   4
ATOM      4  C   UNL d   1     -39.890  14.916  20.235  0.00  0.00     0.070 C 
BRANCH   4   5
ATOM      5  C   UNL d   1     -39.660  14.629  20.973  0.00  0.00     0.042 C 
BRANCH   5   6
ATOM      6  S   UNL d   1     -38.855  14.466  21.127  0.00  0.00    -0.059 SA
BRANCH   6   7
ATOM      7  C   UNL d   1     -38.648  13.946  21.733  0.00  0.00     0.164 A 
ATOM      8  S   UNL d   1     -38.702  14.001  22.554  0.00  0.00    -0.039 SA
ATOM      9  C   UNL d   1     -38.408  13.309  22.880  0.00  0.00     0.134 A 
ATOM     10  N   UNL d   1     -38.164  12.811  22.265  0.00  0.00    -0.140 NA
ATOM     11  C   UNL d   1     -38.361  13.135  23.696  0.00  0.00     0.030 C 
ATOM     12  N   UNL d   1     -38.316  13.213  21.551  0.00  0.00    -0.134 NA
ENDBRANCH   6   7
ENDBRANCH   5   6
ENDBRANCH   4   5
ENDBRANCH   1   4
BRANCH   2  13
ATOM     13  C   UNL d   1     -40.484  15.259  18.722  0.00  0.00     0.085 A 
ATOM     14  C   UNL d   1     -39.938  15.765  18.362  0.00  0.00     0.021 A 
ATOM     15  C   UNL d   1     -39.532  15.521  17.687  0.00  0.00     0.026 A 
ATOM     16  C   UNL d   1     -39.671  14.771  17.372  0.00  0.00     0.100 A 
ATOM     17  C   UNL d   1     -40.217  14.265  17.732  0.00  0.00     0.026 A 
ATOM     18  C   UNL d   1     -40.624  14.510  18.408  0.00  0.00     0.021 A 
BRANCH  16  19
ATOM     19  O   UNL d   1     -39.254  14.526  16.683  0.00  0.00    -0.305 OA
BRANCH  19  20
ATOM     20  C   UNL d   1     -38.710  13.905  16.726  0.00  0.00     0.123 C 
ATOM     21  C   UNL d   1     -38.264  13.704  16.061  0.00  0.00     0.029 C 
ENDBRANCH  19  20
ENDBRANCH  16  19
ENDBRANCH   2  13
TORSDOF 7
ENDMDL
MODEL 3
REMARK VINA RESULT:      -5.1      2.222      4.905
REMARK  7 active torsions:
REMARK  status: ('A' for Active; 'I' for Inactive)
REMARK    1  A    between atoms: S_9  and  C_2 
REMARK    2  A    between atoms: C_6  and  C_8 
REMARK       I    between atoms: N_7  and  C_6 
REMARK    3  A    between atoms: C_11  and  N_7 
REMARK    4  A    between atoms: C_8  and  C_12 
REMARK    5  A    between atoms: C_12  and  S_9 
REMARK    6  A    between atoms: O_18  and  C_13 
REMARK    7  A    between atoms: C_20  and  O_18 
ROOT
ATOM      1  C   UNL d   1     -49.036  11.479  23.317  0.00  0.00     0.280 C 
ATOM      2  N   UNL d   1     -48.331  11.277  23.697  0.00  0.00    -0.208 NA
ATOM      3  O   UNL d   1     -49.742  11.099  23.527  0.00  0.00    -0.265 OA
ENDROOT
BRANCH   1   4
ATOM      4  C   UNL d   1     -49.038  12.058  22.729  0.00  0.00     0.070 C 
BRANCH   4   5
ATOM      5  C   UNL d   1     -49.739  12.447  22.533  0.00  0.00     0.042 C 
BRANCH   5   6
ATOM      6  S   UNL d   1     -49.739  13.042  21.947  0.00  0.00    -0.059 SA
BRANCH   6   7
ATOM      7  C   UNL d   1     -50.170  13.736  22.063  0.00  0.00     0.164 A 
ATOM      8  S   UNL d   1     -50.178  14.289  22.675  0.00  0.00    -0.039 SA
ATOM      9  C   UNL d   1     -50.723  14.872  22.489  0.00  0.00     0.134 A 
ATOM     10  N   UNL d   1     -51.064  14.691  21.757  0.00  0.00    -0.140 NA
ATOM     11  C   UNL d   1     -50.905  15.538  22.959  0.00  0.00     0.030 C 
ATOM     12  N   UNL d   1     -50.715  13.980  21.494  0.00  0.00    -0.134 NA
ENDBRANCH   6   7
ENDBRANCH   5   6
ENDBRANCH   4   5
ENDBRANCH   1   4
BRANCH   2  13
ATOM     13  C   UNL d   1     -47.616  11.658  23.488  0.00  0.00     0.085 A 
ATOM     14  C   UNL d   1     -47.497  12.448  23.698  0.00  0.00     0.021 A 
ATOM     15  C   UNL d   1     -46.795  12.829  23.495  0.00  0.00     0.026 A 
ATOM     16  C   UNL d   1     -46.210  12.418  23.081  0.00  0.00     0.100 A 
ATOM     17  C   UNL d   1     -46.328  11.628  22.871  0.00  0.00     0.026 A 
ATOM     18  C   UNL d   1     -47.033  11.247  23.075  0.00  0.00     0.021 A 
BRANCH  16  19
ATOM     19  O   UNL d   1     -45.494  12.810  22.876  0.00  0.00    -0.305 OA
BRANCH  19  20
ATOM     20  C   UNL d   1     -45.295  12.922  22.081  0.00  0.00     0.123 C 
ATOM     21  C   UNL d   1     -44.546  13.205  21.882  0.00  0.00     0.029 C 
ENDBRANCH  19  20
ENDBRANCH  16  19
ENDBRANCH   2  13
TORSDOF 7
ENDMDL
MODEL 4
REMARK VINA RESULT:      -5.1      1.687      1.869
REMARK  7 active torsions:
REMARK  status: ('A' for Active; 'I' for Inactive)
REMARK    1  A    between atoms: S_9  and  C_2 
REMARK    2  A    between atoms: C_6  and  C_8 
REMARK       I    between atoms: N_7  and  C_6 
REMARK    3  A    between atoms: C_11  and  N_7 
REMARK    4  A    between atoms: C_8  and  C_12 
REMARK    5  A    between atoms: C_12  and  S_9 
REMARK    6  A    between atoms: O_18  and  C_13 
REMARK    7  A    between atoms: C_20  and  O_18 
ROOT
ATOM      1  C   UNL d   1     -46.680  13.823  22.598  0.00  0.00     0.280 C 
ATOM      2  N   UNL d   1     -47.365  14.191  22.323  0.00  0.00    -0.208 NA
ATOM      3  O   UNL d   1     -45.940  14.168  22.459  0.00  0.00    -0.265 OA
ENDROOT
BRANCH   1   4
ATOM      4  C   UNL d   1     -46.731  13.110  23.013  0.00  0.00     0.070 C 
BRANCH   4   5
ATOM      5  C   UNL d   1     -46.072  12.617  23.071  0.00  0.00     0.042 C 
BRANCH   5   6
ATOM      6  S   UNL d   1     -46.090  11.951  23.574  0.00  0.00    -0.059 SA
BRANCH   6   7
ATOM      7  C   UNL d   1     -45.487  11.389  23.538  0.00  0.00     0.164 A 
ATOM      8  S   UNL d   1     -45.475  10.578  23.684  0.00  0.00    -0.039 SA
ATOM      9  C   UNL d   1     -44.712  10.304  23.559  0.00  0.00     0.134 A 
ATOM     10  N   UNL d   1     -44.237  10.942  23.333  0.00  0.00    -0.140 NA
ATOM     11  C   UNL d   1     -44.457   9.513  23.645  0.00  0.00     0.030 C 
ATOM     12  N   UNL d   1     -44.725  11.618  23.322  0.00  0.00    -0.134 NA
ENDBRANCH   6   7
ENDBRANCH   5   6
ENDBRANCH   4   5
ENDBRANCH   1   4
BRANCH   2  13
ATOM     13  C   UNL d   1     -48.114  13.846  22.462  0.00  0.00     0.085 A 
ATOM     14  C   UNL d   1     -48.413  13.290  21.929  0.00  0.00     0.021 A 
ATOM     15  C   UNL d   1     -49.150  12.945  22.060  0.00  0.00     0.026 A 
ATOM     16  C   UNL d   1     -49.591  13.158  22.726  0.00  0.00     0.100 A 
ATOM     17  C   UNL d   1     -49.292  13.715  23.258  0.00  0.00     0.026 A 
ATOM     18  C   UNL d   1     -48.553  14.059  23.126  0.00  0.00     0.021 A 
BRANCH  16  19
ATOM     19  O   UNL d   1     -50.343  12.805  22.856  0.00  0.00    -0.305 OA
BRANCH  19  20
ATOM     20  C   UNL d   1     -50.506  12.429  23.574  0.00  0.00     0.123 C 
ATOM     21  C   UNL d   1     -50.827  11.669  23.575  0.00  0.00     0.029 C 
ENDBRANCH  19  20
ENDBRANCH  16  19
ENDBRANCH   2  13
TORSDOF 7
ENDMDL
MODEL 5
REMARK VINA RESULT:      -4.9      1.797      2.480
REMARK  7 active torsions:
REMARK  status: ('A' for Active; 'I' for Inactive)
REMARK    1  A    between atoms: S_9  and  C_2 
REMARK    2  A    between atoms: C_6  and  C_8 
REMARK       I    between atoms: N_7  and  C_6 
REMARK    3  A    between atoms: C_11  and  N_7 
REMARK    4  A    between atoms: C_8  and  C_12 
REMARK    5  A    between atoms: C_12  and  S_9 
REMARK    6  A    between atoms: O_18  and  C_13 
REMARK    7  A    between atoms: C_20  and  O_18 
ROOT
ATOM      1  C   UNL d   1     -47.686  11.360  23.399  0.00  0.00     0.280 C 
ATOM      2  N   UNL d   1     -48.500  11.225  23.366  0.00  0.00    -0.208 NA
ATOM      3  O   UNL d   1     -47.175  10.750  23.633  0.00  0.00    -0.265 OA
ENDROOT
BRANCH   1   4
ATOM      4  C   UNL d   1     -47.380  12.100  23.199  0.00  0.00     0.070 C 
BRANCH   4   5
ATOM      5  C   UNL d   1     -46.564  12.219  23.179  0.00  0.00     0.042 C 
BRANCH   5   6
ATOM      6  S   UNL d   1     -46.231  12.750  22.626  0.00  0.00    -0.059 SA
BRANCH   6   7
ATOM      7  C   UNL d   1     -45.440  12.673  22.405  0.00  0.00     0.164 A 
ATOM      8  S   UNL d   1     -44.971  13.089  21.868  0.00  0.00    -0.039 SA
ATOM      9  C   UNL d   1     -44.218  12.766  21.878  0.00  0.00     0.134 A 
ATOM     10  N   UNL d   1     -44.206  12.142  22.422  0.00  0.00    -0.140 NA
ATOM     11  C   UNL d   1     -43.570  13.022  21.417  0.00  0.00     0.030 C 
ATOM     12  N   UNL d   1     -44.972  12.088  22.748  0.00  0.00    -0.134 NA
ENDBRANCH   6   7
ENDBRANCH   5   6
ENDBRANCH   4   5
ENDBRANCH   1   4
BRANCH   2  13
ATOM     13  C   UNL d   1     -49.019  11.838  23.130  0.00  0.00     0.085 A 
ATOM     14  C   UNL d   1     -49.332  12.349  23.698  0.00  0.00     0.021 A 
ATOM     15  C   UNL d   1     -49.844  12.954  23.472  0.00  0.00     0.026 A 
ATOM     16  C   UNL d   1     -50.043  13.048  22.676  0.00  0.00     0.100 A 
ATOM     17  C   UNL d   1     -49.729  12.537  22.108  0.00  0.00     0.026 A 
ATOM     18  C   UNL d   1     -49.216  11.931  22.335  0.00  0.00     0.021 A 
BRANCH  16  19
ATOM     19  O   UNL d   1     -50.566  13.668  22.449  0.00  0.00    -0.305 OA
BRANCH  19  20
ATOM     20  C   UNL d   1     -50.459  14.058  21.728  0.00  0.00     0.123 C 
ATOM     21  C   UNL d   1     -51.064  14.528  21.422  0.00  0.00     0.029 C 
ENDBRANCH  19  20
ENDBRANCH  16  19
ENDBRANCH   2  13
TORSDOF 7
ENDMDL
MODEL 6
REMARK VINA RESULT:      -4.3      2.345      4.724
REMARK  7 active torsions:
REMARK  status: ('A' for Active; 'I' for Inactive)
REMARK    1  A    between atoms: S_9  and  C_2 
REMARK    2  A    between atoms: C_6  and  C_8 
REMARK       I    between atoms: N_7  and  C_6 
REMARK    3  A    between atoms: C_11  and  N_7 
REMARK    4  A    between atoms: C_8  and  C_12 
REMARK    5  A    between atoms: C_12  and  S_9 
REMARK    6  A    between atoms: O_18  and  C_13 
REMARK    7  A    between atoms: C_20  and  O_18 
ROOT
ATOM      1  C   UNL d   1     -46.991  13.829  22.286  0.00  0.00     0.280 C 
ATOM      2  N   UNL d   1     -46.180  13.902  22.420  0.00  0.00    -0.208 NA
ATOM      3  O   UNL d   1     -47.453  14.507  22.164  0.00  0.00    -0.265 OA
ENDROOT
BRANCH   1   4
ATOM      4  C   UNL d   1     -47.343  13.082  22.272  0.00  0.00     0.070 C 
BRANCH   4   5
ATOM      5  C   UNL d   1     -48.162  13.009  22.348  0.00  0.00     0.042 C 
BRANCH   5   6
ATOM      6  S   UNL d   1     -48.533  12.278  22.189  0.00  0.00    -0.059 SA
BRANCH   6   7
ATOM      7  C   UNL d   1     -49.161  12.023  22.660  0.00  0.00     0.164 A 
ATOM      8  S   UNL d   1     -49.897  12.353  22.830  0.00  0.00    -0.039 SA
ATOM      9  C   UNL d   1     -50.296  11.848  23.337  0.00  0.00     0.134 A 
ATOM     10  N   UNL d   1     -49.813  11.193  23.491  0.00  0.00    -0.140 NA
ATOM     11  C   UNL d   1     -51.062  11.972  23.648  0.00  0.00     0.030 C 
ATOM     12  N   UNL d   1     -49.105  11.307  23.066  0.00  0.00    -0.134 NA
ENDBRANCH   6   7
ENDBRANCH   5   6
ENDBRANCH   4   5
ENDBRANCH   1   4
BRANCH   2  13
ATOM     13  C   UNL d   1     -45.710  13.221  22.544  0.00  0.00     0.085 A 
ATOM     14  C   UNL d   1     -45.815  12.771  23.229  0.00  0.00     0.021 A 
ATOM     15  C   UNL d   1     -45.355  12.099  23.356  0.00  0.00     0.026 A 
ATOM     16  C   UNL d   1     -44.790  11.876  22.797  0.00  0.00     0.100 A 
ATOM     17  C   UNL d   1     -44.685  12.326  22.112  0.00  0.00     0.026 A 
ATOM     18  C   UNL d   1     -45.146  13.000  21.985  0.00  0.00     0.021 A 
BRANCH  16  19
ATOM     19  O   UNL d   1     -44.322  11.189  22.931  0.00  0.00    -0.305 OA
BRANCH  19  20
ATOM     20  C   UNL d   1     -44.541  10.645  23.514  0.00  0.00     0.123 C 
ATOM     21  C   UNL d   1     -44.278   9.865  23.466  0.00  0.00     0.029 C 
ENDBRANCH  19  20
ENDBRANCH  16  19
ENDBRANCH   2  13
TORSDOF 7
ENDMDL
MODEL 7
REMARK VINA RESULT:      -4.2      7.033      9.367
REMARK  7 active torsions:
REMARK  status: ('A' for Active; 'I' for Inactive)
REMARK    1  A    between atoms: S_9  and  C_2 
REMARK    2  A    between atoms: C_6  and  C_8 
REMARK       I    between atoms: N_7  and  C_6 
REMARK    3  A    between atoms: C_11  and  N_7 
REMARK    4  A    between atoms: C_8  and  C_12 
REMARK    5  A    between atoms: C_12  and  S_9 
REMARK    6  A    between atoms: O_18  and  C_13 
REMARK    7  A    between atoms: C_20  and  O_18 
ROOT
ATOM      1  C   UNL d   1     -38.838  15.541  19.659  0.00  0.00     0.280 C 
ATOM      2  N   UNL d   1     -39.162  15.647  20.411  0.00  0.00    -0.208 NA
ATOM      3  O   UNL d   1     -38.119  15.906  19.464  0.00  0.00    -0.265 OA
ENDROOT
BRANCH   1   4
ATOM      4  C   UNL d   1     -39.227  15.073  19.101  0.00  0.00     0.070 C 
BRANCH   4   5
ATOM      5  C   UNL d   1     -38.846  14.860  18.401  0.00  0.00     0.042 C 
BRANCH   5   6
ATOM      6  S   UNL d   1     -39.284  14.536  17.768  0.00  0.00    -0.059 SA
BRANCH   6   7
ATOM      7  C   UNL d   1     -38.892  14.211  17.119  0.00  0.00     0.164 A 
ATOM      8  S   UNL d   1     -38.637  14.535  16.405  0.00  0.00    -0.039 SA
ATOM      9  C   UNL d   1     -38.276  13.944  15.966  0.00  0.00     0.134 A 
ATOM     10  N   UNL d   1     -38.302  13.240  16.401  0.00  0.00    -0.140 NA
ATOM     11  C   UNL d   1     -37.940  14.035  15.207  0.00  0.00     0.030 C 
ATOM     12  N   UNL d   1     -38.687  13.412  17.120  0.00  0.00    -0.134 NA
ENDBRANCH   6   7
ENDBRANCH   5   6
ENDBRANCH   4   5
ENDBRANCH   1   4
BRANCH   2  13
ATOM     13  C   UNL d   1     -39.887  15.281  20.611  0.00  0.00     0.085 A 
ATOM     14  C   UNL d   1     -39.885  14.523  20.940  0.00  0.00     0.021 A 
ATOM     15  C   UNL d   1     -40.596  14.156  21.140  0.00  0.00     0.026 A 
ATOM     16  C   UNL d   1     -41.311  14.549  21.011  0.00  0.00     0.100 A 
ATOM     17  C   UNL d   1     -41.313  15.307  20.682  0.00  0.00     0.026 A 
ATOM     18  C   UNL d   1     -40.600  15.674  20.482  0.00  0.00     0.021 A 
BRANCH  16  19
ATOM     19  O   UNL d   1     -42.035  14.172  21.217  0.00  0.00    -0.305 OA
BRANCH  19  20
ATOM     20  C   UNL d   1     -42.125  13.358  21.104  0.00  0.00     0.123 C 
ATOM     21  C   UNL d   1     -42.835  12.992  21.310  0.00  0.00     0.029 C 
ENDBRANCH  19  20
ENDBRANCH  16  19
ENDBRANCH   2  13
TORSDOF 7
ENDMDL
MODEL 8
REMARK VINA RESULT:      -4.1      1.851      3.096
REMARK  7 active torsions:
REMARK  status: ('A' for Active; 'I' for Inactive)
REMARK    1  A    between atoms: S_9  and  C_2 
REMARK    2  A    between atoms: C_6  and  C_8 
REMARK       I    between atoms: N_7  and  C_6 
REMARK    3  A    between atoms: C_11  and  N_7 
REMARK    4  A    between atoms: C_8  and  C_12 
REMARK    5  A    between atoms: C_12  and  S_9 
REMARK    6  A    between atoms: O_18  and  C_13 
REMARK    7  A    between atoms: C_20  and  O_18 
ROOT
ATOM      1  C   UNL d   1     -45.927  12.155  23.330  0.00  0.00     0.280 C 
ATOM      2  N   UNL d   1     -46.681  12.305  23.631  0.00  0.00    -0.208 NA
ATOM      3  O   UNL d   1     -45.441  11.591  23.695  0.00  0.00    -0.265 OA
ENDROOT
BRANCH   1   4
ATOM      4  C   UNL d   1     -45.657  12.565  22.667  0.00  0.00     0.070 C 
BRANCH   4   5
ATOM      5  C   UNL d   1     -44.864  12.515  22.444  0.00  0.00     0.042 C 
BRANCH   5   6
ATOM      6  S   UNL d   1     -44.632  12.725  21.669  0.00  0.00    -0.059 SA
BRANCH   6   7
ATOM      7  C   UNL d   1     -43.836  12.852  21.496  0.00  0.00     0.164 A 
ATOM      8  S   UNL d   1     -43.423  13.517  21.238  0.00  0.00    -0.039 SA
ATOM      9  C   UNL d   1     -42.632  13.316  21.158  0.00  0.00     0.134 A 
ATOM     10  N   UNL d   1     -42.540  12.520  21.366  0.00  0.00    -0.140 NA
ATOM     11  C   UNL d   1     -42.021  13.828  20.908  0.00  0.00     0.030 C 
ATOM     12  N   UNL d   1     -43.294  12.234  21.577  0.00  0.00    -0.134 NA
ENDBRANCH   6   7
ENDBRANCH   5   6
ENDBRANCH   4   5
ENDBRANCH   1   4
BRANCH   2  13
ATOM     13  C   UNL d   1     -47.175  12.873  23.266  0.00  0.00     0.085 A 
ATOM     14  C   UNL d   1     -47.068  13.675  23.433  0.00  0.00     0.021 A 
ATOM     15  C   UNL d   1     -47.551  14.240  23.077  0.00  0.00     0.026 A 
ATOM     16  C   UNL d   1     -48.143  14.002  22.552  0.00  0.00     0.100 A 
ATOM     17  C   UNL d   1     -48.250  13.200  22.385  0.00  0.00     0.026 A 
ATOM     18  C   UNL d   1     -47.765  12.634  22.742  0.00  0.00     0.021 A 
BRANCH  16  19
ATOM     19  O   UNL d   1     -48.634  14.581  22.190  0.00  0.00    -0.305 OA
BRANCH  19  20
ATOM     20  C   UNL d   1     -49.408  14.696  22.458  0.00  0.00     0.123 C 
ATOM     21  C   UNL d   1     -49.817  15.381  22.249  0.00  0.00     0.029 C 
ENDBRANCH  19  20
ENDBRANCH  16  19
ENDBRANCH   2  13
TORSDOF 7
ENDMDL
MODEL 9
REMARK VINA RESULT:      -4.0      4.780      8.188
REMARK  7 active torsions:
REMARK  status: ('A' for Active; 'I' for Inactive)
REMARK    1  A    between atoms: S_9  and  C_2 
REMARK    2  A    between atoms: C_6  and  C_8 
REMARK       I    between atoms: N_7  and  C_6 
REMARK    3  A    between atoms: C_11  and  N_7 
REMARK    4  A    between atoms: C_8  and  C_12 
REMARK    5  A    between atoms: C_12  and  S_9 
REMARK    6  A    between atoms: O_18  and  C_13 
REMARK    7  A    between atoms: C_20  and  O_18 
ROOT
ATOM      1  C   UNL d   1     -40.563  14.117  20.974  0.00  0.00     0.280 C 
ATOM      2  N   UNL d   1     -40.003  14.483  20.491  0.00  0.00    -0.208 NA
ATOM      3  O   UNL d   1     -40.370  13.922  21.756  0.00  0.00    -0.265 OA
ENDROOT
BRANCH   1   4
ATOM      4  C   UNL d   1     -41.315  13.945  20.679  0.00  0.00     0.070 C 
BRANCH   4   5
ATOM      5  C   UNL d   1     -41.876  13.582  21.164  0.00  0.00     0.042 C 
BRANCH   5   6
ATOM      6  S   UNL d   1     -42.490  13.128  20.825  0.00  0.00    -0.059 SA
BRANCH   6   7
ATOM      7  C   UNL d   1     -43.149  12.923  21.277  0.00  0.00     0.164 A 
ATOM      8  S   UNL d   1     -43.905  13.248  21.334  0.00  0.00    -0.039 SA
ATOM      9  C   UNL d   1     -44.334  12.810  21.879  0.00  0.00     0.134 A 
ATOM     10  N   UNL d   1     -43.851  12.205  22.170  0.00  0.00    -0.140 NA
ATOM     11  C   UNL d   1     -45.127  12.951  22.103  0.00  0.00     0.030 C 
ATOM     12  N   UNL d   1     -43.112  12.279  21.792  0.00  0.00    -0.134 NA
ENDBRANCH   6   7
ENDBRANCH   5   6
ENDBRANCH   4   5
ENDBRANCH   1   4
BRANCH   2  13
ATOM     13  C   UNL d   1     -40.193  14.682  19.701  0.00  0.00     0.085 A 
ATOM     14  C   UNL d   1     -40.024  14.149  19.094  0.00  0.00     0.021 A 
ATOM     15  C   UNL d   1     -40.209  14.339  18.313  0.00  0.00     0.026 A 
ATOM     16  C   UNL d   1     -40.565  15.065  18.140  0.00  0.00     0.100 A 
ATOM     17  C   UNL d   1     -40.734  15.598  18.748  0.00  0.00     0.026 A 
ATOM     18  C   UNL d   1     -40.548  15.406  19.530  0.00  0.00     0.021 A 
BRANCH  16  19
ATOM     19  O   UNL d   1     -40.752  15.255  17.342  0.00  0.00    -0.305 OA
BRANCH  19  20
ATOM     20  C   UNL d   1     -41.298  15.854  17.176  0.00  0.00     0.123 C 
ATOM     21  C   UNL d   1     -41.618  15.918  16.418  0.00  0.00     0.029 C 
ENDBRANCH  19  20
ENDBRANCH  16  19
ENDBRANCH   2  13
TORSDOF 7
ENDMDL
