MODEL 1
REMARK VINA RESULT:      -8.8      0.000      0.000
REMARK  8 active torsions:
REMARK  status: ('A' for Active; 'I' for Inactive)
REMARK    1  A    between atoms: N_7  and  N_1 
REMARK    2  A    between atoms: S_9  and  C_2 
REMARK       I    between atoms: C_8  and  N_7 
REMARK    3  A    between atoms: C_16  and  C_8 
REMARK    4  A    between atoms: C_15  and  S_9 
REMARK    5  A    between atoms: C_10  and  C_15 
REMARK       I    between atoms: N_12  and  C_10 
REMARK    6  A    between atoms: C_17  and  N_12 
REMARK    7  A    between atoms: C_19  and  C_16 
REMARK    8  A    between atoms: C_20  and  C_17 
ROOT
ATOM      1  N   UNL d   1      52.684  33.562  53.135  0.00  0.00    -0.168 N 
ATOM      2  C   UNL d   1      52.044  34.055  53.095  0.00  0.00     0.199 A 
ATOM      3  C   UNL d   1      53.329  33.755  53.617  0.00  0.00     0.283 A 
ATOM      4  N   UNL d   1      52.023  34.768  53.539  0.00  0.00    -0.221 NA
ATOM      5  C   UNL d   1      53.313  34.465  54.062  0.00  0.00     0.076 A 
ATOM      6  C   UNL d   1      52.660  34.968  54.022  0.00  0.00     0.088 A 
ATOM      7  O   UNL d   1      53.984  33.255  53.662  0.00  0.00    -0.265 OA
ATOM      8  C   UNL d   1      53.962  34.653  54.543  0.00  0.00     0.006 A 
ATOM      9  C   UNL d   1      52.653  35.660  54.460  0.00  0.00     0.019 A 
ATOM     10  C   UNL d   1      53.942  35.354  54.981  0.00  0.00     0.000 A 
ATOM     11  C   UNL d   1      53.289  35.858  54.940  0.00  0.00     0.002 A 
ENDROOT
BRANCH   2  12
ATOM     12  S   UNL d   1      51.410  33.866  52.621  0.00  0.00    -0.043 SA
BRANCH  12  13
ATOM     13  C   UNL d   1      50.676  34.218  52.751  0.00  0.00     0.101 C 
BRANCH  13  14
ATOM     14  C   UNL d   1      50.156  34.320  52.128  0.00  0.00     0.286 C 
ATOM     15  N   UNL d   1      49.437  34.697  52.250  0.00  0.00    -0.206 NA
ATOM     16  O   UNL d   1      50.353  34.043  51.376  0.00  0.00    -0.265 OA
BRANCH  15  17
ATOM     17  C   UNL d   1      48.916  34.800  51.627  0.00  0.00     0.102 C 
BRANCH  17  18
ATOM     18  C   UNL d   1      48.220  35.219  51.738  0.00  0.00     0.019 A 
ATOM     19  C   UNL d   1      48.136  35.726  52.384  0.00  0.00     0.002 A 
ATOM     20  C   UNL d   1      47.440  36.145  52.495  0.00  0.00     0.000 A 
ATOM     21  C   UNL d   1      46.820  36.061  51.958  0.00  0.00     0.000 A 
ATOM     22  C   UNL d   1      46.905  35.553  51.311  0.00  0.00     0.000 A 
ATOM     23  C   UNL d   1      47.600  35.135  51.201  0.00  0.00     0.002 A 
ENDBRANCH  17  18
ENDBRANCH  15  17
ENDBRANCH  13  14
ENDBRANCH  12  13
ENDBRANCH   2  12
BRANCH   1  24
ATOM     24  N   UNL d   1      52.700  32.870  52.702  0.00  0.00    -0.119 NA
ATOM     25  C   UNL d   1      52.662  32.151  53.086  0.00  0.00     0.296 C 
ATOM     26  O   UNL d   1      52.607  32.114  53.909  0.00  0.00    -0.264 OA
BRANCH  25  27
ATOM     27  C   UNL d   1      52.679  31.451  52.645  0.00  0.00     0.064 C 
BRANCH  27  28
ATOM     28  C   UNL d   1      52.818  30.744  53.018  0.00  0.00     0.005 A 
ATOM     29  C   UNL d   1      53.595  30.506  53.159  0.00  0.00     0.000 A 
ATOM     30  C   UNL d   1      53.736  29.787  53.538  0.00  0.00     0.000 A 
ATOM     31  C   UNL d   1      53.115  29.318  53.771  0.00  0.00     0.000 A 
ATOM     32  C   UNL d   1      52.336  29.565  53.625  0.00  0.00     0.000 A 
ATOM     33  C   UNL d   1      52.197  30.275  53.251  0.00  0.00     0.000 A 
ENDBRANCH  27  28
ENDBRANCH  25  27
ENDBRANCH   1  24
TORSDOF 8
ENDMDL
MODEL 2
REMARK VINA RESULT:      -7.9      0.988      3.611
REMARK  8 active torsions:
REMARK  status: ('A' for Active; 'I' for Inactive)
REMARK    1  A    between atoms: N_7  and  N_1 
REMARK    2  A    between atoms: S_9  and  C_2 
REMARK       I    between atoms: C_8  and  N_7 
REMARK    3  A    between atoms: C_16  and  C_8 
REMARK    4  A    between atoms: C_15  and  S_9 
REMARK    5  A    between atoms: C_10  and  C_15 
REMARK       I    between atoms: N_12  and  C_10 
REMARK    6  A    between atoms: C_17  and  N_12 
REMARK    7  A    between atoms: C_19  and  C_16 
REMARK    8  A    between atoms: C_20  and  C_17 
ROOT
ATOM      1  N   UNL d   1      53.355  32.305  53.345  0.00  0.00    -0.168 N 
ATOM      2  C   UNL d   1      52.637  32.269  52.974  0.00  0.00     0.199 A 
ATOM      3  C   UNL d   1      53.718  31.613  53.618  0.00  0.00     0.283 A 
ATOM      4  N   UNL d   1      52.250  31.532  52.859  0.00  0.00    -0.221 NA
ATOM      5  C   UNL d   1      53.336  30.875  53.505  0.00  0.00     0.076 A 
ATOM      6  C   UNL d   1      52.604  30.838  53.127  0.00  0.00     0.088 A 
ATOM      7  O   UNL d   1      54.450  31.644  53.997  0.00  0.00    -0.265 OA
ATOM      8  C   UNL d   1      53.705  30.185  53.780  0.00  0.00     0.006 A 
ATOM      9  C   UNL d   1      52.238  30.113  53.021  0.00  0.00     0.019 A 
ATOM     10  C   UNL d   1      53.325  29.460  53.667  0.00  0.00     0.000 A 
ATOM     11  C   UNL d   1      52.593  29.422  53.289  0.00  0.00     0.002 A 
ENDROOT
BRANCH   2  12
ATOM     12  S   UNL d   1      52.280  32.950  52.706  0.00  0.00    -0.043 SA
BRANCH  12  13
ATOM     13  C   UNL d   1      51.470  32.960  52.554  0.00  0.00     0.101 C 
BRANCH  13  14
ATOM     14  C   UNL d   1      51.128  33.616  52.207  0.00  0.00     0.286 C 
ATOM     15  N   UNL d   1      50.460  33.958  52.542  0.00  0.00    -0.206 NA
ATOM     16  O   UNL d   1      51.452  33.937  51.520  0.00  0.00    -0.265 OA
BRANCH  15  17
ATOM     17  C   UNL d   1      50.117  34.615  52.196  0.00  0.00     0.102 C 
BRANCH  17  18
ATOM     18  C   UNL d   1      49.462  34.968  52.541  0.00  0.00     0.019 A 
ATOM     19  C   UNL d   1      49.496  35.241  53.319  0.00  0.00     0.002 A 
ATOM     20  C   UNL d   1      48.841  35.594  53.664  0.00  0.00     0.000 A 
ATOM     21  C   UNL d   1      48.143  35.675  53.233  0.00  0.00     0.000 A 
ATOM     22  C   UNL d   1      48.110  35.401  52.453  0.00  0.00     0.000 A 
ATOM     23  C   UNL d   1      48.764  35.050  52.110  0.00  0.00     0.002 A 
ENDBRANCH  17  18
ENDBRANCH  15  17
ENDBRANCH  13  14
ENDBRANCH  12  13
ENDBRANCH   2  12
BRANCH   1  24
ATOM     24  N   UNL d   1      53.728  33.024  53.455  0.00  0.00    -0.119 NA
ATOM     25  C   UNL d   1      53.770  33.347  54.204  0.00  0.00     0.296 C 
ATOM     26  O   UNL d   1      53.441  32.957  54.852  0.00  0.00    -0.264 OA
BRANCH  25  27
ATOM     27  C   UNL d   1      54.149  34.075  54.312  0.00  0.00     0.064 C 
BRANCH  27  28
ATOM     28  C   UNL d   1      53.712  34.729  54.512  0.00  0.00     0.005 A 
ATOM     29  C   UNL d   1      53.646  35.351  53.974  0.00  0.00     0.000 A 
ATOM     30  C   UNL d   1      53.202  36.016  54.177  0.00  0.00     0.000 A 
ATOM     31  C   UNL d   1      52.833  36.058  54.900  0.00  0.00     0.000 A 
ATOM     32  C   UNL d   1      52.905  35.427  55.434  0.00  0.00     0.000 A 
ATOM     33  C   UNL d   1      53.343  34.771  55.234  0.00  0.00     0.000 A 
ENDBRANCH  27  28
ENDBRANCH  25  27
ENDBRANCH   1  24
TORSDOF 8
ENDMDL
MODEL 3
REMARK VINA RESULT:      -7.3      1.415      5.255
REMARK  8 active torsions:
REMARK  status: ('A' for Active; 'I' for Inactive)
REMARK    1  A    between atoms: N_7  and  N_1 
REMARK    2  A    between atoms: S_9  and  C_2 
REMARK       I    between atoms: C_8  and  N_7 
REMARK    3  A    between atoms: C_16  and  C_8 
REMARK    4  A    between atoms: C_15  and  S_9 
REMARK    5  A    between atoms: C_10  and  C_15 
REMARK       I    between atoms: N_12  and  C_10 
REMARK    6  A    between atoms: C_17  and  N_12 
REMARK    7  A    between atoms: C_19  and  C_16 
REMARK    8  A    between atoms: C_20  and  C_17 
ROOT
ATOM      1  N   UNL d   1      51.450  33.953  53.514  0.00  0.00    -0.168 N 
ATOM      2  C   UNL d   1      51.541  33.369  52.961  0.00  0.00     0.199 A 
ATOM      3  C   UNL d   1      50.863  34.530  53.417  0.00  0.00     0.283 A 
ATOM      4  N   UNL d   1      51.045  33.337  52.284  0.00  0.00    -0.221 NA
ATOM      5  C   UNL d   1      50.365  34.502  52.743  0.00  0.00     0.076 A 
ATOM      6  C   UNL d   1      50.458  33.906  52.180  0.00  0.00     0.088 A 
ATOM      7  O   UNL d   1      50.766  35.128  53.977  0.00  0.00    -0.265 OA
ATOM      8  C   UNL d   1      49.780  35.082  52.651  0.00  0.00     0.006 A 
ATOM      9  C   UNL d   1      49.968  33.887  51.524  0.00  0.00     0.019 A 
ATOM     10  C   UNL d   1      49.291  35.051  51.985  0.00  0.00     0.000 A 
ATOM     11  C   UNL d   1      49.384  34.455  51.422  0.00  0.00     0.002 A 
ENDROOT
BRANCH   2  12
ATOM     12  S   UNL d   1      52.118  32.803  53.056  0.00  0.00    -0.043 SA
BRANCH  12  13
ATOM     13  C   UNL d   1      51.975  32.024  52.828  0.00  0.00     0.101 C 
BRANCH  13  14
ATOM     14  C   UNL d   1      52.587  31.482  52.819  0.00  0.00     0.286 C 
ATOM     15  N   UNL d   1      52.617  30.886  53.384  0.00  0.00    -0.206 NA
ATOM     16  O   UNL d   1      53.175  31.532  52.243  0.00  0.00    -0.265 OA
BRANCH  15  17
ATOM     17  C   UNL d   1      53.229  30.343  53.376  0.00  0.00     0.102 C 
BRANCH  17  18
ATOM     18  C   UNL d   1      53.283  29.775  53.965  0.00  0.00     0.019 A 
ATOM     19  C   UNL d   1      53.297  29.997  54.760  0.00  0.00     0.002 A 
ATOM     20  C   UNL d   1      53.350  29.429  55.349  0.00  0.00     0.000 A 
ATOM     21  C   UNL d   1      53.390  28.631  55.147  0.00  0.00     0.000 A 
ATOM     22  C   UNL d   1      53.376  28.409  54.350  0.00  0.00     0.000 A 
ATOM     23  C   UNL d   1      53.323  28.977  53.763  0.00  0.00     0.002 A 
ENDBRANCH  17  18
ENDBRANCH  15  17
ENDBRANCH  13  14
ENDBRANCH  12  13
ENDBRANCH   2  12
BRANCH   1  24
ATOM     24  N   UNL d   1      51.934  33.981  54.171  0.00  0.00    -0.119 NA
ATOM     25  C   UNL d   1      52.564  34.500  54.187  0.00  0.00     0.296 C 
ATOM     26  O   UNL d   1      52.719  34.997  53.547  0.00  0.00    -0.264 OA
BRANCH  25  27
ATOM     27  C   UNL d   1      53.054  34.526  54.854  0.00  0.00     0.064 C 
BRANCH  27  28
ATOM     28  C   UNL d   1      53.797  34.204  54.819  0.00  0.00     0.005 A 
ATOM     29  C   UNL d   1      54.005  33.607  55.350  0.00  0.00     0.000 A 
ATOM     30  C   UNL d   1      54.762  33.280  55.315  0.00  0.00     0.000 A 
ATOM     31  C   UNL d   1      55.297  33.543  54.762  0.00  0.00     0.000 A 
ATOM     32  C   UNL d   1      55.079  34.143  54.232  0.00  0.00     0.000 A 
ATOM     33  C   UNL d   1      54.332  34.466  54.267  0.00  0.00     0.000 A 
ENDBRANCH  27  28
ENDBRANCH  25  27
ENDBRANCH   1  24
TORSDOF 8
ENDMDL
MODEL 4
REMARK VINA RESULT:      -7.3      1.168      5.364
REMARK  8 active torsions:
REMARK  status: ('A' for Active; 'I' for Inactive)
REMARK    1  A    between atoms: N_7  and  N_1 
REMARK    2  A    between atoms: S_9  and  C_2 
REMARK       I    between atoms: C_8  and  N_7 
REMARK    3  A    between atoms: C_16  and  C_8 
REMARK    4  A    between atoms: C_15  and  S_9 
REMARK    5  A    between atoms: C_10  and  C_15 
REMARK       I    between atoms: N_12  and  C_10 
REMARK    6  A    between atoms: C_17  and  N_12 
REMARK    7  A    between atoms: C_19  and  C_16 
REMARK    8  A    between atoms: C_20  and  C_17 
ROOT
ATOM      1  N   UNL d   1      52.241  34.013  53.003  0.00  0.00    -0.168 N 
ATOM      2  C   UNL d   1      52.597  33.350  53.301  0.00  0.00     0.199 A 
ATOM      3  C   UNL d   1      52.360  34.748  53.366  0.00  0.00     0.283 A 
ATOM      4  N   UNL d   1      53.091  33.395  53.979  0.00  0.00    -0.221 NA
ATOM      5  C   UNL d   1      52.852  34.798  54.043  0.00  0.00     0.076 A 
ATOM      6  C   UNL d   1      53.215  34.122  54.346  0.00  0.00     0.088 A 
ATOM      7  O   UNL d   1      52.000  35.427  53.067  0.00  0.00    -0.265 OA
ATOM      8  C   UNL d   1      52.968  35.537  54.402  0.00  0.00     0.006 A 
ATOM      9  C   UNL d   1      53.694  34.181  55.008  0.00  0.00     0.019 A 
ATOM     10  C   UNL d   1      53.454  35.582  55.070  0.00  0.00     0.000 A 
ATOM     11  C   UNL d   1      53.817  34.906  55.373  0.00  0.00     0.002 A 
ENDROOT
BRANCH   2  12
ATOM     12  S   UNL d   1      52.480  32.628  52.944  0.00  0.00    -0.043 SA
BRANCH  12  13
ATOM     13  C   UNL d   1      53.087  32.071  52.927  0.00  0.00     0.101 C 
BRANCH  13  14
ATOM     14  C   UNL d   1      52.911  31.275  52.869  0.00  0.00     0.286 C 
ATOM     15  N   UNL d   1      53.124  30.761  53.472  0.00  0.00    -0.206 NA
ATOM     16  O   UNL d   1      52.518  30.987  52.203  0.00  0.00    -0.265 OA
BRANCH  15  17
ATOM     17  C   UNL d   1      52.948  29.964  53.415  0.00  0.00     0.102 C 
BRANCH  17  18
ATOM     18  C   UNL d   1      53.147  29.453  54.025  0.00  0.00     0.019 A 
ATOM     19  C   UNL d   1      52.900  29.609  54.797  0.00  0.00     0.002 A 
ATOM     20  C   UNL d   1      53.099  29.098  55.408  0.00  0.00     0.000 A 
ATOM     21  C   UNL d   1      53.548  28.426  55.251  0.00  0.00     0.000 A 
ATOM     22  C   UNL d   1      53.795  28.270  54.477  0.00  0.00     0.000 A 
ATOM     23  C   UNL d   1      53.596  28.780  53.868  0.00  0.00     0.002 A 
ENDBRANCH  17  18
ENDBRANCH  15  17
ENDBRANCH  13  14
ENDBRANCH  12  13
ENDBRANCH   2  12
BRANCH   1  24
ATOM     24  N   UNL d   1      51.762  33.965  52.344  0.00  0.00    -0.119 NA
ATOM     25  C   UNL d   1      50.950  33.972  52.432  0.00  0.00     0.296 C 
ATOM     26  O   UNL d   1      50.607  34.028  53.180  0.00  0.00    -0.264 OA
BRANCH  25  27
ATOM     27  C   UNL d   1      50.467  33.923  51.762  0.00  0.00     0.064 C 
BRANCH  27  28
ATOM     28  C   UNL d   1      49.755  34.312  51.751  0.00  0.00     0.005 A 
ATOM     29  C   UNL d   1      49.340  34.376  51.041  0.00  0.00     0.000 A 
ATOM     30  C   UNL d   1      48.615  34.771  51.030  0.00  0.00     0.000 A 
ATOM     31  C   UNL d   1      48.315  35.095  51.713  0.00  0.00     0.000 A 
ATOM     32  C   UNL d   1      48.740  35.026  52.422  0.00  0.00     0.000 A 
ATOM     33  C   UNL d   1      49.454  34.635  52.433  0.00  0.00     0.000 A 
ENDBRANCH  27  28
ENDBRANCH  25  27
ENDBRANCH   1  24
TORSDOF 8
ENDMDL
