MODEL 1
REMARK VINA RESULT:     -10.2      0.000      0.000
REMARK  2 active torsions:
REMARK  status: ('A' for Active; 'I' for Inactive)
REMARK    1  A    between atoms: C_6  and  N_1 
REMARK    2  A    between atoms: C_7  and  C_6 
ROOT
ATOM      1  N   UNL d   1      53.287  32.215  53.452  0.00  0.00    -0.287 N 
ATOM      2  N   UNL d   1      52.345  31.815  52.568  0.00  0.00    -0.224 NA
ATOM      3  C   UNL d   1      52.725  32.491  52.913  0.00  0.00     0.183 A 
ATOM      4  C   UNL d   1      53.270  31.407  53.453  0.00  0.00     0.083 A 
ATOM      5  C   UNL d   1      52.675  31.155  52.895  0.00  0.00     0.099 A 
ATOM      6  C   UNL d   1      53.703  30.847  53.875  0.00  0.00     0.019 A 
ATOM      7  C   UNL d   1      52.560  30.331  52.804  0.00  0.00     0.021 A 
ATOM      8  C   UNL d   1      53.562  30.042  53.759  0.00  0.00     0.002 A 
ATOM      9  C   UNL d   1      52.987  29.798  53.220  0.00  0.00     0.002 A 
ENDROOT
BRANCH   1  10
ATOM     10  C   UNL d   1      53.842  32.021  53.982  0.00  0.00     0.082 C 
BRANCH  10  11
ATOM     11  C   UNL d   1      54.251  32.626  54.365  0.00  0.00     0.018 A 
ATOM     12  C   UNL d   1      54.864  33.020  53.979  0.00  0.00     0.002 A 
ATOM     13  C   UNL d   1      55.276  33.628  54.362  0.00  0.00     0.000 A 
ATOM     14  C   UNL d   1      55.072  33.839  55.133  0.00  0.00     0.000 A 
ATOM     15  C   UNL d   1      54.456  33.442  55.520  0.00  0.00     0.000 A 
ATOM     16  C   UNL d   1      54.047  32.837  55.136  0.00  0.00     0.002 A 
ENDBRANCH  10  11
ENDBRANCH   1  10
TORSDOF 2
ENDMDL
MODEL 2
REMARK VINA RESULT:      -9.5      1.958      3.708
REMARK  2 active torsions:
REMARK  status: ('A' for Active; 'I' for Inactive)
REMARK    1  A    between atoms: C_6  and  N_1 
REMARK    2  A    between atoms: C_7  and  C_6 
ROOT
ATOM      1  N   UNL d   1      52.789  34.438  54.097  0.00  0.00    -0.287 N 
ATOM      2  N   UNL d   1      53.685  34.939  54.976  0.00  0.00    -0.224 NA
ATOM      3  C   UNL d   1      53.012  35.126  54.496  0.00  0.00     0.183 A 
ATOM      4  C   UNL d   1      53.292  33.842  54.309  0.00  0.00     0.083 A 
ATOM      5  C   UNL d   1      53.858  34.159  54.865  0.00  0.00     0.099 A 
ATOM      6  C   UNL d   1      53.331  33.049  54.087  0.00  0.00     0.019 A 
ATOM      7  C   UNL d   1      54.437  33.633  55.162  0.00  0.00     0.021 A 
ATOM      8  C   UNL d   1      53.917  32.561  54.402  0.00  0.00     0.002 A 
ATOM      9  C   UNL d   1      54.464  32.866  54.938  0.00  0.00     0.002 A 
ENDROOT
BRANCH   1  10
ATOM     10  C   UNL d   1      52.522  33.818  53.684  0.00  0.00     0.082 C 
BRANCH  10  11
ATOM     11  C   UNL d   1      51.865  33.921  53.197  0.00  0.00     0.018 A 
ATOM     12  C   UNL d   1      51.108  33.764  53.486  0.00  0.00     0.002 A 
ATOM     13  C   UNL d   1      50.445  33.867  52.998  0.00  0.00     0.000 A 
ATOM     14  C   UNL d   1      50.544  34.128  52.222  0.00  0.00     0.000 A 
ATOM     15  C   UNL d   1      51.305  34.285  51.933  0.00  0.00     0.000 A 
ATOM     16  C   UNL d   1      51.963  34.181  52.420  0.00  0.00     0.002 A 
ENDBRANCH  10  11
ENDBRANCH   1  10
TORSDOF 2
ENDMDL
MODEL 3
REMARK VINA RESULT:      -9.0      1.389      2.828
REMARK  2 active torsions:
REMARK  status: ('A' for Active; 'I' for Inactive)
REMARK    1  A    between atoms: C_6  and  N_1 
REMARK    2  A    between atoms: C_7  and  C_6 
ROOT
ATOM      1  N   UNL d   1      52.991  32.755  53.510  0.00  0.00    -0.287 N 
ATOM      2  N   UNL d   1      54.126  32.318  54.101  0.00  0.00    -0.224 NA
ATOM      3  C   UNL d   1      53.642  33.000  53.954  0.00  0.00     0.183 A 
ATOM      4  C   UNL d   1      53.052  31.960  53.378  0.00  0.00     0.083 A 
ATOM      5  C   UNL d   1      53.768  31.684  53.752  0.00  0.00     0.099 A 
ATOM      6  C   UNL d   1      52.567  31.429  52.974  0.00  0.00     0.019 A 
ATOM      7  C   UNL d   1      53.946  30.869  53.686  0.00  0.00     0.021 A 
ATOM      8  C   UNL d   1      52.774  30.632  52.930  0.00  0.00     0.002 A 
ATOM      9  C   UNL d   1      53.467  30.365  53.291  0.00  0.00     0.002 A 
ENDROOT
BRANCH   1  10
ATOM     10  C   UNL d   1      52.343  32.590  53.085  0.00  0.00     0.082 C 
BRANCH  10  11
ATOM     11  C   UNL d   1      51.808  33.197  52.928  0.00  0.00     0.018 A 
ATOM     12  C   UNL d   1      51.113  33.259  53.369  0.00  0.00     0.002 A 
ATOM     13  C   UNL d   1      50.574  33.869  53.213  0.00  0.00     0.000 A 
ATOM     14  C   UNL d   1      50.733  34.415  52.615  0.00  0.00     0.000 A 
ATOM     15  C   UNL d   1      51.431  34.351  52.173  0.00  0.00     0.000 A 
ATOM     16  C   UNL d   1      51.967  33.743  52.330  0.00  0.00     0.002 A 
ENDBRANCH  10  11
ENDBRANCH   1  10
TORSDOF 2
ENDMDL
MODEL 4
REMARK VINA RESULT:      -8.8      0.854      3.226
REMARK  2 active torsions:
REMARK  status: ('A' for Active; 'I' for Inactive)
REMARK    1  A    between atoms: C_6  and  N_1 
REMARK    2  A    between atoms: C_7  and  C_6 
ROOT
ATOM      1  N   UNL d   1      52.951  32.611  53.821  0.00  0.00    -0.287 N 
ATOM      2  N   UNL d   1      52.550  33.882  54.044  0.00  0.00    -0.224 NA
ATOM      3  C   UNL d   1      52.328  33.139  53.700  0.00  0.00     0.183 A 
ATOM      4  C   UNL d   1      53.540  32.992  54.221  0.00  0.00     0.083 A 
ATOM      5  C   UNL d   1      53.286  33.796  54.362  0.00  0.00     0.099 A 
ATOM      6  C   UNL d   1      54.279  32.741  54.487  0.00  0.00     0.019 A 
ATOM      7  C   UNL d   1      53.815  34.298  54.772  0.00  0.00     0.021 A 
ATOM      8  C   UNL d   1      54.774  33.265  54.889  0.00  0.00     0.002 A 
ATOM      9  C   UNL d   1      54.529  34.041  55.024  0.00  0.00     0.002 A 
ENDROOT
BRANCH   1  10
ATOM     10  C   UNL d   1      53.508  32.053  53.903  0.00  0.00     0.082 C 
BRANCH  10  11
ATOM     11  C   UNL d   1      53.343  31.289  53.641  0.00  0.00     0.018 A 
ATOM     12  C   UNL d   1      53.365  30.657  54.171  0.00  0.00     0.002 A 
ATOM     13  C   UNL d   1      53.200  29.888  53.911  0.00  0.00     0.000 A 
ATOM     14  C   UNL d   1      53.013  29.755  53.118  0.00  0.00     0.000 A 
ATOM     15  C   UNL d   1      52.992  30.390  52.586  0.00  0.00     0.000 A 
ATOM     16  C   UNL d   1      53.157  31.156  52.849  0.00  0.00     0.002 A 
ENDBRANCH  10  11
ENDBRANCH   1  10
TORSDOF 2
ENDMDL
MODEL 5
REMARK VINA RESULT:      -8.7      1.245      2.325
REMARK  2 active torsions:
REMARK  status: ('A' for Active; 'I' for Inactive)
REMARK    1  A    between atoms: C_6  and  N_1 
REMARK    2  A    between atoms: C_7  and  C_6 
ROOT
ATOM      1  N   UNL d   1      53.092  32.907  53.469  0.00  0.00    -0.287 N 
ATOM      2  N   UNL d   1      52.304  32.279  52.568  0.00  0.00    -0.224 NA
ATOM      3  C   UNL d   1      52.990  32.197  53.060  0.00  0.00     0.183 A 
ATOM      4  C   UNL d   1      52.505  33.417  53.252  0.00  0.00     0.083 A 
ATOM      5  C   UNL d   1      52.007  33.021  52.683  0.00  0.00     0.099 A 
ATOM      6  C   UNL d   1      52.335  34.191  53.480  0.00  0.00     0.019 A 
ATOM      7  C   UNL d   1      51.356  33.449  52.379  0.00  0.00     0.021 A 
ATOM      8  C   UNL d   1      51.684  34.583  53.158  0.00  0.00     0.002 A 
ATOM      9  C   UNL d   1      51.203  34.200  52.609  0.00  0.00     0.002 A 
ENDROOT
BRANCH   1  10
ATOM     10  C   UNL d   1      53.250  33.557  53.892  0.00  0.00     0.082 C 
BRANCH  10  11
ATOM     11  C   UNL d   1      53.906  33.555  54.391  0.00  0.00     0.018 A 
ATOM     12  C   UNL d   1      54.638  33.815  54.112  0.00  0.00     0.002 A 
ATOM     13  C   UNL d   1      55.300  33.813  54.612  0.00  0.00     0.000 A 
ATOM     14  C   UNL d   1      55.225  33.551  55.390  0.00  0.00     0.000 A 
ATOM     15  C   UNL d   1      54.489  33.290  55.669  0.00  0.00     0.000 A 
ATOM     16  C   UNL d   1      53.832  33.292  55.170  0.00  0.00     0.002 A 
ENDBRANCH  10  11
ENDBRANCH   1  10
TORSDOF 2
ENDMDL
