MODEL 1
REMARK VINA RESULT:      18.0      0.000      0.000
REMARK  1 active torsions:
REMARK  status: ('A' for Active; 'I' for Inactive)
REMARK    1  A    between atoms: N_3  and  C_1 
ROOT
ATOM      1  C   UNL d   1     -58.481 -98.766 -45.283  0.00  0.00     0.158 A 
ATOM      2  C   UNL d   1     -59.171 -98.760 -44.827  0.00  0.00     0.103 A 
ATOM      3  C   UNL d   1     -59.129 -98.759 -44.001  0.00  0.00     0.104 C 
ATOM      4  N   UNL d   1     -59.081 -98.759 -43.181  0.00  0.00    -0.191 NA
ATOM      5  N   UNL d   1     -58.531 -98.767 -46.107  0.00  0.00    -0.226 NA
ATOM      6  C   UNL d   1     -59.909 -98.755 -45.196  0.00  0.00     0.015 A 
ATOM      7  C   UNL d   1     -59.268 -98.762 -46.474  0.00  0.00     0.101 A 
ATOM      8  C   UNL d   1     -59.958 -98.756 -46.017  0.00  0.00     0.021 A 
ENDROOT
BRANCH   1   9
ATOM      9  N   UNL d   1     -57.748 -98.772 -44.915  0.00  0.00    -0.286 N 
ATOM     10  C   UNL d   1     -57.703 -98.792 -44.088  0.00  0.00     0.102 A 
ATOM     11  C   UNL d   1     -56.971 -98.797 -43.720  0.00  0.00     0.118 A 
ATOM     12  N   UNL d   1     -56.282 -98.782 -44.165  0.00  0.00    -0.239 NA
ATOM     13  C   UNL d   1     -56.327 -98.763 -44.987  0.00  0.00     0.118 A 
ATOM     14  C   UNL d   1     -57.060 -98.757 -45.364  0.00  0.00     0.102 A 
ENDBRANCH   1   9
TORSDOF 1
ENDMDL
MODEL 2
REMARK VINA RESULT:      20.4      0.798      1.873
REMARK  1 active torsions:
REMARK  status: ('A' for Active; 'I' for Inactive)
REMARK    1  A    between atoms: N_3  and  C_1 
ROOT
ATOM      1  C   UNL d   1     -58.126 -98.867 -43.926  0.00  0.00     0.158 A 
ATOM      2  C   UNL d   1     -58.807 -98.806 -44.393  0.00  0.00     0.103 A 
ATOM      3  C   UNL d   1     -58.751 -98.788 -45.217  0.00  0.00     0.104 C 
ATOM      4  N   UNL d   1     -58.688 -98.771 -46.036  0.00  0.00    -0.191 NA
ATOM      5  N   UNL d   1     -58.191 -98.884 -43.103  0.00  0.00    -0.226 NA
ATOM      6  C   UNL d   1     -59.550 -98.762 -44.035  0.00  0.00     0.015 A 
ATOM      7  C   UNL d   1     -58.932 -98.841 -42.748  0.00  0.00     0.101 A 
ATOM      8  C   UNL d   1     -59.613 -98.780 -43.215  0.00  0.00     0.021 A 
ENDROOT
BRANCH   1   9
ATOM      9  N   UNL d   1     -57.389 -98.910 -44.283  0.00  0.00    -0.286 N 
ATOM     10  C   UNL d   1     -56.724 -99.111 -43.832  0.00  0.00     0.102 A 
ATOM     11  C   UNL d   1     -55.988 -99.154 -44.189  0.00  0.00     0.118 A 
ATOM     12  N   UNL d   1     -55.905 -99.000 -44.990  0.00  0.00    -0.239 NA
ATOM     13  C   UNL d   1     -56.567 -98.800 -45.439  0.00  0.00     0.118 A 
ATOM     14  C   UNL d   1     -57.310 -98.755 -45.086  0.00  0.00     0.102 A 
ENDBRANCH   1   9
TORSDOF 1
ENDMDL
