MODEL 1
REMARK VINA RESULT:       1.1      0.000      0.000
REMARK  9 active torsions:
REMARK  status: ('A' for Active; 'I' for Inactive)
REMARK    1  A    between atoms: N_5  and  S_1 
REMARK    2  A    between atoms: C_8  and  S_1 
REMARK    3  A    between atoms: C_2  and  N_10 
REMARK    4  A    between atoms: C_9  and  N_5 
REMARK    5  A    between atoms: C_25  and  N_5 
REMARK    6  A    between atoms: C_13  and  C_9 
REMARK    7  A    between atoms: N_10  and  O_14 
REMARK    8  A    between atoms: C_17  and  C_13 
REMARK    9  A    between atoms: O_14  and  C_17 
ROOT
ATOM      1  C   UNL d   1     -41.172-123.087 -51.813  0.00  0.00     0.240 C 
ATOM      2  O   UNL d   1     -41.132-123.809 -52.220  0.00  0.00    -0.283 OA
ENDROOT
BRANCH   1   3
ATOM      3  C   UNL d   1     -41.249-122.749 -52.567  0.00  0.00     0.136 C 
BRANCH   3   4
ATOM      4  N   UNL d   1     -41.783-122.126 -52.677  0.00  0.00    -0.226 N 
BRANCH   4   5
ATOM      5  S   UNL d   1     -42.084-121.963 -53.433  0.00  0.00     0.271 S 
ATOM      6  O   UNL d   1     -42.714-121.734 -52.944  0.00  0.00    -0.200 OA
ATOM      7  O   UNL d   1     -41.595-122.127 -54.076  0.00  0.00    -0.200 OA
BRANCH   5   8
ATOM      8  C   UNL d   1     -42.154-121.891 -54.248  0.00  0.00     0.104 A 
ATOM      9  C   UNL d   1     -42.780-122.248 -54.640  0.00  0.00     0.013 A 
ATOM     10  C   UNL d   1     -42.849-122.174 -55.463  0.00  0.00     0.001 A 
ATOM     11  C   UNL d   1     -42.284-121.739 -55.888  0.00  0.00     0.000 A 
ATOM     12  C   UNL d   1     -41.676-121.403 -55.442  0.00  0.00     0.001 A 
ATOM     13  C   UNL d   1     -42.332-121.652 -56.709  0.00  0.00     0.000 C 
ATOM     14  C   UNL d   1     -41.574-121.453 -54.631  0.00  0.00     0.013 A 
ENDBRANCH   5   8
ENDBRANCH   4   5
BRANCH   4  15
ATOM     15  C   UNL d   1     -42.111-121.581 -52.150  0.00  0.00     0.092 C 
ATOM     16  C   UNL d   1     -41.687-120.902 -51.947  0.00  0.00     0.021 C 
ENDBRANCH   4  15
ENDBRANCH   3   4
ENDBRANCH   1   3
BRANCH   1  17
ATOM     17  C   UNL d   1     -41.124-123.066 -50.991  0.00  0.00     0.193 C 
BRANCH  17  18
ATOM     18  O   UNL d   1     -41.685-123.471 -50.539  0.00  0.00    -0.206 OA
BRANCH  18  19
ATOM     19  N   UNL d   1     -41.492-123.743 -49.786  0.00  0.00    -0.126 NA
BRANCH  19  20
ATOM     20  C   UNL d   1     -42.038-123.678 -49.167  0.00  0.00     0.108 A 
ATOM     21  C   UNL d   1     -41.854-123.573 -48.367  0.00  0.00     0.020 A 
ATOM     22  C   UNL d   1     -42.564-123.537 -47.946  0.00  0.00     0.002 A 
ATOM     23  C   UNL d   1     -41.135-123.506 -47.967  0.00  0.00     0.002 A 
ATOM     24  C   UNL d   1     -42.554-123.434 -47.127  0.00  0.00     0.000 A 
ATOM     25  C   UNL d   1     -43.187-123.618 -48.476  0.00  0.00     0.002 A 
ATOM     26  C   UNL d   1     -41.835-123.368 -46.729  0.00  0.00     0.000 A 
ATOM     27  C   UNL d   1     -41.125-123.403 -47.148  0.00  0.00     0.000 A 
ATOM     28  C   UNL d   1     -42.860-123.705 -49.229  0.00  0.00     0.020 A 
ATOM     29  C   UNL d   1     -44.005-123.626 -48.382  0.00  0.00     0.000 A 
ATOM     30  C   UNL d   1     -43.348-123.799 -49.885  0.00  0.00     0.002 A 
ATOM     31  C   UNL d   1     -44.166-123.806 -49.791  0.00  0.00     0.000 A 
ATOM     32  C   UNL d   1     -44.496-123.719 -49.036  0.00  0.00     0.000 A 
ENDBRANCH  19  20
ENDBRANCH  18  19
ENDBRANCH  17  18
ENDBRANCH   1  17
TORSDOF 9
ENDMDL
