MODEL 1
REMARK VINA RESULT:      -3.6      0.000      0.000
REMARK  5 active torsions:
REMARK  status: ('A' for Active; 'I' for Inactive)
REMARK    1  A    between atoms: N_5  and  C_1 
REMARK       I    between atoms: C_9  and  N_5 
REMARK    2  A    between atoms: C_17  and  C_9 
REMARK    3  A    between atoms: C_12  and  C_10 
REMARK    4  A    between atoms: C_11  and  S_13 
REMARK    5  A    between atoms: S_13  and  C_17 
ROOT
ATOM      1  N   UNL d   1      32.429  18.344 -23.916  0.00  0.00    -0.148 NA
ATOM      2  N   UNL d   1      32.591  19.079 -23.579  0.00  0.00    -0.141 NA
ATOM      3  C   UNL d   1      32.673  17.649 -23.536  0.00  0.00     0.104 A 
ATOM      4  C   UNL d   1      32.993  19.132 -22.867  0.00  0.00     0.133 A 
ATOM      5  C   UNL d   1      33.079  17.700 -22.817  0.00  0.00     0.023 A 
ATOM      6  C   UNL d   1      33.239  18.434 -22.483  0.00  0.00     0.029 A 
ENDROOT
BRANCH   4   7
ATOM      7  S   UNL d   1      33.155  19.867 -22.530  0.00  0.00    -0.061 SA
BRANCH   7   8
ATOM      8  C   UNL d   1      32.794  20.090 -21.827  0.00  0.00     0.099 C 
BRANCH   8   9
ATOM      9  C   UNL d   1      32.773  20.889 -21.614  0.00  0.00     0.288 C 
ATOM     10  N   UNL d   1      32.283  21.137 -21.002  0.00  0.00    -0.181 NA
ATOM     11  O   UNL d   1      33.241  21.435 -22.012  0.00  0.00    -0.265 OA
BRANCH  10  12
ATOM     12  C   UNL d   1      32.260  21.926 -20.789  0.00  0.00     0.219 A 
ATOM     13  S   UNL d   1      32.660  22.271 -20.150  0.00  0.00    -0.026 SA
ATOM     14  C   UNL d   1      32.482  23.067 -20.142  0.00  0.00     0.135 A 
ATOM     15  C   UNL d   1      32.762  23.623 -19.598  0.00  0.00     0.030 C 
ATOM     16  N   UNL d   1      31.973  23.222 -20.770  0.00  0.00    -0.139 NA
ATOM     17  N   UNL d   1      31.834  22.516 -21.171  0.00  0.00    -0.121 NA
ENDBRANCH  10  12
ENDBRANCH   8   9
ENDBRANCH   7   8
ENDBRANCH   4   7
BRANCH   3  18
ATOM     18  C   UNL d   1      32.511  16.914 -23.873  0.00  0.00     0.039 A 
ATOM     19  C   UNL d   1      32.983  16.634 -24.474  0.00  0.00     0.101 A 
ATOM     20  N   UNL d   1      32.826  15.905 -24.812  0.00  0.00    -0.242 NA
ATOM     21  C   UNL d   1      32.183  15.453 -24.539  0.00  0.00     0.099 A 
ATOM     22  C   UNL d   1      31.712  15.739 -23.934  0.00  0.00     0.021 A 
ATOM     23  C   UNL d   1      31.867  16.473 -23.590  0.00  0.00     0.005 A 
ENDBRANCH   3  18
TORSDOF 5
ENDMDL
MODEL 2
REMARK VINA RESULT:      -3.2      1.369      5.998
REMARK  5 active torsions:
REMARK  status: ('A' for Active; 'I' for Inactive)
REMARK    1  A    between atoms: N_5  and  C_1 
REMARK       I    between atoms: C_9  and  N_5 
REMARK    2  A    between atoms: C_17  and  C_9 
REMARK    3  A    between atoms: C_12  and  C_10 
REMARK    4  A    between atoms: C_11  and  S_13 
REMARK    5  A    between atoms: S_13  and  C_17 
ROOT
ATOM      1  N   UNL d   1      32.726  20.899 -21.018  0.00  0.00    -0.148 NA
ATOM      2  N   UNL d   1      32.846  20.245 -21.507  0.00  0.00    -0.141 NA
ATOM      3  C   UNL d   1      32.863  21.664 -21.307  0.00  0.00     0.104 A 
ATOM      4  C   UNL d   1      33.100  20.343 -22.279  0.00  0.00     0.133 A 
ATOM      5  C   UNL d   1      33.120  21.766 -22.086  0.00  0.00     0.023 A 
ATOM      6  C   UNL d   1      33.239  21.112 -22.571  0.00  0.00     0.029 A 
ENDROOT
BRANCH   4   7
ATOM      7  S   UNL d   1      33.221  19.689 -22.767  0.00  0.00    -0.061 SA
BRANCH   7   8
ATOM      8  C   UNL d   1      32.936  18.951 -22.550  0.00  0.00     0.099 C 
BRANCH   8   9
ATOM      9  C   UNL d   1      32.920  18.339 -23.107  0.00  0.00     0.288 C 
ATOM     10  N   UNL d   1      32.584  17.615 -22.910  0.00  0.00    -0.181 NA
ATOM     11  O   UNL d   1      33.240  18.454 -23.855  0.00  0.00    -0.265 OA
BRANCH  10  12
ATOM     12  C   UNL d   1      32.566  17.008 -23.458  0.00  0.00     0.219 A 
ATOM     13  S   UNL d   1      31.890  16.701 -23.825  0.00  0.00    -0.026 SA
ATOM     14  C   UNL d   1      32.125  16.105 -24.329  0.00  0.00     0.135 A 
ATOM     15  C   UNL d   1      31.629  15.647 -24.807  0.00  0.00     0.030 C 
ATOM     16  N   UNL d   1      32.944  16.038 -24.280  0.00  0.00    -0.139 NA
ATOM     17  N   UNL d   1      33.219  16.596 -23.741  0.00  0.00    -0.121 NA
ENDBRANCH  10  12
ENDBRANCH   8   9
ENDBRANCH   7   8
ENDBRANCH   4   7
BRANCH   3  18
ATOM     18  C   UNL d   1      32.742  22.318 -20.818  0.00  0.00     0.039 A 
ATOM     19  C   UNL d   1      33.169  22.390 -20.129  0.00  0.00     0.101 A 
ATOM     20  N   UNL d   1      33.053  23.037 -19.641  0.00  0.00    -0.242 NA
ATOM     21  C   UNL d   1      32.498  23.620 -19.852  0.00  0.00     0.099 A 
ATOM     22  C   UNL d   1      32.072  23.543 -20.546  0.00  0.00     0.021 A 
ATOM     23  C   UNL d   1      32.185  22.892 -21.041  0.00  0.00     0.005 A 
ENDBRANCH   3  18
TORSDOF 5
ENDMDL
MODEL 3
REMARK VINA RESULT:      -2.2      1.047      1.251
REMARK  5 active torsions:
REMARK  status: ('A' for Active; 'I' for Inactive)
REMARK    1  A    between atoms: N_5  and  C_1 
REMARK       I    between atoms: C_9  and  N_5 
REMARK    2  A    between atoms: C_17  and  C_9 
REMARK    3  A    between atoms: C_12  and  C_10 
REMARK    4  A    between atoms: C_11  and  S_13 
REMARK    5  A    between atoms: S_13  and  C_17 
ROOT
ATOM      1  N   UNL d   1      31.534  18.075 -24.214  0.00  0.00    -0.148 NA
ATOM      2  N   UNL d   1      32.015  18.696 -23.961  0.00  0.00    -0.141 NA
ATOM      3  C   UNL d   1      31.650  17.311 -23.914  0.00  0.00     0.104 A 
ATOM      4  C   UNL d   1      32.610  18.566 -23.414  0.00  0.00     0.133 A 
ATOM      5  C   UNL d   1      32.251  17.177 -23.361  0.00  0.00     0.023 A 
ATOM      6  C   UNL d   1      32.729  17.798 -23.111  0.00  0.00     0.029 A 
ENDROOT
BRANCH   4   7
ATOM      7  S   UNL d   1      33.091  19.187 -23.161  0.00  0.00    -0.061 SA
BRANCH   7   8
ATOM      8  C   UNL d   1      33.073  19.434 -22.379  0.00  0.00     0.099 C 
BRANCH   8   9
ATOM      9  C   UNL d   1      33.029  20.242 -22.207  0.00  0.00     0.288 C 
ATOM     10  N   UNL d   1      32.771  20.489 -21.466  0.00  0.00    -0.181 NA
ATOM     11  O   UNL d   1      33.240  20.797 -22.774  0.00  0.00    -0.265 OA
BRANCH  10  12
ATOM     12  C   UNL d   1      32.726  21.287 -21.292  0.00  0.00     0.219 A 
ATOM     13  S   UNL d   1      32.217  21.639 -20.741  0.00  0.00    -0.026 SA
ATOM     14  C   UNL d   1      32.356  22.442 -20.746  0.00  0.00     0.135 A 
ATOM     15  C   UNL d   1      31.970  23.005 -20.280  0.00  0.00     0.030 C 
ATOM     16  N   UNL d   1      32.948  22.595 -21.297  0.00  0.00    -0.139 NA
ATOM     17  N   UNL d   1      33.178  21.881 -21.636  0.00  0.00    -0.121 NA
ENDBRANCH  10  12
ENDBRANCH   8   9
ENDBRANCH   7   8
ENDBRANCH   4   7
BRANCH   3  18
ATOM     18  C   UNL d   1      31.170  16.690 -24.166  0.00  0.00     0.039 A 
ATOM     19  C   UNL d   1      31.445  16.170 -24.729  0.00  0.00     0.101 A 
ATOM     20  N   UNL d   1      30.971  15.552 -24.982  0.00  0.00    -0.242 NA
ATOM     21  C   UNL d   1      30.208  15.459 -24.663  0.00  0.00     0.099 A 
ATOM     22  C   UNL d   1      29.936  15.984 -24.099  0.00  0.00     0.021 A 
ATOM     23  C   UNL d   1      30.410  16.609 -23.840  0.00  0.00     0.005 A 
ENDBRANCH   3  18
TORSDOF 5
ENDMDL
MODEL 4
REMARK VINA RESULT:      -1.6      1.388      6.211
REMARK  5 active torsions:
REMARK  status: ('A' for Active; 'I' for Inactive)
REMARK    1  A    between atoms: N_5  and  C_1 
REMARK       I    between atoms: C_9  and  N_5 
REMARK    2  A    between atoms: C_17  and  C_9 
REMARK    3  A    between atoms: C_12  and  C_10 
REMARK    4  A    between atoms: C_11  and  S_13 
REMARK    5  A    between atoms: S_13  and  C_17 
ROOT
ATOM      1  N   UNL d   1      32.400  21.562 -19.595  0.00  0.00    -0.148 NA
ATOM      2  N   UNL d   1      32.416  21.181 -20.326  0.00  0.00    -0.141 NA
ATOM      3  C   UNL d   1      32.776  22.294 -19.499  0.00  0.00     0.104 A 
ATOM      4  C   UNL d   1      32.803  21.519 -20.964  0.00  0.00     0.133 A 
ATOM      5  C   UNL d   1      33.168  22.638 -20.142  0.00  0.00     0.023 A 
ATOM      6  C   UNL d   1      33.182  22.256 -20.870  0.00  0.00     0.029 A 
ENDROOT
BRANCH   4   7
ATOM      7  S   UNL d   1      32.819  21.138 -21.695  0.00  0.00    -0.061 SA
BRANCH   7   8
ATOM      8  C   UNL d   1      33.035  20.348 -21.747  0.00  0.00     0.099 C 
BRANCH   8   9
ATOM      9  C   UNL d   1      33.011  19.966 -22.480  0.00  0.00     0.288 C 
ATOM     10  N   UNL d   1      32.758  19.184 -22.526  0.00  0.00    -0.181 NA
ATOM     11  O   UNL d   1      33.241  20.364 -23.161  0.00  0.00    -0.265 OA
BRANCH  10  12
ATOM     12  C   UNL d   1      32.733  18.803 -23.250  0.00  0.00     0.219 A 
ATOM     13  S   UNL d   1      33.055  18.059 -23.420  0.00  0.00    -0.026 SA
ATOM     14  C   UNL d   1      32.905  17.893 -24.204  0.00  0.00     0.135 A 
ATOM     15  C   UNL d   1      33.128  17.207 -24.608  0.00  0.00     0.030 C 
ATOM     16  N   UNL d   1      32.491  18.529 -24.525  0.00  0.00    -0.139 NA
ATOM     17  N   UNL d   1      32.384  19.093 -23.936  0.00  0.00    -0.121 NA
ENDBRANCH  10  12
ENDBRANCH   8   9
ENDBRANCH   7   8
ENDBRANCH   4   7
BRANCH   3  18
ATOM     18  C   UNL d   1      32.760  22.675 -18.768  0.00  0.00     0.039 A 
ATOM     19  C   UNL d   1      32.276  23.321 -18.660  0.00  0.00     0.101 A 
ATOM     20  N   UNL d   1      32.257  23.702 -17.936  0.00  0.00    -0.242 NA
ATOM     21  C   UNL d   1      32.733  23.427 -17.311  0.00  0.00     0.099 A 
ATOM     22  C   UNL d   1      33.217  22.778 -17.424  0.00  0.00     0.021 A 
ATOM     23  C   UNL d   1      33.240  22.390 -18.153  0.00  0.00     0.005 A 
ENDBRANCH   3  18
TORSDOF 5
ENDMDL
MODEL 5
REMARK VINA RESULT:      -1.4      1.754      2.945
REMARK  5 active torsions:
REMARK  status: ('A' for Active; 'I' for Inactive)
REMARK    1  A    between atoms: N_5  and  C_1 
REMARK       I    between atoms: C_9  and  N_5 
REMARK    2  A    between atoms: C_17  and  C_9 
REMARK    3  A    between atoms: C_12  and  C_10 
REMARK    4  A    between atoms: C_11  and  S_13 
REMARK    5  A    between atoms: S_13  and  C_17 
ROOT
ATOM      1  N   UNL d   1      32.264  20.073 -21.460  0.00  0.00    -0.148 NA
ATOM      2  N   UNL d   1      32.222  20.783 -21.041  0.00  0.00    -0.141 NA
ATOM      3  C   UNL d   1      32.730  20.021 -22.144  0.00  0.00     0.104 A 
ATOM      4  C   UNL d   1      32.638  21.442 -21.295  0.00  0.00     0.133 A 
ATOM      5  C   UNL d   1      33.151  20.684 -22.402  0.00  0.00     0.023 A 
ATOM      6  C   UNL d   1      33.107  21.391 -21.982  0.00  0.00     0.029 A 
ENDROOT
BRANCH   4   7
ATOM      7  S   UNL d   1      32.596  22.151 -20.877  0.00  0.00    -0.061 SA
BRANCH   7   8
ATOM      8  C   UNL d   1      33.223  22.393 -20.405  0.00  0.00     0.099 C 
BRANCH   8   9
ATOM      9  C   UNL d   1      33.072  22.815 -19.710  0.00  0.00     0.288 C 
ATOM     10  N   UNL d   1      33.029  22.418 -18.991  0.00  0.00    -0.181 NA
ATOM     11  O   UNL d   1      32.965  23.629 -19.737  0.00  0.00    -0.265 OA
BRANCH  10  12
ATOM     12  C   UNL d   1      32.880  22.832 -18.302  0.00  0.00     0.219 A 
ATOM     13  S   UNL d   1      33.241  22.703 -17.567  0.00  0.00    -0.026 SA
ATOM     14  C   UNL d   1      32.929  23.238 -17.037  0.00  0.00     0.135 A 
ATOM     15  C   UNL d   1      33.132  23.306 -16.237  0.00  0.00     0.030 C 
ATOM     16  N   UNL d   1      32.376  23.701 -17.434  0.00  0.00    -0.139 NA
ATOM     17  N   UNL d   1      32.345  23.451 -18.218  0.00  0.00    -0.121 NA
ENDBRANCH  10  12
ENDBRANCH   8   9
ENDBRANCH   7   8
ENDBRANCH   4   7
BRANCH   3  18
ATOM     18  C   UNL d   1      32.771  19.311 -22.562  0.00  0.00     0.039 A 
ATOM     19  C   UNL d   1      33.109  18.657 -22.214  0.00  0.00     0.101 A 
ATOM     20  N   UNL d   1      33.153  17.951 -22.625  0.00  0.00    -0.242 NA
ATOM     21  C   UNL d   1      32.851  17.904 -23.399  0.00  0.00     0.099 A 
ATOM     22  C   UNL d   1      32.512  18.564 -23.745  0.00  0.00     0.021 A 
ATOM     23  C   UNL d   1      32.466  19.279 -23.334  0.00  0.00     0.005 A 
ENDBRANCH   3  18
TORSDOF 5
ENDMDL
