MODEL 1
REMARK VINA RESULT:      -0.2      0.000      0.000
REMARK  13 active torsions:
REMARK  status: ('A' for Active; 'I' for Inactive)
REMARK    1  A    between atoms: C_21  and  N_1 
REMARK    2  A    between atoms: C_7  and  N_3 
REMARK    3  A    between atoms: C_8  and  C_7 
REMARK       I    between atoms: N_12  and  C_8 
REMARK    4  A    between atoms: C_11  and  C_22 
REMARK    5  A    between atoms: C_26  and  N_12 
REMARK    6  A    between atoms: C_27  and  N_12 
REMARK    7  A    between atoms: C_13  and  C_25 
REMARK       I    between atoms: N_15  and  C_13 
REMARK    8  A    between atoms: C_22  and  N_15 
REMARK    9  A    between atoms: C_28  and  C_21 
REMARK   10  A    between atoms: C_25  and  C_31 
REMARK   11  A    between atoms: C_29  and  C_26 
REMARK   12  A    between atoms: C_30  and  C_27 
REMARK   13  A    between atoms: C_31  and  C_28 
ROOT
ATOM      1  N   UNL d   1      31.816  18.184 -24.031  0.00  0.00    -0.226 N 
ATOM      2  C   UNL d   1      31.113  17.753 -24.060  0.00  0.00     0.342 A 
ATOM      3  N   UNL d   1      31.120  16.969 -24.334  0.00  0.00    -0.254 N 
ATOM      4  C   UNL d   1      32.526  17.830 -24.276  0.00  0.00     0.270 A 
ATOM      5  C   UNL d   1      32.530  17.054 -24.547  0.00  0.00     0.073 A 
ATOM      6  C   UNL d   1      31.827  16.623 -24.576  0.00  0.00     0.073 A 
ATOM      7  O   UNL d   1      30.400  18.101 -23.816  0.00  0.00    -0.245 OA
ATOM      8  O   UNL d   1      33.229  18.261 -24.247  0.00  0.00    -0.266 OA
ATOM      9  C   UNL d   1      33.236  16.706 -24.789  0.00  0.00     0.006 A 
ATOM     10  C   UNL d   1      31.830  15.845 -24.847  0.00  0.00     0.018 A 
ATOM     11  C   UNL d   1      33.239  15.929 -25.060  0.00  0.00     0.000 A 
ATOM     12  C   UNL d   1      32.536  15.499 -25.089  0.00  0.00     0.002 A 
ENDROOT
BRANCH   1  13
ATOM     13  C   UNL d   1      31.810  18.965 -23.758  0.00  0.00     0.087 C 
BRANCH  13  14
ATOM     14  C   UNL d   1      32.382  19.225 -23.224  0.00  0.00     0.019 C 
BRANCH  14  15
ATOM     15  C   UNL d   1      32.496  20.031 -23.091  0.00  0.00     0.006 C 
BRANCH  15  16
ATOM     16  C   UNL d   1      33.086  20.287 -22.562  0.00  0.00     0.063 C 
BRANCH  16  17
ATOM     17  C   UNL d   1      32.897  20.442 -21.776  0.00  0.00     0.279 C 
ATOM     18  N   UNL d   1      32.844  21.221 -21.510  0.00  0.00    -0.204 NA
ATOM     19  O   UNL d   1      32.759  19.817 -21.253  0.00  0.00    -0.265 OA
BRANCH  18  20
ATOM     20  C   UNL d   1      32.655  21.376 -20.724  0.00  0.00     0.127 C 
BRANCH  20  21
ATOM     21  C   UNL d   1      32.691  22.152 -20.434  0.00  0.00     0.119 A 
ATOM     22  O   UNL d   1      33.229  22.430 -19.864  0.00  0.00    -0.304 OA
ATOM     23  C   UNL d   1      33.066  23.238 -19.739  0.00  0.00     0.123 A 
ATOM     24  C   UNL d   1      32.433  23.452 -20.230  0.00  0.00     0.029 A 
ATOM     25  C   UNL d   1      32.201  22.781 -20.659  0.00  0.00     0.028 A 
ENDBRANCH  20  21
ENDBRANCH  18  20
ENDBRANCH  16  17
ENDBRANCH  15  16
ENDBRANCH  14  15
ENDBRANCH  13  14
ENDBRANCH   1  13
BRANCH   3  26
ATOM     26  C   UNL d   1      30.417  16.538 -24.363  0.00  0.00     0.146 C 
BRANCH  26  27
ATOM     27  C   UNL d   1      30.102  16.217 -23.673  0.00  0.00     0.283 C 
ATOM     28  N   UNL d   1      29.339  15.893 -23.677  0.00  0.00    -0.271 N 
ATOM     29  O   UNL d   1      30.546  16.217 -22.980  0.00  0.00    -0.265 OA
BRANCH  28  30
ATOM     30  C   UNL d   1      29.023  15.572 -22.988  0.00  0.00     0.083 C 
BRANCH  30  31
ATOM     31  C   UNL d   1      29.414  15.670 -22.269  0.00  0.00     0.019 C 
ATOM     32  C   UNL d   1      29.043  15.454 -21.566  0.00  0.00     0.002 C 
ENDBRANCH  30  31
ENDBRANCH  28  30
BRANCH  28  33
ATOM     33  C   UNL d   1      28.894  15.892 -24.371  0.00  0.00     0.083 C 
BRANCH  33  34
ATOM     34  C   UNL d   1      28.088  16.057 -24.341  0.00  0.00     0.019 C 
ATOM     35  C   UNL d   1      27.564  15.643 -24.828  0.00  0.00     0.002 C 
ENDBRANCH  33  34
ENDBRANCH  28  33
ENDBRANCH  26  27
ENDBRANCH   3  26
TORSDOF 13
ENDMDL
MODEL 2
REMARK VINA RESULT:       0.7      1.690      6.460
REMARK  13 active torsions:
REMARK  status: ('A' for Active; 'I' for Inactive)
REMARK    1  A    between atoms: C_21  and  N_1 
REMARK    2  A    between atoms: C_7  and  N_3 
REMARK    3  A    between atoms: C_8  and  C_7 
REMARK       I    between atoms: N_12  and  C_8 
REMARK    4  A    between atoms: C_11  and  C_22 
REMARK    5  A    between atoms: C_26  and  N_12 
REMARK    6  A    between atoms: C_27  and  N_12 
REMARK    7  A    between atoms: C_13  and  C_25 
REMARK       I    between atoms: N_15  and  C_13 
REMARK    8  A    between atoms: C_22  and  N_15 
REMARK    9  A    between atoms: C_28  and  C_21 
REMARK   10  A    between atoms: C_25  and  C_31 
REMARK   11  A    between atoms: C_29  and  C_26 
REMARK   12  A    between atoms: C_30  and  C_27 
REMARK   13  A    between atoms: C_31  and  C_28 
ROOT
ATOM      1  N   UNL d   1      33.206  20.727 -23.538  0.00  0.00    -0.226 N 
ATOM      2  C   UNL d   1      33.222  20.985 -22.754  0.00  0.00     0.342 A 
ATOM      3  N   UNL d   1      33.225  21.799 -22.587  0.00  0.00    -0.254 N 
ATOM      4  C   UNL d   1      33.193  21.283 -24.154  0.00  0.00     0.270 A 
ATOM      5  C   UNL d   1      33.197  22.088 -23.985  0.00  0.00     0.073 A 
ATOM      6  C   UNL d   1      33.212  22.346 -23.201  0.00  0.00     0.073 A 
ATOM      7  O   UNL d   1      33.234  20.434 -22.134  0.00  0.00    -0.245 OA
ATOM      8  O   UNL d   1      33.178  21.026 -24.938  0.00  0.00    -0.266 OA
ATOM      9  C   UNL d   1      33.184  22.637 -24.599  0.00  0.00     0.006 A 
ATOM     10  C   UNL d   1      33.215  23.152 -23.032  0.00  0.00     0.018 A 
ATOM     11  C   UNL d   1      33.187  23.442 -24.430  0.00  0.00     0.000 A 
ATOM     12  C   UNL d   1      33.203  23.700 -23.646  0.00  0.00     0.002 A 
ENDROOT
BRANCH   1  13
ATOM     13  C   UNL d   1      33.203  19.917 -23.705  0.00  0.00     0.087 C 
BRANCH  13  14
ATOM     14  C   UNL d   1      32.735  19.618 -24.316  0.00  0.00     0.019 C 
BRANCH  14  15
ATOM     15  C   UNL d   1      32.831  18.843 -24.577  0.00  0.00     0.006 C 
BRANCH  15  16
ATOM     16  C   UNL d   1      32.829  18.215 -24.030  0.00  0.00     0.063 C 
BRANCH  16  17
ATOM     17  C   UNL d   1      32.453  17.506 -24.217  0.00  0.00     0.279 C 
ATOM     18  N   UNL d   1      31.689  17.358 -23.941  0.00  0.00    -0.204 NA
ATOM     19  O   UNL d   1      32.841  16.943 -24.681  0.00  0.00    -0.265 OA
BRANCH  18  20
ATOM     20  C   UNL d   1      31.314  16.650 -24.128  0.00  0.00     0.127 C 
BRANCH  20  21
ATOM     21  C   UNL d   1      30.515  16.540 -23.937  0.00  0.00     0.119 A 
ATOM     22  O   UNL d   1      29.870  16.745 -24.419  0.00  0.00    -0.304 OA
ATOM     23  C   UNL d   1      29.175  16.537 -24.008  0.00  0.00     0.123 A 
ATOM     24  C   UNL d   1      29.395  16.207 -23.280  0.00  0.00     0.029 A 
ATOM     25  C   UNL d   1      30.223  16.209 -23.236  0.00  0.00     0.028 A 
ENDBRANCH  20  21
ENDBRANCH  18  20
ENDBRANCH  16  17
ENDBRANCH  15  16
ENDBRANCH  14  15
ENDBRANCH  13  14
ENDBRANCH   1  13
BRANCH   3  26
ATOM     26  C   UNL d   1      33.240  22.056 -21.803  0.00  0.00     0.146 C 
BRANCH  26  27
ATOM     27  C   UNL d   1      32.559  22.361 -21.456  0.00  0.00     0.283 C 
ATOM     28  N   UNL d   1      32.447  22.298 -20.637  0.00  0.00    -0.271 N 
ATOM     29  O   UNL d   1      31.989  22.728 -21.923  0.00  0.00    -0.265 OA
BRANCH  28  30
ATOM     30  C   UNL d   1      31.766  22.602 -20.289  0.00  0.00     0.083 C 
BRANCH  30  31
ATOM     31  C   UNL d   1      31.714  23.407 -20.114  0.00  0.00     0.019 C 
ATOM     32  C   UNL d   1      31.056  23.701 -19.715  0.00  0.00     0.002 C 
ENDBRANCH  30  31
ENDBRANCH  28  30
BRANCH  28  33
ATOM     33  C   UNL d   1      33.017  21.931 -20.169  0.00  0.00     0.083 C 
BRANCH  33  34
ATOM     34  C   UNL d   1      32.923  21.909 -19.352  0.00  0.00     0.019 C 
ATOM     35  C   UNL d   1      33.240  21.281 -18.916  0.00  0.00     0.002 C 
ENDBRANCH  33  34
ENDBRANCH  28  33
ENDBRANCH  26  27
ENDBRANCH   3  26
TORSDOF 13
ENDMDL
