MODEL 1
REMARK VINA RESULT:      -6.3      0.000      0.000
REMARK  4 active torsions:
REMARK  status: ('A' for Active; 'I' for Inactive)
REMARK    1  A    between atoms: C_3  and  C_1 
REMARK    2  A    between atoms: C_4  and  C_3 
REMARK    3  A    between atoms: C_7  and  C_4 
REMARK    4  A    between atoms: C_14  and  C_7 
ROOT
ATOM      1  C   UNL d   1     -41.646-122.543 -51.514  0.00  0.00     0.042 C 
ENDROOT
BRANCH   1   2
ATOM      2  C   UNL d   1     -41.585-122.200 -50.759  0.00  0.00     0.199 C 
ATOM      3  O   UNL d   1     -41.205-121.435 -50.667  0.00  0.00    -0.286 OA
BRANCH   2   4
ATOM      4  C   UNL d   1     -41.882-122.592 -50.126  0.00  0.00     0.078 A 
ATOM      5  C   UNL d   1     -42.678-122.523 -49.918  0.00  0.00     0.199 A 
ATOM      6  C   UNL d   1     -42.971-122.929 -49.268  0.00  0.00     0.042 A 
ATOM      7  O   UNL d   1     -43.203-122.037 -50.365  0.00  0.00    -0.286 OA
ATOM      8  C   UNL d   1     -42.469-123.409 -48.821  0.00  0.00     0.003 A 
ATOM      9  C   UNL d   1     -41.673-123.478 -49.028  0.00  0.00     0.000 A 
ATOM     10  C   UNL d   1     -42.762-123.816 -48.170  0.00  0.00     0.000 C 
ATOM     11  C   UNL d   1     -41.380-123.068 -49.683  0.00  0.00     0.006 A 
ENDBRANCH   2   4
ENDBRANCH   1   2
BRANCH   1  12
ATOM     12  C   UNL d   1     -41.123-122.322 -52.116  0.00  0.00     0.003 C 
BRANCH  12  13
ATOM     13  C   UNL d   1     -41.308-122.485 -52.899  0.00  0.00     0.002 A 
ATOM     14  C   UNL d   1     -41.651-121.899 -53.371  0.00  0.00     0.027 A 
ATOM     15  C   UNL d   1     -41.836-122.063 -54.155  0.00  0.00     0.123 A 
ATOM     16  O   UNL d   1     -42.181-121.475 -54.632  0.00  0.00    -0.301 OA
ATOM     17  C   UNL d   1     -41.681-122.809 -54.471  0.00  0.00     0.123 A 
ATOM     18  C   UNL d   1     -42.368-121.636 -55.421  0.00  0.00     0.149 A 
ATOM     19  C   UNL d   1     -42.214-122.383 -55.737  0.00  0.00     0.149 A 
ATOM     20  O   UNL d   1     -41.871-122.967 -55.265  0.00  0.00    -0.301 OA
ATOM     21  C   UNL d   1     -41.341-123.392 -54.004  0.00  0.00     0.027 A 
ATOM     22  C   UNL d   1     -41.153-123.231 -53.216  0.00  0.00     0.002 A 
ENDBRANCH  12  13
ENDBRANCH   1  12
TORSDOF 4
ENDMDL
MODEL 2
REMARK VINA RESULT:      -4.4      1.007      4.998
REMARK  4 active torsions:
REMARK  status: ('A' for Active; 'I' for Inactive)
REMARK    1  A    between atoms: C_3  and  C_1 
REMARK    2  A    between atoms: C_4  and  C_3 
REMARK    3  A    between atoms: C_7  and  C_4 
REMARK    4  A    between atoms: C_14  and  C_7 
ROOT
ATOM      1  C   UNL d   1     -41.608-122.544 -52.625  0.00  0.00     0.042 C 
ENDROOT
BRANCH   1   2
ATOM      2  C   UNL d   1     -41.478-122.973 -53.326  0.00  0.00     0.199 C 
ATOM      3  O   UNL d   1     -41.124-123.755 -53.288  0.00  0.00    -0.286 OA
BRANCH   2   4
ATOM      4  C   UNL d   1     -41.685-122.647 -54.028  0.00  0.00     0.078 A 
ATOM      5  C   UNL d   1     -42.175-123.050 -54.555  0.00  0.00     0.199 A 
ATOM      6  C   UNL d   1     -42.381-122.706 -55.272  0.00  0.00     0.042 A 
ATOM      7  O   UNL d   1     -42.473-123.817 -54.373  0.00  0.00    -0.286 OA
ATOM      8  C   UNL d   1     -42.097-121.955 -55.465  0.00  0.00     0.003 A 
ATOM      9  C   UNL d   1     -41.607-121.552 -54.938  0.00  0.00     0.000 A 
ATOM     10  C   UNL d   1     -42.303-121.610 -56.182  0.00  0.00     0.000 C 
ATOM     11  C   UNL d   1     -41.401-121.900 -54.217  0.00  0.00     0.006 A 
ENDBRANCH   2   4
ENDBRANCH   1   2
BRANCH   1  12
ATOM     12  C   UNL d   1     -41.182-122.727 -51.939  0.00  0.00     0.003 C 
BRANCH  12  13
ATOM     13  C   UNL d   1     -41.550-122.684 -51.206  0.00  0.00     0.002 A 
ATOM     14  C   UNL d   1     -41.327-123.203 -50.603  0.00  0.00     0.027 A 
ATOM     15  C   UNL d   1     -41.695-123.161 -49.870  0.00  0.00     0.123 A 
ATOM     16  O   UNL d   1     -41.473-123.682 -49.261  0.00  0.00    -0.301 OA
ATOM     17  C   UNL d   1     -42.286-122.601 -49.735  0.00  0.00     0.123 A 
ATOM     18  C   UNL d   1     -41.841-123.641 -48.523  0.00  0.00     0.149 A 
ATOM     19  C   UNL d   1     -42.432-123.082 -48.387  0.00  0.00     0.149 A 
ATOM     20  O   UNL d   1     -42.655-122.563 -48.990  0.00  0.00    -0.301 OA
ATOM     21  C   UNL d   1     -42.509-122.085 -50.332  0.00  0.00     0.027 A 
ATOM     22  C   UNL d   1     -42.141-122.125 -51.071  0.00  0.00     0.002 A 
ENDBRANCH  12  13
ENDBRANCH   1  12
TORSDOF 4
ENDMDL
