MODEL 1
REMARK VINA RESULT:      50.0      0.000      0.000
REMARK  3 active torsions:
REMARK  status: ('A' for Active; 'I' for Inactive)
REMARK    1  A    between atoms: N_7  and  C_1 
REMARK    2  A    between atoms: N_10  and  N_7 
REMARK    3  A    between atoms: C_17  and  N_10 
ROOT
ATOM      1  N   UNL d   1     -50.601  26.371  33.977  0.00  0.00    -0.148 NA
ENDROOT
BRANCH   1   2
ATOM      2  N   UNL d   1     -50.601  25.870  33.307  0.00  0.00    -0.138 NA
BRANCH   2   3
ATOM      3  C   UNL d   1     -51.068  25.217  33.309  0.00  0.00     0.218 A 
ATOM      4  C   UNL d   1     -50.761  24.486  33.309  0.00  0.00     0.307 A 
ATOM      5  N   UNL d   1     -51.252  23.836  33.311  0.00  0.00    -0.150 NA
ATOM      6  O   UNL d   1     -49.929  24.391  33.306  0.00  0.00    -0.263 OA
ATOM      7  C   UNL d   1     -52.023  23.890  33.313  0.00  0.00     0.374 A 
ATOM      8  N   UNL d   1     -52.363  24.648  33.314  0.00  0.00    -0.150 NA
ATOM      9  O   UNL d   1     -52.494  23.190  33.315  0.00  0.00    -0.242 OA
ATOM     10  C   UNL d   1     -51.900  25.311  33.312  0.00  0.00     0.307 A 
ATOM     11  O   UNL d   1     -52.251  26.066  33.312  0.00  0.00    -0.263 OA
ENDBRANCH   2   3
ENDBRANCH   1   2
BRANCH   1  12
ATOM     12  C   UNL d   1     -50.122  27.053  33.966  0.00  0.00     0.105 A 
ATOM     13  C   UNL d   1     -49.700  27.192  34.649  0.00  0.00     0.048 A 
ATOM     14  C   UNL d   1     -49.211  27.856  34.687  0.00  0.00     0.124 A 
ATOM     15  O   UNL d   1     -48.788  27.996  35.370  0.00  0.00    -0.301 OA
ATOM     16  C   UNL d   1     -49.152  28.377  34.030  0.00  0.00     0.123 A 
ATOM     17  C   UNL d   1     -48.300  28.660  35.407  0.00  0.00     0.149 A 
ATOM     18  C   UNL d   1     -48.240  29.181  34.751  0.00  0.00     0.149 A 
ATOM     19  O   UNL d   1     -48.670  29.031  34.066  0.00  0.00    -0.301 OA
ATOM     20  C   UNL d   1     -49.582  28.228  33.345  0.00  0.00     0.028 A 
ATOM     21  C   UNL d   1     -50.063  27.574  33.310  0.00  0.00     0.023 A 
ENDBRANCH   1  12
TORSDOF 3
ENDMDL
