MODEL 1
REMARK VINA RESULT:      11.5      0.000      0.000
REMARK  1 active torsions:
REMARK  status: ('A' for Active; 'I' for Inactive)
REMARK    1  A    between atoms: N_8  and  C_7 
REMARK       I    between atoms: C_11  and  N_8 
ROOT
ATOM      1  N   UNL d   1      46.539 -19.658  42.698  0.00  0.00    -0.273 N 
ATOM      2  C   UNL d   1      46.432 -19.017  43.205  0.00  0.00     0.067 A 
ATOM      3  C   UNL d   1      46.432 -19.132  44.022  0.00  0.00     0.019 A 
ATOM      4  C   UNL d   1      46.324 -18.265  42.901  0.00  0.00     0.018 A 
ATOM      5  C   UNL d   1      46.539 -19.549  41.887  0.00  0.00     0.265 A 
ATOM      6  C   UNL d   1      46.631 -20.330  43.164  0.00  0.00     0.083 A 
ATOM      7  C   UNL d   1      46.216 -17.733  44.219  0.00  0.00     0.085 A 
ATOM      8  C   UNL d   1      46.325 -18.490  44.529  0.00  0.00     0.021 A 
ATOM      9  C   UNL d   1      46.217 -17.623  43.408  0.00  0.00     0.021 A 
ATOM     10  C   UNL d   1      46.551 -19.938  44.172  0.00  0.00     0.021 A 
ATOM     11  C   UNL d   1      46.323 -18.144  42.077  0.00  0.00     0.006 A 
ATOM     12  C   UNL d   1      46.430 -18.786  41.570  0.00  0.00     0.061 A 
ATOM     13  O   UNL d   1      46.647 -20.191  41.380  0.00  0.00    -0.267 OA
ENDROOT
BRANCH   7  14
ATOM     14  N   UNL d   1      46.109 -17.092  44.725  0.00  0.00    -0.208 NA
ATOM     15  C   UNL d   1      45.769 -16.408  44.452  0.00  0.00     0.279 C 
ATOM     16  O   UNL d   1      45.524 -16.345  43.655  0.00  0.00    -0.265 OA
ATOM     17  C   UNL d   1      45.660 -15.764  44.955  0.00  0.00     0.068 C 
ENDBRANCH   7  14
TORSDOF 1
ENDMDL
