MODEL 1
REMARK VINA RESULT:     104.6      0.000      0.000
REMARK  8 active torsions:
REMARK  status: ('A' for Active; 'I' for Inactive)
REMARK    1  A    between atoms: C_7  and  C_3 
REMARK    2  A    between atoms: C_9  and  C_4 
REMARK    3  A    between atoms: O_13  and  C_7 
REMARK    4  A    between atoms: O_15  and  C_12 
REMARK    5  A    between atoms: C_26  and  O_13 
REMARK    6  A    between atoms: O_25  and  C_14 
REMARK    7  A    between atoms: C_16  and  O_15 
REMARK    8  A    between atoms: C_28  and  O_25 
ROOT
ATOM      1  N   UNL d   1      59.062  49.410  52.384  0.00  0.00    -0.254 N 
ATOM      2  C   UNL d   1      58.499  49.605  52.954  0.00  0.00     0.182 A 
ATOM      3  C   UNL d   1      58.049  49.398  51.382  0.00  0.00     0.097 A 
ATOM      4  C   UNL d   1      58.840  49.307  51.598  0.00  0.00     0.075 A 
ATOM      5  N   UNL d   1      57.710  49.696  52.736  0.00  0.00    -0.222 NA
ATOM      6  C   UNL d   1      57.482  49.593  51.949  0.00  0.00     0.090 A 
ATOM      7  C   UNL d   1      59.856  49.318  52.597  0.00  0.00     0.267 A 
ATOM      8  S   UNL d   1      58.722  49.707  53.731  0.00  0.00    -0.049 SA
ATOM      9  C   UNL d   1      60.073  49.423  53.389  0.00  0.00     0.068 A 
ATOM     10  O   UNL d   1      60.422  49.123  52.030  0.00  0.00    -0.267 OA
ATOM     11  C   UNL d   1      59.506  49.618  53.956  0.00  0.00     0.043 A 
ATOM     12  C   UNL d   1      56.696  49.684  51.733  0.00  0.00     0.021 C 
ENDROOT
BRANCH   4  13
ATOM     13  C   UNL d   1      59.407  49.112  51.031  0.00  0.00     0.019 A 
ATOM     14  C   UNL d   1      59.662  48.335  50.958  0.00  0.00     0.028 A 
ATOM     15  C   UNL d   1      60.228  48.140  50.391  0.00  0.00     0.123 A 
ATOM     16  C   UNL d   1      60.540  48.731  49.894  0.00  0.00     0.126 A 
ATOM     17  C   UNL d   1      60.279  49.514  49.971  0.00  0.00     0.027 A 
ATOM     18  C   UNL d   1      59.712  49.704  50.540  0.00  0.00     0.004 A 
BRANCH  15  19
ATOM     19  O   UNL d   1      60.487  47.362  50.315  0.00  0.00    -0.303 OA
BRANCH  19  20
ATOM     20  C   UNL d   1      61.183  47.119  50.686  0.00  0.00     0.123 C 
ATOM     21  C   UNL d   1      61.165  46.502  51.231  0.00  0.00     0.029 C 
ENDBRANCH  19  20
ENDBRANCH  15  19
BRANCH  16  22
ATOM     22  O   UNL d   1      61.107  48.540  49.326  0.00  0.00    -0.271 OA
BRANCH  22  23
ATOM     23  C   UNL d   1      61.854  48.881  49.359  0.00  0.00     0.300 C 
ATOM     24  O   UNL d   1      61.929  49.702  49.391  0.00  0.00    -0.259 OA
ATOM     25  C   UNL d   1      62.525  48.405  49.360  0.00  0.00     0.074 C 
ENDBRANCH  22  23
ENDBRANCH  16  22
ENDBRANCH   4  13
BRANCH   3  26
ATOM     26  C   UNL d   1      57.827  49.295  50.595  0.00  0.00     0.303 C 
ATOM     27  O   UNL d   1      58.225  49.690  49.991  0.00  0.00    -0.259 OA
BRANCH  26  28
ATOM     28  O   UNL d   1      57.198  48.788  50.415  0.00  0.00    -0.273 OA
BRANCH  28  29
ATOM     29  C   UNL d   1      56.874  48.787  49.653  0.00  0.00     0.103 C 
ATOM     30  C   UNL d   1      56.495  49.457  49.359  0.00  0.00     0.027 C 
ATOM     31  C   UNL d   1      56.931  48.111  49.184  0.00  0.00     0.027 C 
ENDBRANCH  28  29
ENDBRANCH  26  28
ENDBRANCH   3  26
TORSDOF 8
ENDMDL
