MODEL 1
REMARK VINA RESULT:      14.4      0.000      0.000
REMARK  3 active torsions:
REMARK  status: ('A' for Active; 'I' for Inactive)
REMARK    1  A    between atoms: C_7  and  C_3 
REMARK    2  A    between atoms: N_5  and  C_8 
REMARK    3  A    between atoms: C_13  and  C_7 
ROOT
ATOM      1  C   UNL d   1      42.736 -15.579  36.857  0.00  0.00     0.127 A 
ATOM      2  C   UNL d   1      44.178 -15.638  36.778  0.00  0.00     0.002 A 
ATOM      3  C   UNL d   1      43.424 -15.464  36.417  0.00  0.00     0.024 A 
ATOM      4  C   UNL d   1      42.774 -15.855  37.623  0.00  0.00     0.024 A 
ATOM      5  C   UNL d   1      43.527 -16.023  37.966  0.00  0.00     0.002 A 
ATOM      6  C   UNL d   1      44.219 -15.907  37.525  0.00  0.00     0.000 A 
ENDROOT
BRANCH   2   7
ATOM      7  C   UNL d   1      44.859 -15.520  36.332  0.00  0.00     0.011 C 
BRANCH   7   8
ATOM      8  C   UNL d   1      45.452 -15.011  36.635  0.00  0.00     0.092 A 
ATOM      9  C   UNL d   1      46.202 -15.227  36.627  0.00  0.00     0.288 A 
ATOM     10  N   UNL d   1      46.643 -14.614  36.959  0.00  0.00    -0.163 NA
ATOM     11  O   UNL d   1      46.507 -15.956  36.331  0.00  0.00    -0.265 OA
ATOM     12  C   UNL d   1      46.131 -14.022  37.167  0.00  0.00     0.313 A 
ATOM     13  S   UNL d   1      45.384 -14.241  36.977  0.00  0.00    -0.021 SA
ATOM     14  O   UNL d   1      46.332 -13.282  37.527  0.00  0.00    -0.258 OA
ENDBRANCH   7   8
ENDBRANCH   2   7
BRANCH   1  15
ATOM     15  N   UNL d   1      42.002 -15.417  36.530  0.00  0.00    -0.114 N 
ATOM     16  O   UNL d   1      41.489 -16.032  36.331  0.00  0.00    -0.532 OA
ATOM     17  O   UNL d   1      41.779 -14.645  36.400  0.00  0.00    -0.532 OA
ENDBRANCH   1  15
TORSDOF 3
ENDMDL
