MODEL 1
REMARK VINA RESULT:      29.6      0.000      0.000
REMARK  3 active torsions:
REMARK  status: ('A' for Active; 'I' for Inactive)
REMARK    1  A    between atoms: C_8  and  N_1 
REMARK    2  A    between atoms: C_2  and  C_7 
REMARK    3  A    between atoms: C_7  and  C_9 
ROOT
ATOM      1  N   UNL d   1      45.997 -17.285  43.700  0.00  0.00    -0.242 N 
ATOM      2  C   UNL d   1      46.207 -16.661  43.188  0.00  0.00     0.267 A 
ATOM      3  C   UNL d   1      45.557 -16.960  44.321  0.00  0.00     0.267 A 
ATOM      4  C   UNL d   1      45.493 -16.144  44.198  0.00  0.00     0.062 A 
ATOM      5  C   UNL d   1      45.894 -15.959  43.499  0.00  0.00     0.066 A 
ATOM      6  O   UNL d   1      46.647 -16.736  42.498  0.00  0.00    -0.267 OA
ATOM      7  O   UNL d   1      45.237 -17.386  44.955  0.00  0.00    -0.267 OA
ENDROOT
BRANCH   4   8
ATOM      8  C   UNL d   1      45.099 -15.611  44.688  0.00  0.00     0.018 C 
BRANCH   8   9
ATOM      9  C   UNL d   1      45.159 -14.833  44.436  0.00  0.00     0.045 A 
ATOM     10  N   UNL d   1      44.593 -14.414  44.013  0.00  0.00    -0.308 N 
ATOM     11  C   UNL d   1      44.875 -13.658  43.874  0.00  0.00     0.060 A 
ATOM     12  C   UNL d   1      43.860 -14.709  43.770  0.00  0.00     0.099 C 
ATOM     13  C   UNL d   1      44.552 -13.013  43.487  0.00  0.00     0.017 A 
ATOM     14  C   UNL d   1      45.622 -13.602  44.212  0.00  0.00    -0.002 A 
ATOM     15  C   UNL d   1      44.977 -12.303  43.433  0.00  0.00     0.002 A 
ATOM     16  C   UNL d   1      45.729 -12.255  43.775  0.00  0.00    -0.000 A 
ATOM     17  C   UNL d   1      46.049 -12.898  44.161  0.00  0.00    -0.003 A 
ATOM     18  C   UNL d   1      45.800 -14.331  44.560  0.00  0.00     0.054 A 
ATOM     19  C   UNL d   1      46.370 -13.731  44.616  0.00  0.00     0.010 C 
ATOM     20  C   UNL d   1      46.517 -14.474  44.954  0.00  0.00     0.010 C 
ENDBRANCH   8   9
ENDBRANCH   4   8
BRANCH   1  21
ATOM     21  C   UNL d   1      46.189 -18.075  43.607  0.00  0.00     0.070 A 
ATOM     22  C   UNL d   1      46.220 -18.414  42.852  0.00  0.00     0.016 A 
ATOM     23  C   UNL d   1      46.415 -19.212  42.768  0.00  0.00     0.001 A 
ATOM     24  C   UNL d   1      46.058 -17.963  42.192  0.00  0.00     0.001 A 
ATOM     25  C   UNL d   1      46.445 -19.548  42.020  0.00  0.00     0.000 A 
ATOM     26  C   UNL d   1      46.578 -19.669  43.430  0.00  0.00     0.000 A 
ATOM     27  C   UNL d   1      46.283 -19.097  41.355  0.00  0.00     0.000 A 
ATOM     28  C   UNL d   1      46.088 -18.299  41.444  0.00  0.00     0.000 A 
ATOM     29  C   UNL d   1      46.547 -19.329  44.185  0.00  0.00     0.002 A 
ATOM     30  C   UNL d   1      46.354 -18.534  44.276  0.00  0.00     0.018 A 
ENDBRANCH   1  21
TORSDOF 3
ENDMDL
