MODEL 1
REMARK VINA RESULT:      42.1      0.000      0.000
REMARK  7 active torsions:
REMARK  status: ('A' for Active; 'I' for Inactive)
REMARK    1  A    between atoms: C_6  and  C_2 
REMARK    2  A    between atoms: S_7  and  C_4 
REMARK    3  A    between atoms: C_12  and  S_7 
REMARK    4  A    between atoms: C_8  and  C_12 
REMARK    5  A    between atoms: O_16  and  C_8 
REMARK    6  A    between atoms: O_17  and  C_13 
REMARK    7  A    between atoms: C_18  and  O_16 
ROOT
ATOM      1  N   UNL d   1      59.098  49.488  50.430  0.00  0.00    -0.212 NA
ATOM      2  C   UNL d   1      59.910  49.501  50.322  0.00  0.00     0.171 A 
ATOM      3  N   UNL d   1      60.063  49.634  49.519  0.00  0.00    -0.188 NA
ATOM      4  C   UNL d   1      58.734  49.612  49.700  0.00  0.00     0.160 A 
ATOM      5  S   UNL d   1      59.335  49.703  49.135  0.00  0.00     0.041 SA
ENDROOT
BRANCH   2   6
ATOM      6  C   UNL d   1      60.486  49.399  50.907  0.00  0.00     0.037 A 
ATOM      7  C   UNL d   1      61.275  49.637  50.779  0.00  0.00     0.005 A 
ATOM      8  C   UNL d   1      61.840  49.534  51.358  0.00  0.00     0.024 A 
ATOM      9  C   UNL d   1      61.629  49.193  52.076  0.00  0.00     0.094 A 
ATOM     10  C   UNL d   1      60.846  48.953  52.211  0.00  0.00     0.024 A 
ATOM     11  C   UNL d   1      60.286  49.061  51.622  0.00  0.00     0.005 A 
BRANCH   9  12
ATOM     12  O   UNL d   1      62.193  49.086  52.667  0.00  0.00    -0.328 OA
ATOM     13  C   UNL d   1      62.286  49.654  53.250  0.00  0.00     0.181 C 
ENDBRANCH   9  12
ENDBRANCH   2   6
BRANCH   4  14
ATOM     14  S   UNL d   1      57.920  49.643  49.549  0.00  0.00    -0.054 SA
BRANCH  14  15
ATOM     15  C   UNL d   1      57.389  49.666  50.171  0.00  0.00     0.106 C 
BRANCH  15  16
ATOM     16  C   UNL d   1      56.844  49.056  50.283  0.00  0.00     0.307 C 
ATOM     17  O   UNL d   1      56.329  49.080  50.932  0.00  0.00    -0.258 OA
BRANCH  16  18
ATOM     18  O   UNL d   1      56.808  48.423  49.752  0.00  0.00    -0.271 OA
BRANCH  18  19
ATOM     19  C   UNL d   1      56.092  48.019  49.627  0.00  0.00     0.126 C 
ATOM     20  C   UNL d   1      56.047  47.422  49.061  0.00  0.00     0.029 C 
ENDBRANCH  18  19
ENDBRANCH  16  18
ENDBRANCH  15  16
ENDBRANCH  14  15
ENDBRANCH   4  14
TORSDOF 7
ENDMDL
