MODEL 1
REMARK VINA RESULT:      19.3      0.000      0.000
REMARK  3 active torsions:
REMARK  status: ('A' for Active; 'I' for Inactive)
REMARK    1  A    between atoms: C_2  and  S_1 
REMARK    2  A    between atoms: N_3  and  S_1 
REMARK    3  A    between atoms: C_10  and  N_3 
ROOT
ATOM      1  C   UNL d   1      14.004  12.370  -1.783  0.00  0.00     0.107 A 
ATOM      2  C   UNL d   1      14.118  13.184  -1.701  0.00  0.00     0.040 A 
ATOM      3  C   UNL d   1      14.689  13.493  -1.207  0.00  0.00     0.123 A 
ATOM      4  C   UNL d   1      15.163  12.984  -0.780  0.00  0.00     0.123 A 
ATOM      5  O   UNL d   1      14.784  14.276  -1.141  0.00  0.00    -0.301 OA
ATOM      6  O   UNL d   1      15.737  13.255  -0.282  0.00  0.00    -0.301 OA
ATOM      7  C   UNL d   1      14.495  11.845  -1.341  0.00  0.00     0.015 A 
ATOM      8  C   UNL d   1      15.071  12.162  -0.843  0.00  0.00     0.028 A 
ATOM      9  C   UNL d   1      15.360  14.594  -0.643  0.00  0.00     0.149 A 
ATOM     10  C   UNL d   1      15.851  14.068  -0.201  0.00  0.00     0.149 A 
ENDROOT
BRANCH   1  11
ATOM     11  S   UNL d   1      13.405  12.092  -2.303  0.00  0.00     0.285 S 
ATOM     12  O   UNL d   1      12.795  11.808  -2.823  0.00  0.00    -0.198 OA
ATOM     13  O   UNL d   1      12.961  11.781  -1.663  0.00  0.00    -0.198 OA
BRANCH  11  14
ATOM     14  N   UNL d   1      13.809  12.382  -2.955  0.00  0.00    -0.157 NA
BRANCH  14  15
ATOM     15  C   UNL d   1      13.471  12.424  -3.673  0.00  0.00     0.113 A 
ATOM     16  C   UNL d   1      13.123  13.126  -3.930  0.00  0.00     0.119 A 
ATOM     17  N   UNL d   1      12.773  13.169  -4.674  0.00  0.00    -0.241 NA
ATOM     18  C   UNL d   1      12.770  12.526  -5.153  0.00  0.00     0.099 A 
ATOM     19  C   UNL d   1      13.124  11.802  -4.899  0.00  0.00     0.022 A 
ATOM     20  C   UNL d   1      13.465  11.781  -4.158  0.00  0.00     0.023 A 
ENDBRANCH  14  15
ENDBRANCH  11  14
ENDBRANCH   1  11
TORSDOF 3
ENDMDL
MODEL 2
REMARK VINA RESULT:      21.4      9.884     10.330
REMARK  3 active torsions:
REMARK  status: ('A' for Active; 'I' for Inactive)
REMARK    1  A    between atoms: C_2  and  S_1 
REMARK    2  A    between atoms: N_3  and  S_1 
REMARK    3  A    between atoms: C_10  and  N_3 
ROOT
ATOM      1  C   UNL d   1      23.939  12.446  -2.835  0.00  0.00     0.107 A 
ATOM      2  C   UNL d   1      23.821  13.108  -2.357  0.00  0.00     0.040 A 
ATOM      3  C   UNL d   1      24.089  13.138  -1.587  0.00  0.00     0.123 A 
ATOM      4  C   UNL d   1      24.486  12.494  -1.278  0.00  0.00     0.123 A 
ATOM      5  O   UNL d   1      23.967  13.781  -1.141  0.00  0.00    -0.301 OA
ATOM      6  O   UNL d   1      24.764  12.490  -0.521  0.00  0.00    -0.301 OA
ATOM      7  C   UNL d   1      24.350  11.781  -2.516  0.00  0.00     0.015 A 
ATOM      8  C   UNL d   1      24.619  11.816  -1.736  0.00  0.00     0.028 A 
ATOM      9  C   UNL d   1      24.236  13.816  -0.362  0.00  0.00     0.149 A 
ATOM     10  C   UNL d   1      24.646  13.152  -0.043  0.00  0.00     0.149 A 
ENDROOT
BRANCH   1  11
ATOM     11  S   UNL d   1      23.648  12.455  -3.623  0.00  0.00     0.285 S 
ATOM     12  O   UNL d   1      23.346  12.462  -4.419  0.00  0.00    -0.198 OA
ATOM     13  O   UNL d   1      22.867  12.291  -3.363  0.00  0.00    -0.198 OA
BRANCH  11  14
ATOM     14  N   UNL d   1      24.395  12.615  -3.919  0.00  0.00    -0.157 NA
BRANCH  14  15
ATOM     15  C   UNL d   1      24.517  12.783  -4.686  0.00  0.00     0.113 A 
ATOM     16  C   UNL d   1      24.594  12.176  -5.239  0.00  0.00     0.119 A 
ATOM     17  N   UNL d   1      24.720  12.351  -6.034  0.00  0.00    -0.241 NA
ATOM     18  C   UNL d   1      24.767  13.116  -6.273  0.00  0.00     0.099 A 
ATOM     19  C   UNL d   1      24.688  13.744  -5.715  0.00  0.00     0.022 A 
ATOM     20  C   UNL d   1      24.564  13.549  -4.931  0.00  0.00     0.023 A 
ENDBRANCH  14  15
ENDBRANCH  11  14
ENDBRANCH   1  11
TORSDOF 3
ENDMDL
