MODEL 1
REMARK VINA RESULT:      -3.2      0.000      0.000
REMARK  2 active torsions:
REMARK  status: ('A' for Active; 'I' for Inactive)
REMARK    1  A    between atoms: C_3  and  C_1 
REMARK       I    between atoms: N_6  and  C_3 
REMARK    2  A    between atoms: C_11  and  N_6 
ROOT
ATOM      1  C   UNL d   1      32.862  20.840 -21.480  0.00  0.00     0.121 A 
ATOM      2  C   UNL d   1      33.003  20.882 -20.740  0.00  0.00     0.305 A 
ATOM      3  C   UNL d   1      32.633  21.509 -21.901  0.00  0.00     0.012 A 
ATOM      4  O   UNL d   1      32.931  21.646 -20.294  0.00  0.00    -0.273 OA
ATOM      5  C   UNL d   1      32.549  22.245 -21.542  0.00  0.00     0.023 A 
ATOM      6  C   UNL d   1      32.700  22.314 -20.728  0.00  0.00     0.103 A 
ATOM      7  O   UNL d   1      33.241  20.207 -20.281  0.00  0.00    -0.259 OA
ATOM      8  C   UNL d   1      32.323  22.896 -21.967  0.00  0.00     0.002 A 
ATOM      9  C   UNL d   1      32.622  23.034 -20.355  0.00  0.00     0.025 A 
ATOM     10  C   UNL d   1      32.240  23.632 -21.603  0.00  0.00     0.000 A 
ATOM     11  C   UNL d   1      32.391  23.702 -20.789  0.00  0.00     0.002 A 
ENDROOT
BRANCH   1  12
ATOM     12  C   UNL d   1      32.941  20.106 -21.861  0.00  0.00     0.284 C 
ATOM     13  N   UNL d   1      32.742  20.046 -22.571  0.00  0.00    -0.208 NA
ATOM     14  O   UNL d   1      33.238  19.456 -21.453  0.00  0.00    -0.265 OA
BRANCH  13  15
ATOM     15  C   UNL d   1      32.792  19.320 -23.040  0.00  0.00     0.087 A 
ATOM     16  C   UNL d   1      32.544  18.577 -22.803  0.00  0.00     0.049 A 
ATOM     17  C   UNL d   1      32.618  17.921 -23.294  0.00  0.00     0.142 A 
ATOM     18  F   UNL d   1      32.369  17.182 -23.053  0.00  0.00    -0.204 F 
ATOM     19  C   UNL d   1      32.956  18.020 -24.053  0.00  0.00     0.030 A 
ATOM     20  C   UNL d   1      33.205  18.770 -24.288  0.00  0.00     0.004 A 
ATOM     21  C   UNL d   1      33.132  19.419 -23.802  0.00  0.00     0.019 A 
ENDBRANCH  13  15
ENDBRANCH   1  12
TORSDOF 2
ENDMDL
MODEL 2
REMARK VINA RESULT:      -3.1      1.516      2.413
REMARK  2 active torsions:
REMARK  status: ('A' for Active; 'I' for Inactive)
REMARK    1  A    between atoms: C_3  and  C_1 
REMARK       I    between atoms: N_6  and  C_3 
REMARK    2  A    between atoms: C_11  and  N_6 
ROOT
ATOM      1  C   UNL d   1      32.994  19.553 -22.978  0.00  0.00     0.121 A 
ATOM      2  C   UNL d   1      33.081  20.180 -23.389  0.00  0.00     0.305 A 
ATOM      3  C   UNL d   1      32.981  19.589 -22.156  0.00  0.00     0.012 A 
ATOM      4  O   UNL d   1      33.174  20.977 -23.009  0.00  0.00    -0.273 OA
ATOM      5  C   UNL d   1      33.062  20.299 -21.748  0.00  0.00     0.023 A 
ATOM      6  C   UNL d   1      33.159  21.002 -22.180  0.00  0.00     0.103 A 
ATOM      7  O   UNL d   1      33.098  20.172 -24.239  0.00  0.00    -0.259 OA
ATOM      8  C   UNL d   1      33.048  20.322 -20.938  0.00  0.00     0.002 A 
ATOM      9  C   UNL d   1      33.241  21.714 -21.793  0.00  0.00     0.025 A 
ATOM     10  C   UNL d   1      33.129  21.036 -20.533  0.00  0.00     0.000 A 
ATOM     11  C   UNL d   1      33.227  21.739 -20.965  0.00  0.00     0.002 A 
ENDROOT
BRANCH   1  12
ATOM     12  C   UNL d   1      32.911  18.826 -23.372  0.00  0.00     0.284 C 
ATOM     13  N   UNL d   1      32.754  18.220 -22.978  0.00  0.00    -0.208 NA
ATOM     14  O   UNL d   1      33.002  18.783 -24.189  0.00  0.00    -0.265 OA
BRANCH  13  15
ATOM     15  C   UNL d   1      32.652  17.426 -23.310  0.00  0.00     0.087 A 
ATOM     16  C   UNL d   1      32.049  17.190 -23.811  0.00  0.00     0.049 A 
ATOM     17  C   UNL d   1      32.004  16.419 -24.096  0.00  0.00     0.142 A 
ATOM     18  F   UNL d   1      31.402  16.187 -24.595  0.00  0.00    -0.204 F 
ATOM     19  C   UNL d   1      32.589  15.867 -23.865  0.00  0.00     0.030 A 
ATOM     20  C   UNL d   1      33.194  16.110 -23.360  0.00  0.00     0.004 A 
ATOM     21  C   UNL d   1      33.239  16.872 -23.079  0.00  0.00     0.019 A 
ENDBRANCH  13  15
ENDBRANCH   1  12
TORSDOF 2
ENDMDL
MODEL 3
REMARK VINA RESULT:      -2.6      1.399      2.090
REMARK  2 active torsions:
REMARK  status: ('A' for Active; 'I' for Inactive)
REMARK    1  A    between atoms: C_3  and  C_1 
REMARK       I    between atoms: N_6  and  C_3 
REMARK    2  A    between atoms: C_11  and  N_6 
ROOT
ATOM      1  C   UNL d   1      32.944  22.051 -21.152  0.00  0.00     0.121 A 
ATOM      2  C   UNL d   1      32.685  22.738 -21.323  0.00  0.00     0.305 A 
ATOM      3  C   UNL d   1      33.133  21.856 -20.375  0.00  0.00     0.012 A 
ATOM      4  O   UNL d   1      32.573  23.363 -20.702  0.00  0.00    -0.273 OA
ATOM      5  C   UNL d   1      33.050  22.393 -19.757  0.00  0.00     0.023 A 
ATOM      6  C   UNL d   1      32.766  23.156 -19.923  0.00  0.00     0.103 A 
ATOM      7  O   UNL d   1      32.483  22.966 -22.117  0.00  0.00    -0.259 OA
ATOM      8  C   UNL d   1      33.238  22.190 -18.995  0.00  0.00     0.002 A 
ATOM      9  C   UNL d   1      32.677  23.701 -19.324  0.00  0.00     0.025 A 
ATOM     10  C   UNL d   1      33.153  22.731 -18.378  0.00  0.00     0.000 A 
ATOM     11  C   UNL d   1      32.870  23.495 -18.544  0.00  0.00     0.002 A 
ENDROOT
BRANCH   1  12
ATOM     12  C   UNL d   1      33.035  21.494 -21.762  0.00  0.00     0.284 C 
ATOM     13  N   UNL d   1      32.990  20.773 -21.601  0.00  0.00    -0.208 NA
ATOM     14  O   UNL d   1      33.174  21.743 -22.534  0.00  0.00    -0.265 OA
BRANCH  13  15
ATOM     15  C   UNL d   1      33.073  20.131 -22.176  0.00  0.00     0.087 A 
ATOM     16  C   UNL d   1      33.084  20.215 -22.990  0.00  0.00     0.049 A 
ATOM     17  C   UNL d   1      33.166  19.565 -23.488  0.00  0.00     0.142 A 
ATOM     18  F   UNL d   1      33.176  19.653 -24.300  0.00  0.00    -0.204 F 
ATOM     19  C   UNL d   1      33.240  18.803 -23.151  0.00  0.00     0.030 A 
ATOM     20  C   UNL d   1      33.229  18.724 -22.330  0.00  0.00     0.004 A 
ATOM     21  C   UNL d   1      33.148  19.366 -21.838  0.00  0.00     0.019 A 
ENDBRANCH  13  15
ENDBRANCH   1  12
TORSDOF 2
ENDMDL
MODEL 4
REMARK VINA RESULT:      -2.4      2.161      5.091
REMARK  2 active torsions:
REMARK  status: ('A' for Active; 'I' for Inactive)
REMARK    1  A    between atoms: C_3  and  C_1 
REMARK       I    between atoms: N_6  and  C_3 
REMARK    2  A    between atoms: C_11  and  N_6 
ROOT
ATOM      1  C   UNL d   1      32.326  18.306 -23.853  0.00  0.00     0.121 A 
ATOM      2  C   UNL d   1      32.213  18.325 -24.599  0.00  0.00     0.305 A 
ATOM      3  C   UNL d   1      32.132  17.635 -23.418  0.00  0.00     0.012 A 
ATOM      4  O   UNL d   1      31.871  17.633 -25.037  0.00  0.00    -0.273 OA
ATOM      5  C   UNL d   1      31.812  16.963 -23.769  0.00  0.00     0.023 A 
ATOM      6  C   UNL d   1      31.679  16.962 -24.589  0.00  0.00     0.103 A 
ATOM      7  O   UNL d   1      32.404  19.004 -25.073  0.00  0.00    -0.259 OA
ATOM      8  C   UNL d   1      31.625  16.308 -23.329  0.00  0.00     0.002 A 
ATOM      9  C   UNL d   1      31.363  16.306 -24.953  0.00  0.00     0.025 A 
ATOM     10  C   UNL d   1      31.304  15.637 -23.685  0.00  0.00     0.000 A 
ATOM     11  C   UNL d   1      31.171  15.636 -24.505  0.00  0.00     0.002 A 
ENDROOT
BRANCH   1  12
ATOM     12  C   UNL d   1      32.649  18.975 -23.481  0.00  0.00     0.284 C 
ATOM     13  N   UNL d   1      32.396  19.171 -22.813  0.00  0.00    -0.208 NA
ATOM     14  O   UNL d   1      33.241  19.411 -23.850  0.00  0.00    -0.265 OA
BRANCH  13  15
ATOM     15  C   UNL d   1      32.678  19.852 -22.359  0.00  0.00     0.087 A 
ATOM     16  C   UNL d   1      32.725  20.624 -22.628  0.00  0.00     0.049 A 
ATOM     17  C   UNL d   1      33.002  21.231 -22.148  0.00  0.00     0.142 A 
ATOM     18  F   UNL d   1      33.047  21.999 -22.421  0.00  0.00    -0.204 F 
ATOM     19  C   UNL d   1      33.241  21.053 -21.366  0.00  0.00     0.030 A 
ATOM     20  C   UNL d   1      33.192  20.274 -21.099  0.00  0.00     0.004 A 
ATOM     21  C   UNL d   1      32.918  19.673 -21.574  0.00  0.00     0.019 A 
ENDBRANCH  13  15
ENDBRANCH   1  12
TORSDOF 2
ENDMDL
MODEL 5
REMARK VINA RESULT:      -1.2      2.812      5.165
REMARK  2 active torsions:
REMARK  status: ('A' for Active; 'I' for Inactive)
REMARK    1  A    between atoms: C_3  and  C_1 
REMARK       I    between atoms: N_6  and  C_3 
REMARK    2  A    between atoms: C_11  and  N_6 
ROOT
ATOM      1  C   UNL d   1      32.920  22.470 -20.402  0.00  0.00     0.121 A 
ATOM      2  C   UNL d   1      32.820  22.847 -21.048  0.00  0.00     0.305 A 
ATOM      3  C   UNL d   1      33.045  21.657 -20.407  0.00  0.00     0.012 A 
ATOM      4  O   UNL d   1      32.832  22.436 -21.835  0.00  0.00    -0.273 OA
ATOM      5  C   UNL d   1      33.066  21.222 -21.105  0.00  0.00     0.023 A 
ATOM      6  C   UNL d   1      32.958  21.617 -21.829  0.00  0.00     0.103 A 
ATOM      7  O   UNL d   1      32.690  23.687 -21.073  0.00  0.00    -0.259 OA
ATOM      8  C   UNL d   1      33.189  20.421 -21.098  0.00  0.00     0.002 A 
ATOM      9  C   UNL d   1      32.976  21.202 -22.530  0.00  0.00     0.025 A 
ATOM     10  C   UNL d   1      33.210  19.988 -21.800  0.00  0.00     0.000 A 
ATOM     11  C   UNL d   1      33.102  20.383 -22.523  0.00  0.00     0.002 A 
ENDROOT
BRANCH   1  12
ATOM     12  C   UNL d   1      32.902  22.892 -19.687  0.00  0.00     0.284 C 
ATOM     13  N   UNL d   1      32.595  22.577 -19.092  0.00  0.00    -0.208 NA
ATOM     14  O   UNL d   1      33.221  23.650 -19.643  0.00  0.00    -0.265 OA
BRANCH  13  15
ATOM     15  C   UNL d   1      32.536  22.948 -18.311  0.00  0.00     0.087 A 
ATOM     16  C   UNL d   1      31.874  22.950 -17.829  0.00  0.00     0.049 A 
ATOM     17  C   UNL d   1      31.878  23.320 -17.095  0.00  0.00     0.142 A 
ATOM     18  F   UNL d   1      31.216  23.320 -16.618  0.00  0.00    -0.204 F 
ATOM     19  C   UNL d   1      32.577  23.702 -16.837  0.00  0.00     0.030 A 
ATOM     20  C   UNL d   1      33.241  23.697 -17.326  0.00  0.00     0.004 A 
ATOM     21  C   UNL d   1      33.237  23.331 -18.052  0.00  0.00     0.019 A 
ENDBRANCH  13  15
ENDBRANCH   1  12
TORSDOF 2
ENDMDL
