MODEL 1
REMARK VINA RESULT:      26.8      0.000      0.000
REMARK  3 active torsions:
REMARK  status: ('A' for Active; 'I' for Inactive)
REMARK       I    between atoms: C_4  and  N_1 
REMARK    1  A    between atoms: C_7  and  C_3 
REMARK    2  A    between atoms: C_8  and  C_4 
REMARK    3  A    between atoms: C_13  and  C_5 
ROOT
ATOM      1  N   UNL d   1      45.872 -17.574  43.008  0.00  0.00    -0.194 N 
ATOM      2  N   UNL d   1      45.795 -16.765  43.071  0.00  0.00    -0.163 NA
ATOM      3  C   UNL d   1      45.936 -17.888  43.771  0.00  0.00     0.091 A 
ATOM      4  C   UNL d   1      45.887 -18.031  42.290  0.00  0.00     0.286 C 
ATOM      5  C   UNL d   1      45.810 -16.575  43.875  0.00  0.00     0.103 A 
ATOM      6  C   UNL d   1      45.897 -17.267  44.301  0.00  0.00     0.040 A 
ATOM      7  O   UNL d   1      45.817 -17.630  41.568  0.00  0.00    -0.265 OA
ENDROOT
BRANCH   3   8
ATOM      8  C   UNL d   1      46.023 -18.693  43.957  0.00  0.00     0.057 A 
ATOM      9  C   UNL d   1      45.569 -19.023  44.545  0.00  0.00     0.197 A 
ATOM     10  O   UNL d   1      45.029 -18.573  44.954  0.00  0.00    -0.286 OA
ATOM     11  C   UNL d   1      45.656 -19.828  44.731  0.00  0.00     0.042 A 
ATOM     12  C   UNL d   1      46.195 -20.305  44.331  0.00  0.00     0.003 A 
ATOM     13  C   UNL d   1      46.646 -19.951  43.738  0.00  0.00     0.000 A 
ATOM     14  C   UNL d   1      46.564 -19.171  43.555  0.00  0.00     0.005 A 
ENDBRANCH   3   8
BRANCH   4  15
ATOM     15  C   UNL d   1      45.967 -18.831  42.312  0.00  0.00     0.087 A 
ATOM     16  S   UNL d   1      46.646 -19.230  42.171  0.00  0.00    -0.082 SA
ATOM     17  C   UNL d   1      46.481 -20.047  42.252  0.00  0.00     0.036 A 
ATOM     18  C   UNL d   1      45.676 -20.124  42.448  0.00  0.00     0.008 A 
ATOM     19  C   UNL d   1      45.360 -19.374  42.485  0.00  0.00     0.012 A 
ENDBRANCH   4  15
BRANCH   5  20
ATOM     20  C   UNL d   1      45.748 -15.814  44.189  0.00  0.00     0.019 A 
ATOM     21  C   UNL d   1      46.410 -15.462  44.553  0.00  0.00     0.002 A 
ATOM     22  C   UNL d   1      46.352 -14.700  44.868  0.00  0.00     0.000 A 
ATOM     23  C   UNL d   1      45.637 -14.286  44.822  0.00  0.00     0.000 A 
ATOM     24  C   UNL d   1      44.976 -14.637  44.458  0.00  0.00     0.000 A 
ATOM     25  C   UNL d   1      45.038 -15.398  44.144  0.00  0.00     0.002 A 
ENDBRANCH   5  20
TORSDOF 3
ENDMDL
