MODEL 1
REMARK VINA RESULT:      -6.9      0.000      0.000
REMARK  6 active torsions:
REMARK  status: ('A' for Active; 'I' for Inactive)
REMARK    1  A    between atoms: C_10  and  N_3 
REMARK    2  A    between atoms: C_11  and  N_8 
REMARK    3  A    between atoms: C_12  and  C_11 
REMARK    4  A    between atoms: O_15  and  C_12 
REMARK    5  A    between atoms: C_18  and  O_15 
REMARK    6  A    between atoms: C_22  and  C_18 
ROOT
ATOM      1  C   UNL d   1     -45.382  12.801  22.462  0.00  0.00     0.191 A 
ATOM      2  C   UNL d   1     -44.922  12.182  22.775  0.00  0.00     0.196 A 
ATOM      3  N   UNL d   1     -46.119  12.776  22.838  0.00  0.00    -0.193 N 
ATOM      4  N   UNL d   1     -46.108  12.156  23.368  0.00  0.00    -0.058 NA
ATOM      5  N   UNL d   1     -45.387  11.790  23.338  0.00  0.00    -0.122 NA
ATOM      6  N   UNL d   1     -45.066  13.288  21.888  0.00  0.00    -0.204 NA
ATOM      7  C   UNL d   1     -44.160  12.069  22.507  0.00  0.00     0.289 A 
ATOM      8  N   UNL d   1     -43.838  12.558  21.929  0.00  0.00    -0.249 N 
ATOM      9  C   UNL d   1     -44.297  13.177  21.615  0.00  0.00     0.187 A 
ATOM     10  O   UNL d   1     -43.700  11.450  22.820  0.00  0.00    -0.265 OA
ENDROOT
BRANCH   8  11
ATOM     11  C   UNL d   1     -43.063  12.449  21.651  0.00  0.00     0.153 C 
BRANCH  11  12
ATOM     12  C   UNL d   1     -42.755  12.942  21.058  0.00  0.00     0.318 C 
ATOM     13  O   UNL d   1     -42.980  12.830  20.273  0.00  0.00    -0.257 OA
BRANCH  12  14
ATOM     14  O   UNL d   1     -42.230  13.537  21.261  0.00  0.00    -0.270 OA
BRANCH  14  15
ATOM     15  C   UNL d   1     -41.633  13.761  20.735  0.00  0.00     0.126 C 
BRANCH  15  16
ATOM     16  C   UNL d   1     -41.115  14.351  20.939  0.00  0.00     0.025 A 
ATOM     17  C   UNL d   1     -40.375  14.157  21.252  0.00  0.00     0.002 A 
ATOM     18  C   UNL d   1     -39.842  14.752  21.463  0.00  0.00     0.000 A 
ATOM     19  C   UNL d   1     -40.056  15.540  21.358  0.00  0.00     0.000 A 
ATOM     20  C   UNL d   1     -40.796  15.735  21.046  0.00  0.00     0.000 A 
ATOM     21  C   UNL d   1     -41.322  15.142  20.838  0.00  0.00     0.002 A 
ENDBRANCH  15  16
ENDBRANCH  14  15
ENDBRANCH  12  14
ENDBRANCH  11  12
ENDBRANCH   8  11
BRANCH   3  22
ATOM     22  C   UNL d   1     -46.759  13.255  22.731  0.00  0.00     0.086 A 
ATOM     23  C   UNL d   1     -47.417  12.989  22.285  0.00  0.00     0.019 A 
ATOM     24  C   UNL d   1     -48.055  13.476  22.182  0.00  0.00     0.002 A 
ATOM     25  C   UNL d   1     -48.064  14.247  22.518  0.00  0.00     0.000 A 
ATOM     26  C   UNL d   1     -47.423  14.498  22.948  0.00  0.00     0.002 A 
ATOM     27  C   UNL d   1     -48.729  14.759  22.412  0.00  0.00     0.000 C 
ATOM     28  C   UNL d   1     -46.769  14.012  23.060  0.00  0.00     0.019 A 
ENDBRANCH   3  22
TORSDOF 6
ENDMDL
MODEL 2
REMARK VINA RESULT:      -4.6      1.610      5.844
REMARK  6 active torsions:
REMARK  status: ('A' for Active; 'I' for Inactive)
REMARK    1  A    between atoms: C_10  and  N_3 
REMARK    2  A    between atoms: C_11  and  N_8 
REMARK    3  A    between atoms: C_12  and  C_11 
REMARK    4  A    between atoms: O_15  and  C_12 
REMARK    5  A    between atoms: C_18  and  O_15 
REMARK    6  A    between atoms: C_22  and  C_18 
ROOT
ATOM      1  C   UNL d   1     -44.221  12.723  22.121  0.00  0.00     0.191 A 
ATOM      2  C   UNL d   1     -44.540  12.101  22.571  0.00  0.00     0.196 A 
ATOM      3  N   UNL d   1     -43.457  12.498  21.894  0.00  0.00    -0.193 N 
ATOM      4  N   UNL d   1     -43.315  11.755  22.200  0.00  0.00    -0.058 NA
ATOM      5  N   UNL d   1     -43.965  11.505  22.612  0.00  0.00    -0.122 NA
ATOM      6  N   UNL d   1     -44.667  13.394  21.985  0.00  0.00    -0.204 NA
ATOM      7  C   UNL d   1     -45.296  12.166  22.873  0.00  0.00     0.289 A 
ATOM      8  N   UNL d   1     -45.748  12.841  22.739  0.00  0.00    -0.249 N 
ATOM      9  C   UNL d   1     -45.429  13.463  22.288  0.00  0.00     0.187 A 
ATOM     10  O   UNL d   1     -45.615  11.544  23.323  0.00  0.00    -0.265 OA
ENDROOT
BRANCH   8  11
ATOM     11  C   UNL d   1     -46.517  12.914  23.042  0.00  0.00     0.153 C 
BRANCH  11  12
ATOM     12  C   UNL d   1     -47.007  13.539  22.800  0.00  0.00     0.318 C 
ATOM     13  O   UNL d   1     -46.785  14.318  22.951  0.00  0.00    -0.257 OA
BRANCH  12  14
ATOM     14  O   UNL d   1     -47.709  13.373  22.411  0.00  0.00    -0.270 OA
BRANCH  14  15
ATOM     15  C   UNL d   1     -48.428  13.635  22.724  0.00  0.00     0.126 C 
BRANCH  15  16
ATOM     16  C   UNL d   1     -49.125  13.413  22.372  0.00  0.00     0.025 A 
ATOM     17  C   UNL d   1     -49.486  12.702  22.589  0.00  0.00     0.002 A 
ATOM     18  C   UNL d   1     -50.196  12.469  22.236  0.00  0.00     0.000 A 
ATOM     19  C   UNL d   1     -50.540  12.953  21.665  0.00  0.00     0.000 A 
ATOM     20  C   UNL d   1     -50.179  13.665  21.448  0.00  0.00     0.000 A 
ATOM     21  C   UNL d   1     -49.475  13.892  21.801  0.00  0.00     0.002 A 
ENDBRANCH  15  16
ENDBRANCH  14  15
ENDBRANCH  12  14
ENDBRANCH  11  12
ENDBRANCH   8  11
BRANCH   3  22
ATOM     22  C   UNL d   1     -42.918  12.905  21.454  0.00  0.00     0.086 A 
ATOM     23  C   UNL d   1     -42.983  12.922  20.617  0.00  0.00     0.019 A 
ATOM     24  C   UNL d   1     -42.438  13.334  20.182  0.00  0.00     0.002 A 
ATOM     25  C   UNL d   1     -41.809  13.744  20.560  0.00  0.00     0.000 A 
ATOM     26  C   UNL d   1     -41.754  13.723  21.370  0.00  0.00     0.002 A 
ATOM     27  C   UNL d   1     -41.239  14.175  20.109  0.00  0.00     0.000 C 
ATOM     28  C   UNL d   1     -42.300  13.309  21.823  0.00  0.00     0.019 A 
ENDBRANCH   3  22
TORSDOF 6
ENDMDL
MODEL 3
REMARK VINA RESULT:      -4.6      1.160      1.358
REMARK  6 active torsions:
REMARK  status: ('A' for Active; 'I' for Inactive)
REMARK    1  A    between atoms: C_10  and  N_3 
REMARK    2  A    between atoms: C_11  and  N_8 
REMARK    3  A    between atoms: C_12  and  C_11 
REMARK    4  A    between atoms: O_15  and  C_12 
REMARK    5  A    between atoms: C_18  and  O_15 
REMARK    6  A    between atoms: C_22  and  C_18 
ROOT
ATOM      1  C   UNL d   1     -44.886  12.902  22.200  0.00  0.00     0.191 A 
ATOM      2  C   UNL d   1     -44.365  12.285  22.399  0.00  0.00     0.196 A 
ATOM      3  N   UNL d   1     -45.600  12.761  22.597  0.00  0.00    -0.193 N 
ATOM      4  N   UNL d   1     -45.512  12.074  23.028  0.00  0.00    -0.058 NA
ATOM      5  N   UNL d   1     -44.768  11.778  22.915  0.00  0.00    -0.122 NA
ATOM      6  N   UNL d   1     -44.639  13.493  21.694  0.00  0.00    -0.204 NA
ATOM      7  C   UNL d   1     -43.611  12.277  22.086  0.00  0.00     0.289 A 
ATOM      8  N   UNL d   1     -43.358  12.871  21.575  0.00  0.00    -0.249 N 
ATOM      9  C   UNL d   1     -43.880  13.488  21.376  0.00  0.00     0.187 A 
ATOM     10  O   UNL d   1     -43.090  11.660  22.285  0.00  0.00    -0.265 OA
ENDROOT
BRANCH   8  11
ATOM     11  C   UNL d   1     -42.593  12.869  21.253  0.00  0.00     0.153 C 
BRANCH  11  12
ATOM     12  C   UNL d   1     -42.212  13.583  21.071  0.00  0.00     0.318 C 
ATOM     13  O   UNL d   1     -42.280  14.227  21.581  0.00  0.00    -0.257 OA
BRANCH  12  14
ATOM     14  O   UNL d   1     -41.769  13.640  20.383  0.00  0.00    -0.270 OA
BRANCH  14  15
ATOM     15  C   UNL d   1     -41.020  13.988  20.400  0.00  0.00     0.126 C 
BRANCH  15  16
ATOM     16  C   UNL d   1     -40.655  14.193  19.705  0.00  0.00     0.025 A 
ATOM     17  C   UNL d   1     -41.002  13.987  18.983  0.00  0.00     0.002 A 
ATOM     18  C   UNL d   1     -40.636  14.191  18.271  0.00  0.00     0.000 A 
ATOM     19  C   UNL d   1     -39.923  14.603  18.288  0.00  0.00     0.000 A 
ATOM     20  C   UNL d   1     -39.575  14.809  19.009  0.00  0.00     0.000 A 
ATOM     21  C   UNL d   1     -39.941  14.604  19.714  0.00  0.00     0.002 A 
ENDBRANCH  15  16
ENDBRANCH  14  15
ENDBRANCH  12  14
ENDBRANCH  11  12
ENDBRANCH   8  11
BRANCH   3  22
ATOM     22  C   UNL d   1     -46.279  13.195  22.589  0.00  0.00     0.086 A 
ATOM     23  C   UNL d   1     -46.930  12.952  22.120  0.00  0.00     0.019 A 
ATOM     24  C   UNL d   1     -47.609  13.394  22.117  0.00  0.00     0.002 A 
ATOM     25  C   UNL d   1     -47.666  14.094  22.579  0.00  0.00     0.000 A 
ATOM     26  C   UNL d   1     -47.031  14.323  23.030  0.00  0.00     0.002 A 
ATOM     27  C   UNL d   1     -48.373  14.558  22.578  0.00  0.00     0.000 C 
ATOM     28  C   UNL d   1     -46.337  13.883  23.042  0.00  0.00     0.019 A 
ENDBRANCH   3  22
TORSDOF 6
ENDMDL
MODEL 4
REMARK VINA RESULT:      -4.2      2.463      6.104
REMARK  6 active torsions:
REMARK  status: ('A' for Active; 'I' for Inactive)
REMARK    1  A    between atoms: C_10  and  N_3 
REMARK    2  A    between atoms: C_11  and  N_8 
REMARK    3  A    between atoms: C_12  and  C_11 
REMARK    4  A    between atoms: O_15  and  C_12 
REMARK    5  A    between atoms: C_18  and  O_15 
REMARK    6  A    between atoms: C_22  and  C_18 
ROOT
ATOM      1  C   UNL d   1     -40.932  14.275  20.071  0.00  0.00     0.191 A 
ATOM      2  C   UNL d   1     -40.695  14.112  20.851  0.00  0.00     0.196 A 
ATOM      3  N   UNL d   1     -40.289  14.630  19.687  0.00  0.00    -0.193 N 
ATOM      4  N   UNL d   1     -39.676  14.681  20.222  0.00  0.00    -0.058 NA
ATOM      5  N   UNL d   1     -39.911  14.370  20.931  0.00  0.00    -0.122 NA
ATOM      6  N   UNL d   1     -41.686  14.080  19.828  0.00  0.00    -0.204 NA
ATOM      7  C   UNL d   1     -41.219  13.758  21.367  0.00  0.00     0.289 A 
ATOM      8  N   UNL d   1     -41.980  13.559  21.126  0.00  0.00    -0.249 N 
ATOM      9  C   UNL d   1     -42.217  13.723  20.346  0.00  0.00     0.187 A 
ATOM     10  O   UNL d   1     -40.981  13.594  22.148  0.00  0.00    -0.265 OA
ENDROOT
BRANCH   8  11
ATOM     11  C   UNL d   1     -42.519  13.199  21.645  0.00  0.00     0.153 C 
BRANCH  11  12
ATOM     12  C   UNL d   1     -43.274  12.978  21.381  0.00  0.00     0.318 C 
ATOM     13  O   UNL d   1     -43.352  12.508  20.709  0.00  0.00    -0.257 OA
BRANCH  12  14
ATOM     14  O   UNL d   1     -43.936  13.231  21.793  0.00  0.00    -0.270 OA
BRANCH  14  15
ATOM     15  C   UNL d   1     -44.626  12.777  21.786  0.00  0.00     0.126 C 
BRANCH  15  16
ATOM     16  C   UNL d   1     -45.264  13.007  22.232  0.00  0.00     0.025 A 
ATOM     17  C   UNL d   1     -45.567  13.772  22.150  0.00  0.00     0.002 A 
ATOM     18  C   UNL d   1     -46.216  14.015  22.600  0.00  0.00     0.000 A 
ATOM     19  C   UNL d   1     -46.559  13.486  23.131  0.00  0.00     0.000 A 
ATOM     20  C   UNL d   1     -46.256  12.720  23.213  0.00  0.00     0.000 A 
ATOM     21  C   UNL d   1     -45.612  12.484  22.765  0.00  0.00     0.002 A 
ENDBRANCH  15  16
ENDBRANCH  14  15
ENDBRANCH  12  14
ENDBRANCH  11  12
ENDBRANCH   8  11
BRANCH   3  22
ATOM     22  C   UNL d   1     -40.236  14.892  18.926  0.00  0.00     0.086 A 
ATOM     23  C   UNL d   1     -39.939  14.388  18.325  0.00  0.00     0.019 A 
ATOM     24  C   UNL d   1     -39.889  14.659  17.564  0.00  0.00     0.002 A 
ATOM     25  C   UNL d   1     -40.131  15.440  17.370  0.00  0.00     0.000 A 
ATOM     26  C   UNL d   1     -40.417  15.922  17.958  0.00  0.00     0.002 A 
ATOM     27  C   UNL d   1     -40.080  15.726  16.576  0.00  0.00     0.000 C 
ATOM     28  C   UNL d   1     -40.473  15.659  18.734  0.00  0.00     0.019 A 
ENDBRANCH   3  22
TORSDOF 6
ENDMDL
