MODEL 1
REMARK VINA RESULT:      -7.0      0.000      0.000
REMARK  5 active torsions:
REMARK  status: ('A' for Active; 'I' for Inactive)
REMARK    1  A    between atoms: C_12  and  C_1 
REMARK    2  A    between atoms: C_4  and  O_8 
REMARK       I    between atoms: N_11  and  C_4 
REMARK    3  A    between atoms: O_8  and  C_13 
REMARK    4  A    between atoms: C_17  and  N_11 
REMARK    5  A    between atoms: C_18  and  N_11 
ROOT
ATOM      1  C   UNL d   1     -49.166  13.070  22.734  0.00  0.00     0.064 A 
ATOM      2  C   UNL d   1     -48.468  13.371  23.061  0.00  0.00     0.199 A 
ATOM      3  C   UNL d   1     -47.841  12.859  23.214  0.00  0.00     0.062 A 
ATOM      4  C   UNL d   1     -49.237  12.266  22.562  0.00  0.00     0.126 A 
ATOM      5  C   UNL d   1     -47.908  12.055  23.044  0.00  0.00     0.105 A 
ATOM      6  O   UNL d   1     -48.606  11.755  22.717  0.00  0.00    -0.305 OA
ATOM      7  C   UNL d   1     -47.273  11.543  23.200  0.00  0.00     0.050 A 
ATOM      8  C   UNL d   1     -47.132  13.154  23.544  0.00  0.00     0.007 A 
ATOM      9  C   UNL d   1     -46.576  11.836  23.525  0.00  0.00     0.107 A 
ATOM     10  O   UNL d   1     -48.398  14.175  23.232  0.00  0.00    -0.286 OA
ATOM     11  C   UNL d   1     -46.505  12.644  23.698  0.00  0.00     0.025 A 
ENDROOT
BRANCH   9  12
ATOM     12  O   UNL d   1     -45.948  11.328  23.680  0.00  0.00    -0.259 OA
BRANCH  12  13
ATOM     13  C   UNL d   1     -45.223  11.444  23.314  0.00  0.00     0.377 C 
ATOM     14  N   UNL d   1     -44.660  10.836  23.321  0.00  0.00    -0.252 N 
ATOM     15  O   UNL d   1     -45.056  12.160  22.943  0.00  0.00    -0.237 OA
BRANCH  14  16
ATOM     16  C   UNL d   1     -44.823  10.117  23.692  0.00  0.00     0.085 C 
ATOM     17  C   UNL d   1     -44.263   9.510  23.662  0.00  0.00     0.021 C 
ENDBRANCH  14  16
BRANCH  14  18
ATOM     18  C   UNL d   1     -43.930  10.953  22.953  0.00  0.00     0.085 C 
ATOM     19  C   UNL d   1     -43.227  10.828  23.366  0.00  0.00     0.021 C 
ENDBRANCH  14  18
ENDBRANCH  12  13
ENDBRANCH   9  12
BRANCH   1  20
ATOM     20  C   UNL d   1     -49.801  13.583  22.577  0.00  0.00     0.005 A 
ATOM     21  C   UNL d   1     -50.402  13.662  23.137  0.00  0.00     0.000 A 
ATOM     22  C   UNL d   1     -51.036  14.175  22.980  0.00  0.00     0.000 A 
ATOM     23  C   UNL d   1     -51.062  14.597  22.274  0.00  0.00     0.000 A 
ATOM     24  C   UNL d   1     -50.450  14.507  21.722  0.00  0.00     0.000 A 
ATOM     25  C   UNL d   1     -49.822  14.000  21.876  0.00  0.00     0.000 A 
ENDBRANCH   1  20
TORSDOF 5
ENDMDL
MODEL 2
REMARK VINA RESULT:      -6.7      1.236      1.575
REMARK  5 active torsions:
REMARK  status: ('A' for Active; 'I' for Inactive)
REMARK    1  A    between atoms: C_12  and  C_1 
REMARK    2  A    between atoms: C_4  and  O_8 
REMARK       I    between atoms: N_11  and  C_4 
REMARK    3  A    between atoms: O_8  and  C_13 
REMARK    4  A    between atoms: C_17  and  N_11 
REMARK    5  A    between atoms: C_18  and  N_11 
ROOT
ATOM      1  C   UNL d   1     -48.852  13.705  22.869  0.00  0.00     0.064 A 
ATOM      2  C   UNL d   1     -48.162  14.160  22.911  0.00  0.00     0.199 A 
ATOM      3  C   UNL d   1     -47.429  13.786  22.874  0.00  0.00     0.062 A 
ATOM      4  C   UNL d   1     -48.809  12.885  22.791  0.00  0.00     0.126 A 
ATOM      5  C   UNL d   1     -47.382  12.967  22.797  0.00  0.00     0.105 A 
ATOM      6  O   UNL d   1     -48.073  12.512  22.755  0.00  0.00    -0.305 OA
ATOM      7  C   UNL d   1     -46.641  12.594  22.761  0.00  0.00     0.050 A 
ATOM      8  C   UNL d   1     -46.726  14.238  22.916  0.00  0.00     0.007 A 
ATOM      9  C   UNL d   1     -45.951  13.041  22.802  0.00  0.00     0.107 A 
ATOM     10  O   UNL d   1     -48.204  14.981  22.988  0.00  0.00    -0.286 OA
ATOM     11  C   UNL d   1     -45.994  13.865  22.880  0.00  0.00     0.025 A 
ENDROOT
BRANCH   9  12
ATOM     12  O   UNL d   1     -45.218  12.671  22.767  0.00  0.00    -0.259 OA
BRANCH  12  13
ATOM     13  C   UNL d   1     -44.757  12.730  22.090  0.00  0.00     0.377 C 
ATOM     14  N   UNL d   1     -44.012  12.369  22.070  0.00  0.00    -0.252 N 
ATOM     15  O   UNL d   1     -45.034  13.147  21.435  0.00  0.00    -0.237 OA
BRANCH  14  16
ATOM     16  C   UNL d   1     -43.731  11.952  22.724  0.00  0.00     0.085 C 
ATOM     17  C   UNL d   1     -43.402  11.201  22.614  0.00  0.00     0.021 C 
ENDBRANCH  14  16
BRANCH  14  18
ATOM     18  C   UNL d   1     -43.548  12.430  21.389  0.00  0.00     0.085 C 
ATOM     19  C   UNL d   1     -42.912  12.954  21.360  0.00  0.00     0.021 C 
ENDBRANCH  14  18
ENDBRANCH  12  13
ENDBRANCH   9  12
BRANCH   1  20
ATOM     20  C   UNL d   1     -49.593  14.079  22.905  0.00  0.00     0.005 A 
ATOM     21  C   UNL d   1     -49.971  14.293  22.203  0.00  0.00     0.000 A 
ATOM     22  C   UNL d   1     -50.712  14.667  22.240  0.00  0.00     0.000 A 
ATOM     23  C   UNL d   1     -51.062  14.820  22.969  0.00  0.00     0.000 A 
ATOM     24  C   UNL d   1     -50.670  14.598  23.665  0.00  0.00     0.000 A 
ATOM     25  C   UNL d   1     -49.937  14.229  23.630  0.00  0.00     0.000 A 
ENDBRANCH   1  20
TORSDOF 5
ENDMDL
MODEL 3
REMARK VINA RESULT:      -4.9      8.606     10.274
REMARK  5 active torsions:
REMARK  status: ('A' for Active; 'I' for Inactive)
REMARK    1  A    between atoms: C_12  and  C_1 
REMARK    2  A    between atoms: C_4  and  O_8 
REMARK       I    between atoms: N_11  and  C_4 
REMARK    3  A    between atoms: O_8  and  C_13 
REMARK    4  A    between atoms: C_17  and  N_11 
REMARK    5  A    between atoms: C_18  and  N_11 
ROOT
ATOM      1  C   UNL d   1     -38.590  14.957  17.802  0.00  0.00     0.064 A 
ATOM      2  C   UNL d   1     -39.326  14.832  18.157  0.00  0.00     0.199 A 
ATOM      3  C   UNL d   1     -39.406  14.943  18.970  0.00  0.00     0.062 A 
ATOM      4  C   UNL d   1     -37.940  15.191  18.254  0.00  0.00     0.126 A 
ATOM      5  C   UNL d   1     -38.760  15.176  19.424  0.00  0.00     0.105 A 
ATOM      6  O   UNL d   1     -38.023  15.302  19.068  0.00  0.00    -0.305 OA
ATOM      7  C   UNL d   1     -38.845  15.287  20.243  0.00  0.00     0.050 A 
ATOM      8  C   UNL d   1     -40.147  14.819  19.338  0.00  0.00     0.007 A 
ATOM      9  C   UNL d   1     -39.575  15.164  20.603  0.00  0.00     0.107 A 
ATOM     10  O   UNL d   1     -39.976  14.598  17.706  0.00  0.00    -0.286 OA
ATOM     11  C   UNL d   1     -40.228  14.930  20.149  0.00  0.00     0.025 A 
ENDROOT
BRANCH   9  12
ATOM     12  O   UNL d   1     -39.658  15.274  21.413  0.00  0.00    -0.259 OA
BRANCH  12  13
ATOM     13  C   UNL d   1     -39.406  14.695  21.938  0.00  0.00     0.377 C 
ATOM     14  N   UNL d   1     -39.120  14.915  22.683  0.00  0.00    -0.252 N 
ATOM     15  O   UNL d   1     -39.438  13.900  21.723  0.00  0.00    -0.237 OA
BRANCH  14  16
ATOM     16  C   UNL d   1     -39.086  15.710  22.901  0.00  0.00     0.085 C 
ATOM     17  C   UNL d   1     -39.241  15.922  23.685  0.00  0.00     0.021 C 
ENDBRANCH  14  16
BRANCH  14  18
ATOM     18  C   UNL d   1     -38.866  14.332  23.210  0.00  0.00     0.085 C 
ATOM     19  C   UNL d   1     -38.147  14.410  23.607  0.00  0.00     0.021 C 
ENDBRANCH  14  18
ENDBRANCH  12  13
ENDBRANCH   9  12
BRANCH   1  20
ATOM     20  C   UNL d   1     -38.505  14.846  16.983  0.00  0.00     0.005 A 
ATOM     21  C   UNL d   1     -38.453  14.079  16.683  0.00  0.00     0.000 A 
ATOM     22  C   UNL d   1     -38.369  13.969  15.865  0.00  0.00     0.000 A 
ATOM     23  C   UNL d   1     -38.337  14.619  15.361  0.00  0.00     0.000 A 
ATOM     24  C   UNL d   1     -38.390  15.383  15.677  0.00  0.00     0.000 A 
ATOM     25  C   UNL d   1     -38.474  15.494  16.487  0.00  0.00     0.000 A 
ENDBRANCH   1  20
TORSDOF 5
ENDMDL
