MODEL 1
REMARK VINA RESULT:      69.8      0.000      0.000
REMARK  5 active torsions:
REMARK  status: ('A' for Active; 'I' for Inactive)
REMARK    1  A    between atoms: C_9  and  C_1 
REMARK    2  A    between atoms: N_4  and  C_2 
REMARK    3  A    between atoms: C_8  and  C_3 
REMARK       I    between atoms: C_7  and  N_4 
REMARK    4  A    between atoms: C_10  and  C_7 
REMARK    5  A    between atoms: O_18  and  C_9 
ROOT
ATOM      1  C   UNL d   1     -47.537  30.238  35.579  0.00  0.00     0.088 A 
ATOM      2  C   UNL d   1     -47.384  30.979  35.269  0.00  0.00     0.119 A 
ATOM      3  C   UNL d   1     -47.978  29.830  34.998  0.00  0.00     0.020 A 
ATOM      4  S   UNL d   1     -47.684  31.076  34.553  0.00  0.00    -0.067 SA
ATOM      5  C   UNL d   1     -48.076  30.347  34.350  0.00  0.00     0.038 A 
ENDROOT
BRANCH   2   6
ATOM      6  N   UNL d   1     -46.939  31.619  35.661  0.00  0.00    -0.201 NA
ATOM      7  C   UNL d   1     -46.985  32.408  35.344  0.00  0.00     0.281 C 
ATOM      8  O   UNL d   1     -46.552  33.006  35.733  0.00  0.00    -0.265 OA
BRANCH   7   9
ATOM      9  C   UNL d   1     -47.421  32.589  34.699  0.00  0.00     0.077 A 
ATOM     10  C   UNL d   1     -47.051  32.694  33.988  0.00  0.00     0.104 A 
ATOM     11  N   UNL d   1     -47.471  32.881  33.306  0.00  0.00    -0.242 NA
ATOM     12  C   UNL d   1     -48.303  32.965  33.342  0.00  0.00     0.099 A 
ATOM     13  C   UNL d   1     -48.683  32.856  34.079  0.00  0.00     0.021 A 
ATOM     14  C   UNL d   1     -48.249  32.671  34.746  0.00  0.00     0.008 A 
ENDBRANCH   7   9
ENDBRANCH   2   6
BRANCH   1  15
ATOM     15  C   UNL d   1     -47.306  29.936  36.325  0.00  0.00     0.298 C 
ATOM     16  O   UNL d   1     -47.852  29.940  36.966  0.00  0.00    -0.259 OA
BRANCH  15  17
ATOM     17  O   UNL d   1     -46.542  29.639  36.418  0.00  0.00    -0.296 OA
ATOM     18  C   UNL d   1     -46.159  29.696  37.165  0.00  0.00     0.185 C 
ENDBRANCH  15  17
ENDBRANCH   1  15
BRANCH   3  19
ATOM     19  C   UNL d   1     -48.233  29.053  35.124  0.00  0.00     0.030 A 
ATOM     20  S   UNL d   1     -48.284  28.408  35.612  0.00  0.00    -0.086 SA
ATOM     21  C   UNL d   1     -48.686  27.836  35.195  0.00  0.00     0.035 A 
ATOM     22  C   UNL d   1     -48.883  28.114  34.465  0.00  0.00     0.007 A 
ATOM     23  C   UNL d   1     -48.596  28.885  34.419  0.00  0.00     0.007 A 
ENDBRANCH   3  19
TORSDOF 5
ENDMDL
