MODEL 1
REMARK VINA RESULT:      -2.9      0.000      0.000
REMARK  8 active torsions:
REMARK  status: ('A' for Active; 'I' for Inactive)
REMARK    1  A    between atoms: C_21  and  C_3 
REMARK    2  A    between atoms: S_17  and  C_5 
REMARK    3  A    between atoms: C_11  and  C_16 
REMARK       I    between atoms: N_14  and  C_11 
REMARK    4  A    between atoms: C_19  and  N_14 
REMARK    5  A    between atoms: C_16  and  C_20 
REMARK    6  A    between atoms: C_20  and  S_17 
REMARK    7  A    between atoms: O_27  and  C_22 
REMARK    8  A    between atoms: C_30  and  O_27 
ROOT
ATOM      1  C   UNL d   1      31.324  16.508 -23.746  0.00  0.00     0.092 A 
ATOM      2  C   UNL d   1      29.969  16.795 -24.100  0.00  0.00     0.057 A 
ATOM      3  C   UNL d   1      30.528  16.283 -23.778  0.00  0.00     0.016 A 
ATOM      4  N   UNL d   1      30.992  17.756 -24.361  0.00  0.00    -0.239 NA
ATOM      5  C   UNL d   1      31.556  17.244 -24.038  0.00  0.00     0.120 A 
ATOM      6  C   UNL d   1      30.200  17.531 -24.392  0.00  0.00     0.081 A 
ATOM      7  C   UNL d   1      29.178  16.569 -24.130  0.00  0.00     0.193 A 
ATOM      8  C   UNL d   1      31.887  15.984 -23.418  0.00  0.00     0.103 C 
ATOM      9  N   UNL d   1      32.456  15.463 -23.090  0.00  0.00    -0.191 NA
ATOM     10  C   UNL d   1      28.850  17.817 -24.744  0.00  0.00     0.042 A 
ATOM     11  C   UNL d   1      28.618  17.081 -24.453  0.00  0.00     0.019 A 
ATOM     12  C   UNL d   1      29.641  18.042 -24.713  0.00  0.00    -0.003 A 
ATOM     13  O   UNL d   1      28.946  15.833 -23.839  0.00  0.00    -0.287 OA
ATOM     14  C   UNL d   1      28.795  18.566 -25.089  0.00  0.00     0.009 C 
ATOM     15  C   UNL d   1      28.046  17.594 -24.777  0.00  0.00     0.009 C 
ENDROOT
BRANCH   3  16
ATOM     16  C   UNL d   1      30.297  15.547 -23.487  0.00  0.00     0.001 C 
ATOM     17  C   UNL d   1      30.136  15.453 -22.684  0.00  0.00     0.000 C 
ENDBRANCH   3  16
BRANCH   5  18
ATOM     18  S   UNL d   1      32.354  17.467 -24.005  0.00  0.00    -0.067 SA
BRANCH  18  19
ATOM     19  C   UNL d   1      32.570  18.247 -24.179  0.00  0.00     0.042 C 
BRANCH  19  20
ATOM     20  C   UNL d   1      33.241  18.585 -23.822  0.00  0.00     0.070 C 
BRANCH  20  21
ATOM     21  C   UNL d   1      33.184  19.316 -23.440  0.00  0.00     0.280 C 
ATOM     22  N   UNL d   1      33.241  19.359 -22.612  0.00  0.00    -0.208 NA
ATOM     23  O   UNL d   1      33.069  20.007 -23.883  0.00  0.00    -0.265 OA
BRANCH  22  24
ATOM     24  C   UNL d   1      33.184  20.091 -22.229  0.00  0.00     0.085 A 
ATOM     25  C   UNL d   1      33.210  20.793 -22.670  0.00  0.00     0.021 A 
ATOM     26  C   UNL d   1      33.153  21.517 -22.284  0.00  0.00     0.026 A 
ATOM     27  C   UNL d   1      33.067  21.557 -21.452  0.00  0.00     0.100 A 
ATOM     28  C   UNL d   1      33.042  20.855 -21.020  0.00  0.00     0.026 A 
ATOM     29  C   UNL d   1      33.099  20.123 -21.402  0.00  0.00     0.021 A 
BRANCH  27  30
ATOM     30  O   UNL d   1      33.009  22.299 -21.062  0.00  0.00    -0.305 OA
BRANCH  30  31
ATOM     31  C   UNL d   1      32.271  22.572 -20.808  0.00  0.00     0.123 C 
ATOM     32  C   UNL d   1      32.146  23.375 -20.722  0.00  0.00     0.029 C 
ENDBRANCH  30  31
ENDBRANCH  27  30
ENDBRANCH  22  24
ENDBRANCH  20  21
ENDBRANCH  19  20
ENDBRANCH  18  19
ENDBRANCH   5  18
TORSDOF 8
ENDMDL
MODEL 2
REMARK VINA RESULT:      -2.2      1.534      6.211
REMARK  8 active torsions:
REMARK  status: ('A' for Active; 'I' for Inactive)
REMARK    1  A    between atoms: C_21  and  C_3 
REMARK    2  A    between atoms: S_17  and  C_5 
REMARK    3  A    between atoms: C_11  and  C_16 
REMARK       I    between atoms: N_14  and  C_11 
REMARK    4  A    between atoms: C_19  and  N_14 
REMARK    5  A    between atoms: C_16  and  C_20 
REMARK    6  A    between atoms: C_20  and  S_17 
REMARK    7  A    between atoms: O_27  and  C_22 
REMARK    8  A    between atoms: C_30  and  O_27 
ROOT
ATOM      1  C   UNL d   1      32.919  22.016 -23.095  0.00  0.00     0.092 A 
ATOM      2  C   UNL d   1      32.851  22.238 -21.684  0.00  0.00     0.057 A 
ATOM      3  C   UNL d   1      32.798  22.525 -22.454  0.00  0.00     0.016 A 
ATOM      4  N   UNL d   1      33.145  20.934 -22.187  0.00  0.00    -0.239 NA
ATOM      5  C   UNL d   1      33.093  21.220 -22.961  0.00  0.00     0.120 A 
ATOM      6  C   UNL d   1      33.024  21.442 -21.550  0.00  0.00     0.081 A 
ATOM      7  C   UNL d   1      32.730  22.746 -21.048  0.00  0.00     0.193 A 
ATOM      8  C   UNL d   1      32.864  22.314 -23.874  0.00  0.00     0.103 C 
ATOM      9  N   UNL d   1      32.810  22.607 -24.657  0.00  0.00    -0.191 NA
ATOM     10  C   UNL d   1      32.956  21.663 -20.144  0.00  0.00     0.042 A 
ATOM     11  C   UNL d   1      32.783  22.459 -20.278  0.00  0.00     0.019 A 
ATOM     12  C   UNL d   1      33.077  21.156 -20.781  0.00  0.00    -0.003 A 
ATOM     13  O   UNL d   1      32.556  23.542 -21.181  0.00  0.00    -0.287 OA
ATOM     14  C   UNL d   1      33.105  20.961 -19.736  0.00  0.00     0.009 C 
ATOM     15  C   UNL d   1      32.834  22.174 -19.496  0.00  0.00     0.009 C 
ENDROOT
BRANCH   3  16
ATOM     16  C   UNL d   1      32.624  23.321 -22.588  0.00  0.00     0.001 C 
ATOM     17  C   UNL d   1      31.864  23.605 -22.451  0.00  0.00     0.000 C 
ENDBRANCH   3  16
BRANCH   5  18
ATOM     18  S   UNL d   1      33.214  20.711 -23.605  0.00  0.00    -0.067 SA
BRANCH  18  19
ATOM     19  C   UNL d   1      33.198  19.892 -23.489  0.00  0.00     0.042 C 
BRANCH  19  20
ATOM     20  C   UNL d   1      33.161  19.379 -24.142  0.00  0.00     0.070 C 
BRANCH  20  21
ATOM     21  C   UNL d   1      32.746  18.665 -24.085  0.00  0.00     0.280 C 
ATOM     22  N   UNL d   1      32.016  18.575 -24.472  0.00  0.00    -0.208 NA
ATOM     23  O   UNL d   1      33.059  18.038 -23.642  0.00  0.00    -0.265 OA
BRANCH  22  24
ATOM     24  C   UNL d   1      31.601  17.861 -24.415  0.00  0.00     0.085 A 
ATOM     25  C   UNL d   1      31.029  17.760 -23.823  0.00  0.00     0.021 A 
ATOM     26  C   UNL d   1      30.621  17.048 -23.772  0.00  0.00     0.026 A 
ATOM     27  C   UNL d   1      30.772  16.423 -24.308  0.00  0.00     0.100 A 
ATOM     28  C   UNL d   1      31.342  16.531 -24.894  0.00  0.00     0.026 A 
ATOM     29  C   UNL d   1      31.757  17.245 -24.952  0.00  0.00     0.021 A 
BRANCH  27  30
ATOM     30  O   UNL d   1      30.352  15.697 -24.252  0.00  0.00    -0.305 OA
BRANCH  30  31
ATOM     31  C   UNL d   1      29.543  15.678 -24.418  0.00  0.00     0.123 C 
ATOM     32  C   UNL d   1      29.016  15.459 -23.833  0.00  0.00     0.029 C 
ENDBRANCH  30  31
ENDBRANCH  27  30
ENDBRANCH  22  24
ENDBRANCH  20  21
ENDBRANCH  19  20
ENDBRANCH  18  19
ENDBRANCH   5  18
TORSDOF 8
ENDMDL
