MODEL 1
REMARK VINA RESULT:      -2.7      0.000      0.000
REMARK  5 active torsions:
REMARK  status: ('A' for Active; 'I' for Inactive)
REMARK    1  A    between atoms: S_2  and  C_10 
REMARK    2  A    between atoms: N_7  and  S_2 
REMARK    3  A    between atoms: C_9  and  N_7 
REMARK    4  A    between atoms: O_23  and  C_16 
REMARK    5  A    between atoms: O_24  and  C_19 
ROOT
ATOM      1  S   UNL d   1     -41.424-122.803 -50.953  0.00  0.00     0.285 S 
ATOM      2  O   UNL d   1     -41.725-122.043 -51.054  0.00  0.00    -0.198 OA
ATOM      3  O   UNL d   1     -41.123-123.562 -50.851  0.00  0.00    -0.198 OA
ENDROOT
BRANCH   1   4
ATOM      4  C   UNL d   1     -41.434-122.915 -51.768  0.00  0.00     0.107 A 
ATOM      5  C   UNL d   1     -41.736-122.332 -52.260  0.00  0.00     0.032 A 
ATOM      6  C   UNL d   1     -41.746-122.445 -53.079  0.00  0.00     0.085 A 
ATOM      7  N   UNL d   1     -42.008-121.971 -53.704  0.00  0.00    -0.256 N 
ATOM      8  C   UNL d   1     -41.453-123.141 -53.402  0.00  0.00     0.085 A 
ATOM      9  C   UNL d   1     -41.880-122.368 -54.398  0.00  0.00     0.339 A 
ATOM     10  C   UNL d   1     -42.346-121.219 -53.641  0.00  0.00     0.104 C 
ATOM     11  N   UNL d   1     -41.535-123.094 -54.222  0.00  0.00    -0.256 N 
ATOM     12  O   UNL d   1     -42.066-122.085 -55.161  0.00  0.00    -0.245 OA
ATOM     13  C   UNL d   1     -41.313-123.674 -54.774  0.00  0.00     0.104 C 
ATOM     14  C   UNL d   1     -41.148-123.728 -52.909  0.00  0.00     0.020 A 
ATOM     15  C   UNL d   1     -41.139-123.615 -52.090  0.00  0.00     0.015 A 
ENDBRANCH   1   4
BRANCH   1  16
ATOM     16  N   UNL d   1     -41.414-122.690 -50.138  0.00  0.00    -0.156 NA
BRANCH  16  17
ATOM     17  C   UNL d   1     -42.017-122.996 -49.672  0.00  0.00     0.118 A 
ATOM     18  C   UNL d   1     -42.717-123.254 -50.020  0.00  0.00     0.046 A 
ATOM     19  C   UNL d   1     -43.320-123.561 -49.554  0.00  0.00     0.096 A 
ATOM     20  C   UNL d   1     -43.227-123.613 -48.728  0.00  0.00     0.026 A 
ATOM     21  C   UNL d   1     -42.527-123.355 -48.380  0.00  0.00     0.028 A 
ATOM     22  C   UNL d   1     -41.921-123.046 -48.854  0.00  0.00     0.113 A 
BRANCH  19  23
ATOM     23  O   UNL d   1     -44.017-123.817 -49.909  0.00  0.00    -0.328 OA
ATOM     24  C   UNL d   1     -44.736-123.724 -49.521  0.00  0.00     0.181 C 
ENDBRANCH  19  23
BRANCH  22  25
ATOM     25  O   UNL d   1     -41.221-122.787 -48.506  0.00  0.00    -0.327 OA
ATOM     26  C   UNL d   1     -41.126-122.832 -47.692  0.00  0.00     0.181 C 
ENDBRANCH  22  25
ENDBRANCH  16  17
ENDBRANCH   1  16
TORSDOF 5
ENDMDL
MODEL 2
REMARK VINA RESULT:      -0.4      0.915      1.660
REMARK  5 active torsions:
REMARK  status: ('A' for Active; 'I' for Inactive)
REMARK    1  A    between atoms: S_2  and  C_10 
REMARK    2  A    between atoms: N_7  and  S_2 
REMARK    3  A    between atoms: C_9  and  N_7 
REMARK    4  A    between atoms: O_23  and  C_16 
REMARK    5  A    between atoms: O_24  and  C_19 
ROOT
ATOM      1  S   UNL d   1     -41.928-122.102 -51.540  0.00  0.00     0.285 S 
ATOM      2  O   UNL d   1     -42.733-122.245 -51.631  0.00  0.00    -0.198 OA
ATOM      3  O   UNL d   1     -41.123-121.958 -51.448  0.00  0.00    -0.198 OA
ENDROOT
BRANCH   1   4
ATOM      4  C   UNL d   1     -41.791-122.385 -52.300  0.00  0.00     0.107 A 
ATOM      5  C   UNL d   1     -42.023-121.942 -52.952  0.00  0.00     0.032 A 
ATOM      6  C   UNL d   1     -41.885-122.227 -53.716  0.00  0.00     0.085 A 
ATOM      7  N   UNL d   1     -42.050-121.916 -54.464  0.00  0.00    -0.256 N 
ATOM      8  C   UNL d   1     -41.518-122.953 -53.825  0.00  0.00     0.085 A 
ATOM      9  C   UNL d   1     -41.790-122.441 -55.022  0.00  0.00     0.339 A 
ATOM     10  C   UNL d   1     -42.419-121.193 -54.624  0.00  0.00     0.104 C 
ATOM     11  N   UNL d   1     -41.458-123.087 -54.636  0.00  0.00    -0.256 N 
ATOM     12  O   UNL d   1     -41.849-122.340 -55.849  0.00  0.00    -0.245 OA
ATOM     13  C   UNL d   1     -41.123-123.754 -55.003  0.00  0.00     0.104 C 
ATOM     14  C   UNL d   1     -41.285-123.400 -53.171  0.00  0.00     0.020 A 
ATOM     15  C   UNL d   1     -41.422-123.115 -52.407  0.00  0.00     0.015 A 
ENDBRANCH   1   4
BRANCH   1  16
ATOM     16  N   UNL d   1     -42.064-121.818 -50.779  0.00  0.00    -0.156 NA
BRANCH  16  17
ATOM     17  C   UNL d   1     -42.229-122.341 -50.168  0.00  0.00     0.118 A 
ATOM     18  C   UNL d   1     -41.621-122.774 -49.820  0.00  0.00     0.046 A 
ATOM     19  C   UNL d   1     -41.786-123.297 -49.208  0.00  0.00     0.096 A 
ATOM     20  C   UNL d   1     -42.568-123.393 -48.937  0.00  0.00     0.026 A 
ATOM     21  C   UNL d   1     -43.175-122.960 -49.285  0.00  0.00     0.028 A 
ATOM     22  C   UNL d   1     -43.004-122.433 -49.902  0.00  0.00     0.113 A 
BRANCH  19  23
ATOM     23  O   UNL d   1     -41.173-123.726 -48.865  0.00  0.00    -0.328 OA
ATOM     24  C   UNL d   1     -41.123-123.792 -48.047  0.00  0.00     0.181 C 
ENDBRANCH  19  23
BRANCH  22  25
ATOM     25  O   UNL d   1     -43.612-122.000 -50.250  0.00  0.00    -0.327 OA
ATOM     26  C   UNL d   1     -44.350-121.966 -49.891  0.00  0.00     0.181 C 
ENDBRANCH  22  25
ENDBRANCH  16  17
ENDBRANCH   1  16
TORSDOF 5
ENDMDL
