MODEL 1
REMARK VINA RESULT:      -3.3      0.000      0.000
REMARK  4 active torsions:
REMARK  status: ('A' for Active; 'I' for Inactive)
REMARK    1  A    between atoms: N_2  and  S_1 
REMARK    2  A    between atoms: N_3  and  S_1 
REMARK    3  A    between atoms: C_8  and  N_3 
REMARK    4  A    between atoms: C_7  and  C_6 
ROOT
ATOM      1  N   UNL d   1      31.347  16.779 -24.535  0.00  0.00    -0.144 NA
ENDROOT
BRANCH   1   2
ATOM      2  S   UNL d   1      30.603  16.650 -24.205  0.00  0.00     0.351 S 
ATOM      3  O   UNL d   1      30.834  15.992 -23.766  0.00  0.00    -0.180 OA
ATOM      4  O   UNL d   1      30.373  17.307 -24.643  0.00  0.00    -0.180 OA
BRANCH   2   5
ATOM      5  N   UNL d   1      29.837  16.577 -23.911  0.00  0.00    -0.215 N 
ATOM      6  C   UNL d   1      29.614  15.883 -23.514  0.00  0.00     0.093 C 
ATOM      7  C   UNL d   1      28.855  15.814 -23.225  0.00  0.00     0.020 C 
ATOM      8  C   UNL d   1      28.282  16.366 -23.414  0.00  0.00     0.003 C 
ATOM      9  C   UNL d   1      28.476  17.000 -23.902  0.00  0.00     0.020 C 
ATOM     10  C   UNL d   1      29.242  17.082 -24.202  0.00  0.00     0.093 C 
ENDBRANCH   2   5
ENDBRANCH   1   2
BRANCH   1  11
ATOM     11  C   UNL d   1      31.988  17.028 -24.051  0.00  0.00     0.095 A 
ATOM     12  C   UNL d   1      32.089  17.836 -23.879  0.00  0.00     0.023 A 
ATOM     13  C   UNL d   1      32.713  18.080 -23.392  0.00  0.00     0.041 A 
ATOM     14  C   UNL d   1      33.241  17.515 -23.082  0.00  0.00     0.003 A 
ATOM     15  C   UNL d   1      33.150  16.701 -23.245  0.00  0.00     0.002 A 
ATOM     16  C   UNL d   1      32.512  16.459 -23.735  0.00  0.00     0.020 A 
BRANCH  13  17
ATOM     17  C   UNL d   1      32.903  18.884 -23.336  0.00  0.00     0.196 C 
ATOM     18  O   UNL d   1      33.118  19.300 -24.012  0.00  0.00    -0.287 OA
ATOM     19  C   UNL d   1      32.876  19.262 -22.603  0.00  0.00     0.045 C 
ENDBRANCH  13  17
ENDBRANCH   1  11
TORSDOF 4
ENDMDL
MODEL 2
REMARK VINA RESULT:      -2.8      1.237      3.705
REMARK  4 active torsions:
REMARK  status: ('A' for Active; 'I' for Inactive)
REMARK    1  A    between atoms: N_2  and  S_1 
REMARK    2  A    between atoms: N_3  and  S_1 
REMARK    3  A    between atoms: C_8  and  N_3 
REMARK    4  A    between atoms: C_7  and  C_6 
ROOT
ATOM      1  N   UNL d   1      31.859  16.888 -24.579  0.00  0.00    -0.144 NA
ENDROOT
BRANCH   1   2
ATOM      2  S   UNL d   1      32.196  17.526 -24.181  0.00  0.00     0.351 S 
ATOM      3  O   UNL d   1      32.472  17.076 -23.549  0.00  0.00    -0.180 OA
ATOM      4  O   UNL d   1      31.919  17.975 -24.812  0.00  0.00    -0.180 OA
BRANCH   2   5
ATOM      5  N   UNL d   1      32.510  18.204 -23.835  0.00  0.00    -0.215 N 
ATOM      6  C   UNL d   1      32.908  18.759 -24.308  0.00  0.00     0.093 C 
ATOM      7  C   UNL d   1      33.218  19.429 -23.962  0.00  0.00     0.020 C 
ATOM      8  C   UNL d   1      33.240  19.511 -23.149  0.00  0.00     0.003 C 
ATOM      9  C   UNL d   1      32.945  18.907 -22.673  0.00  0.00     0.020 C 
ATOM     10  C   UNL d   1      32.627  18.222 -23.011  0.00  0.00     0.093 C 
ENDBRANCH   2   5
ENDBRANCH   1   2
BRANCH   1  11
ATOM     11  C   UNL d   1      31.170  16.514 -24.274  0.00  0.00     0.095 A 
ATOM     12  C   UNL d   1      30.416  16.797 -24.485  0.00  0.00     0.023 A 
ATOM     13  C   UNL d   1      29.737  16.421 -24.194  0.00  0.00     0.041 A 
ATOM     14  C   UNL d   1      29.814  15.766 -23.686  0.00  0.00     0.003 A 
ATOM     15  C   UNL d   1      30.564  15.470 -23.468  0.00  0.00     0.002 A 
ATOM     16  C   UNL d   1      31.248  15.852 -23.771  0.00  0.00     0.020 A 
BRANCH  13  17
ATOM     17  C   UNL d   1      28.997  16.780 -24.281  0.00  0.00     0.196 C 
ATOM     18  O   UNL d   1      28.750  17.031 -25.024  0.00  0.00    -0.287 OA
ATOM     19  C   UNL d   1      28.511  16.885 -23.621  0.00  0.00     0.045 C 
ENDBRANCH  13  17
ENDBRANCH   1  11
TORSDOF 4
ENDMDL
MODEL 3
REMARK VINA RESULT:      -2.5      1.982      4.279
REMARK  4 active torsions:
REMARK  status: ('A' for Active; 'I' for Inactive)
REMARK    1  A    between atoms: N_2  and  S_1 
REMARK    2  A    between atoms: N_3  and  S_1 
REMARK    3  A    between atoms: C_8  and  N_3 
REMARK    4  A    between atoms: C_7  and  C_6 
ROOT
ATOM      1  N   UNL d   1      33.241  18.459 -23.041  0.00  0.00    -0.144 NA
ENDROOT
BRANCH   1   2
ATOM      2  S   UNL d   1      33.133  19.226 -22.759  0.00  0.00     0.351 S 
ATOM      3  O   UNL d   1      33.125  19.574 -23.505  0.00  0.00    -0.180 OA
ATOM      4  O   UNL d   1      33.140  18.878 -22.014  0.00  0.00    -0.180 OA
BRANCH   2   5
ATOM      5  N   UNL d   1      33.025  19.966 -22.413  0.00  0.00    -0.215 N 
ATOM      6  C   UNL d   1      33.240  20.650 -22.831  0.00  0.00     0.093 C 
ATOM      7  C   UNL d   1      33.132  21.380 -22.484  0.00  0.00     0.020 C 
ATOM      8  C   UNL d   1      32.920  21.445 -21.698  0.00  0.00     0.003 C 
ATOM      9  C   UNL d   1      32.813  20.762 -21.250  0.00  0.00     0.020 C 
ATOM     10  C   UNL d   1      32.919  20.015 -21.589  0.00  0.00     0.093 C 
ENDBRANCH   2   5
ENDBRANCH   1   2
BRANCH   1  11
ATOM     11  C   UNL d   1      32.643  18.089 -23.502  0.00  0.00     0.095 A 
ATOM     12  C   UNL d   1      32.303  17.374 -23.245  0.00  0.00     0.023 A 
ATOM     13  C   UNL d   1      31.706  17.015 -23.693  0.00  0.00     0.041 A 
ATOM     14  C   UNL d   1      31.453  17.370 -24.402  0.00  0.00     0.003 A 
ATOM     15  C   UNL d   1      31.784  18.088 -24.671  0.00  0.00     0.002 A 
ATOM     16  C   UNL d   1      32.385  18.450 -24.210  0.00  0.00     0.020 A 
BRANCH  13  17
ATOM     17  C   UNL d   1      31.469  16.241 -23.521  0.00  0.00     0.196 C 
ATOM     18  O   UNL d   1      32.036  15.670 -23.351  0.00  0.00    -0.287 OA
ATOM     19  C   UNL d   1      30.667  16.047 -23.522  0.00  0.00     0.045 C 
ENDBRANCH  13  17
ENDBRANCH   1  11
TORSDOF 4
ENDMDL
MODEL 4
REMARK VINA RESULT:      -2.1      2.136      3.436
REMARK  4 active torsions:
REMARK  status: ('A' for Active; 'I' for Inactive)
REMARK    1  A    between atoms: N_2  and  S_1 
REMARK    2  A    between atoms: N_3  and  S_1 
REMARK    3  A    between atoms: C_8  and  N_3 
REMARK    4  A    between atoms: C_7  and  C_6 
ROOT
ATOM      1  N   UNL d   1      33.233  18.804 -22.711  0.00  0.00    -0.144 NA
ENDROOT
BRANCH   1   2
ATOM      2  S   UNL d   1      32.859  18.418 -23.336  0.00  0.00     0.351 S 
ATOM      3  O   UNL d   1      33.224  18.865 -23.923  0.00  0.00    -0.180 OA
ATOM      4  O   UNL d   1      32.495  17.971 -22.748  0.00  0.00    -0.180 OA
BRANCH   2   5
ATOM      5  N   UNL d   1      32.453  17.992 -23.912  0.00  0.00    -0.215 N 
ATOM      6  C   UNL d   1      31.623  18.008 -23.925  0.00  0.00     0.093 C 
ATOM      7  C   UNL d   1      31.225  17.584 -24.497  0.00  0.00     0.020 C 
ATOM      8  C   UNL d   1      31.620  17.062 -24.985  0.00  0.00     0.003 C 
ATOM      9  C   UNL d   1      32.433  16.962 -24.898  0.00  0.00     0.020 C 
ATOM     10  C   UNL d   1      32.850  17.385 -24.322  0.00  0.00     0.093 C 
ENDBRANCH   2   5
ENDBRANCH   1   2
BRANCH   1  11
ATOM     11  C   UNL d   1      33.138  19.633 -22.608  0.00  0.00     0.095 A 
ATOM     12  C   UNL d   1      32.955  19.940 -21.856  0.00  0.00     0.023 A 
ATOM     13  C   UNL d   1      32.873  20.758 -21.752  0.00  0.00     0.041 A 
ATOM     14  C   UNL d   1      32.967  21.268 -22.403  0.00  0.00     0.003 A 
ATOM     15  C   UNL d   1      33.152  20.974 -23.163  0.00  0.00     0.002 A 
ATOM     16  C   UNL d   1      33.240  20.145 -23.261  0.00  0.00     0.020 A 
BRANCH  13  17
ATOM     17  C   UNL d   1      32.554  21.055 -21.049  0.00  0.00     0.196 C 
ATOM     18  O   UNL d   1      31.738  21.053 -20.939  0.00  0.00    -0.287 OA
ATOM     19  C   UNL d   1      33.054  21.350 -20.463  0.00  0.00     0.045 C 
ENDBRANCH  13  17
ENDBRANCH   1  11
TORSDOF 4
ENDMDL
MODEL 5
REMARK VINA RESULT:      -0.9      3.477      5.513
REMARK  4 active torsions:
REMARK  status: ('A' for Active; 'I' for Inactive)
REMARK    1  A    between atoms: N_2  and  S_1 
REMARK    2  A    between atoms: N_3  and  S_1 
REMARK    3  A    between atoms: C_8  and  N_3 
REMARK    4  A    between atoms: C_7  and  C_6 
ROOT
ATOM      1  N   UNL d   1      32.254  20.463 -21.488  0.00  0.00    -0.144 NA
ENDROOT
BRANCH   1   2
ATOM      2  S   UNL d   1      32.536  21.128 -21.092  0.00  0.00     0.351 S 
ATOM      3  O   UNL d   1      33.208  20.755 -20.797  0.00  0.00    -0.180 OA
ATOM      4  O   UNL d   1      31.864  21.500 -21.387  0.00  0.00    -0.180 OA
BRANCH   2   5
ATOM      5  N   UNL d   1      32.760  21.827 -20.719  0.00  0.00    -0.215 N 
ATOM      6  C   UNL d   1      32.985  21.812 -19.920  0.00  0.00     0.093 C 
ATOM      7  C   UNL d   1      33.206  22.507 -19.555  0.00  0.00     0.020 C 
ATOM      8  C   UNL d   1      33.107  23.228 -19.926  0.00  0.00     0.003 C 
ATOM      9  C   UNL d   1      32.778  23.252 -20.682  0.00  0.00     0.020 C 
ATOM     10  C   UNL d   1      32.550  22.555 -21.064  0.00  0.00     0.093 C 
ENDBRANCH   2   5
ENDBRANCH   1   2
BRANCH   1  11
ATOM     11  C   UNL d   1      32.592  20.234 -22.224  0.00  0.00     0.095 A 
ATOM     12  C   UNL d   1      32.596  19.432 -22.448  0.00  0.00     0.023 A 
ATOM     13  C   UNL d   1      32.917  19.209 -23.178  0.00  0.00     0.041 A 
ATOM     14  C   UNL d   1      33.240  19.788 -23.682  0.00  0.00     0.003 A 
ATOM     15  C   UNL d   1      33.241  20.596 -23.471  0.00  0.00     0.002 A 
ATOM     16  C   UNL d   1      32.908  20.817 -22.732  0.00  0.00     0.020 A 
BRANCH  13  17
ATOM     17  C   UNL d   1      33.055  18.409 -23.341  0.00  0.00     0.196 C 
ATOM     18  O   UNL d   1      33.090  17.867 -22.723  0.00  0.00    -0.287 OA
ATOM     19  C   UNL d   1      33.155  18.161 -24.122  0.00  0.00     0.045 C 
ENDBRANCH  13  17
ENDBRANCH   1  11
TORSDOF 4
ENDMDL
MODEL 6
REMARK VINA RESULT:      -0.6      3.379      5.122
REMARK  4 active torsions:
REMARK  status: ('A' for Active; 'I' for Inactive)
REMARK    1  A    between atoms: N_2  and  S_1 
REMARK    2  A    between atoms: N_3  and  S_1 
REMARK    3  A    between atoms: C_8  and  N_3 
REMARK    4  A    between atoms: C_7  and  C_6 
ROOT
ATOM      1  N   UNL d   1      33.226  20.954 -21.911  0.00  0.00    -0.144 NA
ENDROOT
BRANCH   1   2
ATOM      2  S   UNL d   1      33.094  20.349 -22.454  0.00  0.00     0.351 S 
ATOM      3  O   UNL d   1      33.215  20.822 -23.117  0.00  0.00    -0.180 OA
ATOM      4  O   UNL d   1      32.973  19.876 -21.791  0.00  0.00    -0.180 OA
BRANCH   2   5
ATOM      5  N   UNL d   1      32.951  19.701 -22.942  0.00  0.00    -0.215 N 
ATOM      6  C   UNL d   1      32.731  18.974 -22.606  0.00  0.00     0.093 C 
ATOM      7  C   UNL d   1      32.591  18.335 -23.093  0.00  0.00     0.020 C 
ATOM      8  C   UNL d   1      32.768  18.367 -23.890  0.00  0.00     0.003 C 
ATOM      9  C   UNL d   1      33.093  19.055 -24.205  0.00  0.00     0.020 C 
ATOM     10  C   UNL d   1      33.240  19.711 -23.723  0.00  0.00     0.093 C 
ENDBRANCH   2   5
ENDBRANCH   1   2
BRANCH   1  11
ATOM     11  C   UNL d   1      33.003  21.744 -22.094  0.00  0.00     0.095 A 
ATOM     12  C   UNL d   1      32.601  22.204 -21.528  0.00  0.00     0.023 A 
ATOM     13  C   UNL d   1      32.393  22.986 -21.705  0.00  0.00     0.041 A 
ATOM     14  C   UNL d   1      32.579  23.305 -22.451  0.00  0.00     0.003 A 
ATOM     15  C   UNL d   1      32.983  22.855 -23.027  0.00  0.00     0.002 A 
ATOM     16  C   UNL d   1      33.198  22.065 -22.840  0.00  0.00     0.020 A 
BRANCH  13  17
ATOM     17  C   UNL d   1      31.873  23.396 -21.209  0.00  0.00     0.196 C 
ATOM     18  O   UNL d   1      31.156  23.671 -21.506  0.00  0.00    -0.287 OA
ATOM     19  C   UNL d   1      32.076  23.528 -20.419  0.00  0.00     0.045 C 
ENDBRANCH  13  17
ENDBRANCH   1  11
TORSDOF 4
ENDMDL
