MODEL 1
REMARK VINA RESULT:      51.4      0.000      0.000
REMARK  8 active torsions:
REMARK  status: ('A' for Active; 'I' for Inactive)
REMARK    1  A    between atoms: C_2  and  P_1 
REMARK    2  A    between atoms: O_5  and  P_1 
REMARK    3  A    between atoms: O_6  and  P_1 
REMARK    4  A    between atoms: N_3  and  C_2 
REMARK       I    between atoms: C_4  and  N_3 
REMARK    5  A    between atoms: C_9  and  C_4 
REMARK    6  A    between atoms: C_12  and  O_5 
REMARK    7  A    between atoms: C_11  and  O_6 
REMARK    8  A    between atoms: C_10  and  C_9 
ROOT
ATOM      1  C   UNL d   1     -55.182-100.427 -43.407  0.00  0.00     0.165 C 
ATOM      2  C   UNL d   1     -54.790 -99.836 -42.986  0.00  0.00     0.029 C 
ENDROOT
BRANCH   1   3
ATOM      3  P   UNL d   1     -55.478-100.279 -44.164  0.00  0.00     0.392 P 
ATOM      4  O   UNL d   1     -55.268 -99.460 -44.075  0.00  0.00    -0.251 OA
BRANCH   3   5
ATOM      5  O   UNL d   1     -55.779-100.114 -44.941  0.00  0.00    -0.265 OA
BRANCH   5   6
ATOM      6  C   UNL d   1     -56.075 -99.365 -45.120  0.00  0.00     0.103 C 
ATOM      7  C   UNL d   1     -56.869 -99.200 -45.005  0.00  0.00     0.027 C 
ATOM      8  C   UNL d   1     -55.587 -98.771 -45.414  0.00  0.00     0.027 C 
ENDBRANCH   5   6
ENDBRANCH   3   5
BRANCH   3   9
ATOM      9  O   UNL d   1     -55.679-101.077 -44.242  0.00  0.00    -0.265 OA
BRANCH   9  10
ATOM     10  C   UNL d   1     -55.496-101.482 -44.935  0.00  0.00     0.103 C 
ATOM     11  C   UNL d   1     -55.935-102.130 -45.155  0.00  0.00     0.027 C 
ATOM     12  C   UNL d   1     -54.885-101.236 -45.394  0.00  0.00     0.027 C 
ENDBRANCH   9  10
ENDBRANCH   3   9
ENDBRANCH   1   3
BRANCH   1  13
ATOM     13  N   UNL d   1     -55.277-101.172 -43.067  0.00  0.00    -0.200 NA
ATOM     14  C   UNL d   1     -55.042-101.297 -42.277  0.00  0.00     0.280 C 
ATOM     15  O   UNL d   1     -54.714-100.680 -41.835  0.00  0.00    -0.265 OA
BRANCH  14  16
ATOM     16  C   UNL d   1     -55.145-102.065 -41.940  0.00  0.00     0.062 C 
BRANCH  16  17
ATOM     17  C   UNL d   1     -55.073-102.140 -41.092  0.00  0.00     0.005 A 
ATOM     18  C   UNL d   1     -55.302-101.495 -40.615  0.00  0.00     0.000 A 
ATOM     19  C   UNL d   1     -55.242-101.541 -39.785  0.00  0.00     0.000 A 
ATOM     20  C   UNL d   1     -54.953-102.234 -39.444  0.00  0.00     0.000 A 
ATOM     21  C   UNL d   1     -54.724-102.878 -39.935  0.00  0.00     0.000 A 
ATOM     22  C   UNL d   1     -54.783-102.832 -40.753  0.00  0.00     0.000 A 
ENDBRANCH  16  17
ENDBRANCH  14  16
ENDBRANCH   1  13
TORSDOF 8
ENDMDL
