MODEL 1
REMARK VINA RESULT:      -7.3      0.000      0.000
REMARK  5 active torsions:
REMARK  status: ('A' for Active; 'I' for Inactive)
REMARK    1  A    between atoms: C_9  and  N_2 
REMARK    2  A    between atoms: C_7  and  O_10 
REMARK    3  A    between atoms: O_11  and  C_8 
REMARK    4  A    between atoms: C_12  and  C_9 
REMARK    5  A    between atoms: O_10  and  C_12 
ROOT
ATOM      1  C   UNL d   1     -48.906  13.920  21.991  0.00  0.00     0.110 C 
ENDROOT
BRANCH   1   2
ATOM      2  N   UNL d   1     -49.670  14.121  22.227  0.00  0.00    -0.266 N 
ATOM      3  C   UNL d   1     -50.359  13.722  22.022  0.00  0.00     0.296 A 
ATOM      4  S   UNL d   1     -51.001  14.120  22.386  0.00  0.00    -0.025 SA
ATOM      5  O   UNL d   1     -50.415  13.055  21.546  0.00  0.00    -0.259 OA
ATOM      6  C   UNL d   1     -50.692  14.760  22.811  0.00  0.00     0.050 A 
ATOM      7  C   UNL d   1     -51.062  15.340  23.274  0.00  0.00     0.008 A 
ATOM      8  C   UNL d   1     -49.876  14.760  22.714  0.00  0.00     0.074 A 
ATOM      9  C   UNL d   1     -50.594  15.920  23.638  0.00  0.00     0.001 A 
ATOM     10  C   UNL d   1     -49.779  15.920  23.541  0.00  0.00     0.002 A 
ATOM     11  C   UNL d   1     -49.412  15.340  23.078  0.00  0.00     0.018 A 
ENDBRANCH   1   2
BRANCH   1  12
ATOM     12  C   UNL d   1     -48.463  13.380  22.425  0.00  0.00     0.142 C 
BRANCH  12  13
ATOM     13  O   UNL d   1     -47.647  13.306  22.311  0.00  0.00    -0.302 OA
BRANCH  13  14
ATOM     14  C   UNL d   1     -47.211  12.763  22.754  0.00  0.00     0.122 A 
ATOM     15  C   UNL d   1     -46.389  12.751  22.696  0.00  0.00     0.117 A 
ATOM     16  C   UNL d   1     -45.956  12.211  23.137  0.00  0.00     0.026 A 
ATOM     17  C   UNL d   1     -46.347  11.683  23.637  0.00  0.00     0.002 A 
ATOM     18  C   UNL d   1     -47.174  11.699  23.693  0.00  0.00     0.002 A 
ATOM     19  C   UNL d   1     -47.599  12.243  23.247  0.00  0.00     0.027 A 
BRANCH  15  20
ATOM     20  O   UNL d   1     -45.967  13.269  22.203  0.00  0.00    -0.326 OA
ATOM     21  C   UNL d   1     -45.144  13.207  22.156  0.00  0.00     0.181 C 
ENDBRANCH  15  20
ENDBRANCH  13  14
ENDBRANCH  12  13
ENDBRANCH   1  12
TORSDOF 5
ENDMDL
MODEL 2
REMARK VINA RESULT:      -6.9      1.145      1.681
REMARK  5 active torsions:
REMARK  status: ('A' for Active; 'I' for Inactive)
REMARK    1  A    between atoms: C_9  and  N_2 
REMARK    2  A    between atoms: C_7  and  O_10 
REMARK    3  A    between atoms: O_11  and  C_8 
REMARK    4  A    between atoms: C_12  and  C_9 
REMARK    5  A    between atoms: O_10  and  C_12 
ROOT
ATOM      1  C   UNL d   1     -48.692  12.833  23.506  0.00  0.00     0.110 C 
ENDROOT
BRANCH   1   2
ATOM      2  N   UNL d   1     -49.401  12.906  23.089  0.00  0.00    -0.266 N 
ATOM      3  C   UNL d   1     -49.784  12.305  22.681  0.00  0.00     0.296 A 
ATOM      4  S   UNL d   1     -50.479  12.630  22.344  0.00  0.00    -0.025 SA
ATOM      5  O   UNL d   1     -49.537  11.525  22.613  0.00  0.00    -0.259 OA
ATOM      6  C   UNL d   1     -50.510  13.430  22.553  0.00  0.00     0.050 A 
ATOM      7  C   UNL d   1     -51.064  14.022  22.378  0.00  0.00     0.008 A 
ATOM      8  C   UNL d   1     -49.849  13.600  23.010  0.00  0.00     0.074 A 
ATOM      9  C   UNL d   1     -50.940  14.787  22.673  0.00  0.00     0.001 A 
ATOM     10  C   UNL d   1     -50.279  14.956  23.129  0.00  0.00     0.002 A 
ATOM     11  C   UNL d   1     -49.727  14.364  23.302  0.00  0.00     0.018 A 
ENDBRANCH   1   2
BRANCH   1  12
ATOM     12  C   UNL d   1     -47.971  12.869  23.113  0.00  0.00     0.142 C 
BRANCH  12  13
ATOM     13  O   UNL d   1     -47.266  12.667  23.495  0.00  0.00    -0.302 OA
BRANCH  13  14
ATOM     14  C   UNL d   1     -46.545  12.724  23.096  0.00  0.00     0.122 A 
ATOM     15  C   UNL d   1     -45.971  12.140  23.201  0.00  0.00     0.117 A 
ATOM     16  C   UNL d   1     -45.255  12.197  22.804  0.00  0.00     0.026 A 
ATOM     17  C   UNL d   1     -45.113  12.838  22.303  0.00  0.00     0.002 A 
ATOM     18  C   UNL d   1     -45.693  13.421  22.201  0.00  0.00     0.002 A 
ATOM     19  C   UNL d   1     -46.407  13.357  22.602  0.00  0.00     0.027 A 
BRANCH  15  20
ATOM     20  O   UNL d   1     -46.084  11.485  23.698  0.00  0.00    -0.326 OA
ATOM     21  C   UNL d   1     -45.530  10.872  23.694  0.00  0.00     0.181 C 
ENDBRANCH  15  20
ENDBRANCH  13  14
ENDBRANCH  12  13
ENDBRANCH   1  12
TORSDOF 5
ENDMDL
MODEL 3
REMARK VINA RESULT:      -6.6      1.657      4.535
REMARK  5 active torsions:
REMARK  status: ('A' for Active; 'I' for Inactive)
REMARK    1  A    between atoms: C_9  and  N_2 
REMARK    2  A    between atoms: C_7  and  O_10 
REMARK    3  A    between atoms: O_11  and  C_8 
REMARK    4  A    between atoms: C_12  and  C_9 
REMARK    5  A    between atoms: O_10  and  C_12 
ROOT
ATOM      1  C   UNL d   1     -47.648  13.962  23.259  0.00  0.00     0.110 C 
ENDROOT
BRANCH   1   2
ATOM      2  N   UNL d   1     -46.947  13.567  23.075  0.00  0.00    -0.266 N 
ATOM      3  C   UNL d   1     -46.294  13.894  22.699  0.00  0.00     0.296 A 
ATOM      4  S   UNL d   1     -45.714  13.293  22.629  0.00  0.00    -0.025 SA
ATOM      5  O   UNL d   1     -46.216  14.668  22.437  0.00  0.00    -0.259 OA
ATOM      6  C   UNL d   1     -46.025  12.603  22.966  0.00  0.00     0.050 A 
ATOM      7  C   UNL d   1     -45.703  11.843  23.053  0.00  0.00     0.008 A 
ATOM      8  C   UNL d   1     -46.780  12.771  23.239  0.00  0.00     0.074 A 
ATOM      9  C   UNL d   1     -46.159  11.256  23.421  0.00  0.00     0.001 A 
ATOM     10  C   UNL d   1     -46.915  11.424  23.695  0.00  0.00     0.002 A 
ATOM     11  C   UNL d   1     -47.232  12.183  23.606  0.00  0.00     0.018 A 
ENDBRANCH   1   2
BRANCH   1  12
ATOM     12  C   UNL d   1     -48.257  14.007  22.709  0.00  0.00     0.142 C 
BRANCH  12  13
ATOM     13  O   UNL d   1     -48.932  14.462  22.855  0.00  0.00    -0.302 OA
BRANCH  13  14
ATOM     14  C   UNL d   1     -49.641  14.294  22.465  0.00  0.00     0.122 A 
ATOM     15  C   UNL d   1     -50.360  14.493  22.817  0.00  0.00     0.117 A 
ATOM     16  C   UNL d   1     -51.064  14.327  22.428  0.00  0.00     0.026 A 
ATOM     17  C   UNL d   1     -51.047  13.961  21.689  0.00  0.00     0.002 A 
ATOM     18  C   UNL d   1     -50.322  13.763  21.339  0.00  0.00     0.002 A 
ATOM     19  C   UNL d   1     -49.623  13.933  21.735  0.00  0.00     0.027 A 
BRANCH  15  20
ATOM     20  O   UNL d   1     -50.410  14.861  23.559  0.00  0.00    -0.326 OA
ATOM     21  C   UNL d   1     -50.964  15.463  23.679  0.00  0.00     0.181 C 
ENDBRANCH  15  20
ENDBRANCH  13  14
ENDBRANCH  12  13
ENDBRANCH   1  12
TORSDOF 5
ENDMDL
MODEL 4
REMARK VINA RESULT:      -6.5      1.764      4.361
REMARK  5 active torsions:
REMARK  status: ('A' for Active; 'I' for Inactive)
REMARK    1  A    between atoms: C_9  and  N_2 
REMARK    2  A    between atoms: C_7  and  O_10 
REMARK    3  A    between atoms: O_11  and  C_8 
REMARK    4  A    between atoms: C_12  and  C_9 
REMARK    5  A    between atoms: O_10  and  C_12 
ROOT
ATOM      1  C   UNL d   1     -47.929  12.876  23.677  0.00  0.00     0.110 C 
ENDROOT
BRANCH   1   2
ATOM      2  N   UNL d   1     -47.234  12.536  23.390  0.00  0.00    -0.266 N 
ATOM      3  C   UNL d   1     -47.049  11.735  23.399  0.00  0.00     0.296 A 
ATOM      4  S   UNL d   1     -46.292  11.645  23.052  0.00  0.00    -0.025 SA
ATOM      5  O   UNL d   1     -47.518  11.128  23.693  0.00  0.00    -0.259 OA
ATOM      6  C   UNL d   1     -46.024  12.397  22.835  0.00  0.00     0.050 A 
ATOM      7  C   UNL d   1     -45.320  12.644  22.473  0.00  0.00     0.008 A 
ATOM      8  C   UNL d   1     -46.601  12.943  23.042  0.00  0.00     0.074 A 
ATOM      9  C   UNL d   1     -45.209  13.453  22.323  0.00  0.00     0.001 A 
ATOM     10  C   UNL d   1     -45.786  13.999  22.530  0.00  0.00     0.002 A 
ATOM     11  C   UNL d   1     -46.488  13.749  22.892  0.00  0.00     0.018 A 
ENDBRANCH   1   2
BRANCH   1  12
ATOM     12  C   UNL d   1     -48.602  12.910  23.207  0.00  0.00     0.142 C 
BRANCH  12  13
ATOM     13  O   UNL d   1     -49.268  13.339  23.445  0.00  0.00    -0.302 OA
BRANCH  13  14
ATOM     14  C   UNL d   1     -49.860  13.526  22.900  0.00  0.00     0.122 A 
ATOM     15  C   UNL d   1     -50.278  14.233  22.975  0.00  0.00     0.117 A 
ATOM     16  C   UNL d   1     -50.866  14.419  22.433  0.00  0.00     0.026 A 
ATOM     17  C   UNL d   1     -51.035  13.897  21.816  0.00  0.00     0.002 A 
ATOM     18  C   UNL d   1     -50.612  13.188  21.744  0.00  0.00     0.002 A 
ATOM     19  C   UNL d   1     -50.025  13.010  22.291  0.00  0.00     0.027 A 
BRANCH  15  20
ATOM     20  O   UNL d   1     -50.132  14.778  23.584  0.00  0.00    -0.326 OA
ATOM     21  C   UNL d   1     -50.432  15.546  23.524  0.00  0.00     0.181 C 
ENDBRANCH  15  20
ENDBRANCH  13  14
ENDBRANCH  12  13
ENDBRANCH   1  12
TORSDOF 5
ENDMDL
MODEL 5
REMARK VINA RESULT:      -5.7      8.885     10.277
REMARK  5 active torsions:
REMARK  status: ('A' for Active; 'I' for Inactive)
REMARK    1  A    between atoms: C_9  and  N_2 
REMARK    2  A    between atoms: C_7  and  O_10 
REMARK    3  A    between atoms: O_11  and  C_8 
REMARK    4  A    between atoms: C_12  and  C_9 
REMARK    5  A    between atoms: O_10  and  C_12 
ROOT
ATOM      1  C   UNL d   1     -40.426  14.222  18.408  0.00  0.00     0.110 C 
ENDROOT
BRANCH   1   2
ATOM      2  N   UNL d   1     -40.111  14.462  17.685  0.00  0.00    -0.266 N 
ATOM      3  C   UNL d   1     -40.383  15.086  17.224  0.00  0.00     0.296 A 
ATOM      4  S   UNL d   1     -39.900  15.127  16.541  0.00  0.00    -0.025 SA
ATOM      5  O   UNL d   1     -41.014  15.583  17.396  0.00  0.00    -0.259 OA
ATOM      6  C   UNL d   1     -39.335  14.524  16.595  0.00  0.00     0.050 A 
ATOM      7  C   UNL d   1     -38.720  14.301  16.085  0.00  0.00     0.008 A 
ATOM      8  C   UNL d   1     -39.465  14.116  17.296  0.00  0.00     0.074 A 
ATOM      9  C   UNL d   1     -38.238  13.660  16.296  0.00  0.00     0.001 A 
ATOM     10  C   UNL d   1     -38.368  13.253  16.997  0.00  0.00     0.002 A 
ATOM     11  C   UNL d   1     -38.982  13.477  17.503  0.00  0.00     0.018 A 
ENDBRANCH   1   2
BRANCH   1  12
ATOM     12  C   UNL d   1     -40.303  14.670  19.086  0.00  0.00     0.142 C 
BRANCH  12  13
ATOM     13  O   UNL d   1     -40.310  14.322  19.836  0.00  0.00    -0.302 OA
BRANCH  13  14
ATOM     14  C   UNL d   1     -40.220  14.787  20.513  0.00  0.00     0.122 A 
ATOM     15  C   UNL d   1     -39.667  14.575  21.087  0.00  0.00     0.117 A 
ATOM     16  C   UNL d   1     -39.579  15.037  21.759  0.00  0.00     0.026 A 
ATOM     17  C   UNL d   1     -40.045  15.712  21.857  0.00  0.00     0.002 A 
ATOM     18  C   UNL d   1     -40.600  15.921  21.278  0.00  0.00     0.002 A 
ATOM     19  C   UNL d   1     -40.681  15.452  20.607  0.00  0.00     0.027 A 
BRANCH  15  20
ATOM     20  O   UNL d   1     -39.185  13.903  21.018  0.00  0.00    -0.326 OA
ATOM     21  C   UNL d   1     -38.773  13.627  21.679  0.00  0.00     0.181 C 
ENDBRANCH  15  20
ENDBRANCH  13  14
ENDBRANCH  12  13
ENDBRANCH   1  12
TORSDOF 5
ENDMDL
MODEL 6
REMARK VINA RESULT:      -5.6      1.876      2.698
REMARK  5 active torsions:
REMARK  status: ('A' for Active; 'I' for Inactive)
REMARK    1  A    between atoms: C_9  and  N_2 
REMARK    2  A    between atoms: C_7  and  O_10 
REMARK    3  A    between atoms: O_11  and  C_8 
REMARK    4  A    between atoms: C_12  and  C_9 
REMARK    5  A    between atoms: O_10  and  C_12 
ROOT
ATOM      1  C   UNL d   1     -46.986  12.285  23.677  0.00  0.00     0.110 C 
ENDROOT
BRANCH   1   2
ATOM      2  N   UNL d   1     -47.720  12.424  23.325  0.00  0.00    -0.266 N 
ATOM      3  C   UNL d   1     -48.323  11.873  23.234  0.00  0.00     0.296 A 
ATOM      4  S   UNL d   1     -48.961  12.256  22.849  0.00  0.00    -0.025 SA
ATOM      5  O   UNL d   1     -48.309  11.088  23.475  0.00  0.00    -0.259 OA
ATOM      6  C   UNL d   1     -48.736  13.041  22.710  0.00  0.00     0.050 A 
ATOM      7  C   UNL d   1     -49.139  13.671  22.351  0.00  0.00     0.008 A 
ATOM      8  C   UNL d   1     -47.975  13.143  23.001  0.00  0.00     0.074 A 
ATOM      9  C   UNL d   1     -48.760  14.406  22.292  0.00  0.00     0.001 A 
ATOM     10  C   UNL d   1     -47.999  14.509  22.583  0.00  0.00     0.002 A 
ATOM     11  C   UNL d   1     -47.600  13.878  22.941  0.00  0.00     0.018 A 
ENDBRANCH   1   2
BRANCH   1  12
ATOM     12  C   UNL d   1     -46.448  11.770  23.329  0.00  0.00     0.142 C 
BRANCH  12  13
ATOM     13  O   UNL d   1     -45.641  11.949  23.305  0.00  0.00    -0.302 OA
BRANCH  13  14
ATOM     14  C   UNL d   1     -45.079  11.343  23.301  0.00  0.00     0.122 A 
ATOM     15  C   UNL d   1     -44.367  11.446  22.897  0.00  0.00     0.117 A 
ATOM     16  C   UNL d   1     -43.810  10.843  22.894  0.00  0.00     0.026 A 
ATOM     17  C   UNL d   1     -43.965  10.139  23.294  0.00  0.00     0.002 A 
ATOM     18  C   UNL d   1     -44.682  10.039  23.698  0.00  0.00     0.002 A 
ATOM     19  C   UNL d   1     -45.235  10.648  23.696  0.00  0.00     0.027 A 
BRANCH  15  20
ATOM     20  O   UNL d   1     -44.181  12.143  22.486  0.00  0.00    -0.326 OA
ATOM     21  C   UNL d   1     -43.476  12.187  22.058  0.00  0.00     0.181 C 
ENDBRANCH  15  20
ENDBRANCH  13  14
ENDBRANCH  12  13
ENDBRANCH   1  12
TORSDOF 5
ENDMDL
MODEL 7
REMARK VINA RESULT:      -5.5      8.640     10.008
REMARK  5 active torsions:
REMARK  status: ('A' for Active; 'I' for Inactive)
REMARK    1  A    between atoms: C_9  and  N_2 
REMARK    2  A    between atoms: C_7  and  O_10 
REMARK    3  A    between atoms: O_11  and  C_8 
REMARK    4  A    between atoms: C_12  and  C_9 
REMARK    5  A    between atoms: O_10  and  C_12 
ROOT
ATOM      1  C   UNL d   1     -40.516  14.360  19.598  0.00  0.00     0.110 C 
ENDROOT
BRANCH   1   2
ATOM      2  N   UNL d   1     -40.419  14.875  20.236  0.00  0.00    -0.266 N 
ATOM      3  C   UNL d   1     -40.811  15.589  20.343  0.00  0.00     0.296 A 
ATOM      4  S   UNL d   1     -40.540  15.922  21.063  0.00  0.00    -0.025 SA
ATOM      5  O   UNL d   1     -41.368  15.922  19.840  0.00  0.00    -0.259 OA
ATOM      6  C   UNL d   1     -39.982  15.402  21.386  0.00  0.00     0.050 A 
ATOM      7  C   UNL d   1     -39.536  15.443  22.084  0.00  0.00     0.008 A 
ATOM      8  C   UNL d   1     -39.908  14.761  20.880  0.00  0.00     0.074 A 
ATOM      9  C   UNL d   1     -39.013  14.823  22.261  0.00  0.00     0.001 A 
ATOM     10  C   UNL d   1     -38.939  14.182  21.754  0.00  0.00     0.002 A 
ATOM     11  C   UNL d   1     -39.386  14.145  21.059  0.00  0.00     0.018 A 
ENDBRANCH   1   2
BRANCH   1  12
ATOM     12  C   UNL d   1     -40.149  14.514  18.879  0.00  0.00     0.142 C 
BRANCH  12  13
ATOM     13  O   UNL d   1     -40.016  13.910  18.329  0.00  0.00    -0.302 OA
BRANCH  13  14
ATOM     14  C   UNL d   1     -39.581  14.059  17.643  0.00  0.00     0.122 A 
ATOM     15  C   UNL d   1     -39.062  13.487  17.353  0.00  0.00     0.117 A 
ATOM     16  C   UNL d   1     -38.631  13.635  16.671  0.00  0.00     0.026 A 
ATOM     17  C   UNL d   1     -38.718  14.357  16.280  0.00  0.00     0.002 A 
ATOM     18  C   UNL d   1     -39.240  14.929  16.575  0.00  0.00     0.002 A 
ATOM     19  C   UNL d   1     -39.668  14.772  17.258  0.00  0.00     0.027 A 
BRANCH  15  20
ATOM     20  O   UNL d   1     -38.953  12.752  17.724  0.00  0.00    -0.326 OA
ATOM     21  C   UNL d   1     -38.326  12.267  17.490  0.00  0.00     0.181 C 
ENDBRANCH  15  20
ENDBRANCH  13  14
ENDBRANCH  12  13
ENDBRANCH   1  12
TORSDOF 5
ENDMDL
MODEL 8
REMARK VINA RESULT:      -4.7      9.211     10.404
REMARK  5 active torsions:
REMARK  status: ('A' for Active; 'I' for Inactive)
REMARK    1  A    between atoms: C_9  and  N_2 
REMARK    2  A    between atoms: C_7  and  O_10 
REMARK    3  A    between atoms: O_11  and  C_8 
REMARK    4  A    between atoms: C_12  and  C_9 
REMARK    5  A    between atoms: O_10  and  C_12 
ROOT
ATOM      1  C   UNL d   1     -39.564  13.958  19.745  0.00  0.00     0.110 C 
ENDROOT
BRANCH   1   2
ATOM      2  N   UNL d   1     -39.203  14.202  20.446  0.00  0.00    -0.266 N 
ATOM      3  C   UNL d   1     -38.514  13.890  20.768  0.00  0.00     0.296 A 
ATOM      4  S   UNL d   1     -38.356  14.304  21.479  0.00  0.00    -0.025 SA
ATOM      5  O   UNL d   1     -38.059  13.283  20.454  0.00  0.00    -0.259 OA
ATOM      6  C   UNL d   1     -38.955  14.866  21.581  0.00  0.00     0.050 A 
ATOM      7  C   UNL d   1     -39.084  15.426  22.179  0.00  0.00     0.008 A 
ATOM      8  C   UNL d   1     -39.474  14.803  20.949  0.00  0.00     0.074 A 
ATOM      9  C   UNL d   1     -39.747  15.922  22.127  0.00  0.00     0.001 A 
ATOM     10  C   UNL d   1     -40.266  15.859  21.494  0.00  0.00     0.002 A 
ATOM     11  C   UNL d   1     -40.135  15.299  20.899  0.00  0.00     0.018 A 
ENDBRANCH   1   2
BRANCH   1  12
ATOM     12  C   UNL d   1     -39.277  14.213  19.018  0.00  0.00     0.142 C 
BRANCH  12  13
ATOM     13  O   UNL d   1     -39.740  14.165  18.335  0.00  0.00    -0.302 OA
BRANCH  13  14
ATOM     14  C   UNL d   1     -39.473  14.493  17.625  0.00  0.00     0.122 A 
ATOM     15  C   UNL d   1     -39.974  14.974  17.181  0.00  0.00     0.117 A 
ATOM     16  C   UNL d   1     -39.707  15.299  16.476  0.00  0.00     0.026 A 
ATOM     17  C   UNL d   1     -38.940  15.143  16.216  0.00  0.00     0.002 A 
ATOM     18  C   UNL d   1     -38.439  14.659  16.666  0.00  0.00     0.002 A 
ATOM     19  C   UNL d   1     -38.714  14.337  17.371  0.00  0.00     0.027 A 
BRANCH  15  20
ATOM     20  O   UNL d   1     -40.751  15.150  17.415  0.00  0.00    -0.326 OA
ATOM     21  C   UNL d   1     -41.210  15.659  16.953  0.00  0.00     0.181 C 
ENDBRANCH  15  20
ENDBRANCH  13  14
ENDBRANCH  12  13
ENDBRANCH   1  12
TORSDOF 5
ENDMDL
MODEL 9
REMARK VINA RESULT:      -4.7      9.718     10.340
REMARK  5 active torsions:
REMARK  status: ('A' for Active; 'I' for Inactive)
REMARK    1  A    between atoms: C_9  and  N_2 
REMARK    2  A    between atoms: C_7  and  O_10 
REMARK    3  A    between atoms: O_11  and  C_8 
REMARK    4  A    between atoms: C_12  and  C_9 
REMARK    5  A    between atoms: O_10  and  C_12 
ROOT
ATOM      1  C   UNL d   1     -38.522  15.048  18.949  0.00  0.00     0.110 C 
ENDROOT
BRANCH   1   2
ATOM      2  N   UNL d   1     -38.944  14.834  18.273  0.00  0.00    -0.266 N 
ATOM      3  C   UNL d   1     -38.712  14.275  17.717  0.00  0.00     0.296 A 
ATOM      4  S   UNL d   1     -39.308  14.240  17.129  0.00  0.00    -0.025 SA
ATOM      5  O   UNL d   1     -38.023  13.828  17.729  0.00  0.00    -0.259 OA
ATOM      6  C   UNL d   1     -39.899  14.782  17.336  0.00  0.00     0.050 A 
ATOM      7  C   UNL d   1     -40.613  14.983  16.965  0.00  0.00     0.008 A 
ATOM      8  C   UNL d   1     -39.676  15.145  18.038  0.00  0.00     0.074 A 
ATOM      9  C   UNL d   1     -41.097  15.558  17.315  0.00  0.00     0.001 A 
ATOM     10  C   UNL d   1     -40.874  15.922  18.016  0.00  0.00     0.002 A 
ATOM     11  C   UNL d   1     -40.161  15.719  18.384  0.00  0.00     0.018 A 
ENDBRANCH   1   2
BRANCH   1  12
ATOM     12  C   UNL d   1     -38.579  14.599  19.636  0.00  0.00     0.142 C 
BRANCH  12  13
ATOM     13  O   UNL d   1     -38.321  14.897  20.363  0.00  0.00    -0.302 OA
BRANCH  13  14
ATOM     14  C   UNL d   1     -38.438  14.464  21.057  0.00  0.00     0.122 A 
ATOM     15  C   UNL d   1     -38.766  14.830  21.719  0.00  0.00     0.117 A 
ATOM     16  C   UNL d   1     -38.883  14.399  22.408  0.00  0.00     0.026 A 
ATOM     17  C   UNL d   1     -38.671  13.602  22.433  0.00  0.00     0.002 A 
ATOM     18  C   UNL d   1     -38.342  13.238  21.765  0.00  0.00     0.002 A 
ATOM     19  C   UNL d   1     -38.229  13.677  21.080  0.00  0.00     0.027 A 
BRANCH  15  20
ATOM     20  O   UNL d   1     -38.989  15.630  21.725  0.00  0.00    -0.326 OA
ATOM     21  C   UNL d   1     -39.443  15.922  22.350  0.00  0.00     0.181 C 
ENDBRANCH  15  20
ENDBRANCH  13  14
ENDBRANCH  12  13
ENDBRANCH   1  12
TORSDOF 5
ENDMDL
