MODEL 1
REMARK VINA RESULT:      59.1      0.000      0.000
REMARK  5 active torsions:
REMARK  status: ('A' for Active; 'I' for Inactive)
REMARK    1  A    between atoms: C_3  and  C_1 
REMARK       I    between atoms: N_2  and  C_4 
REMARK    2  A    between atoms: C_5  and  N_2 
REMARK       I    between atoms: N_6  and  C_3 
REMARK    3  A    between atoms: C_4  and  C_7 
REMARK    4  A    between atoms: C_7  and  N_6 
REMARK    5  A    between atoms: C_21  and  C_7 
ROOT
ATOM      1  C   UNL d   1     -51.585  24.423  33.832  0.00  0.00     0.263 C 
ATOM      2  N   UNL d   1     -51.301  25.148  34.082  0.00  0.00    -0.206 NA
ATOM      3  O   UNL d   1     -51.131  23.974  33.306  0.00  0.00    -0.270 OA
ENDROOT
BRANCH   2   4
ATOM      4  C   UNL d   1     -50.582  25.428  33.817  0.00  0.00     0.142 C 
BRANCH   4   5
ATOM      5  C   UNL d   1     -50.444  26.247  33.748  0.00  0.00     0.299 C 
ATOM      6  N   UNL d   1     -51.065  26.764  33.676  0.00  0.00    -0.181 NA
ATOM      7  O   UNL d   1     -49.666  26.517  33.754  0.00  0.00    -0.263 OA
BRANCH   6   8
ATOM      8  C   UNL d   1     -50.935  27.576  33.607  0.00  0.00     0.197 A 
ATOM      9  N   UNL d   1     -51.554  28.094  33.380  0.00  0.00    -0.219 NA
ATOM     10  C   UNL d   1     -51.238  28.859  33.365  0.00  0.00     0.108 A 
ATOM     11  C   UNL d   1     -50.475  28.838  33.567  0.00  0.00     0.059 A 
ATOM     12  S   UNL d   1     -50.245  28.027  33.730  0.00  0.00    -0.046 SA
ENDBRANCH   6   8
ENDBRANCH   4   5
BRANCH   4  13
ATOM     13  C   UNL d   1     -49.994  24.894  33.620  0.00  0.00     0.022 C 
ATOM     14  C   UNL d   1     -50.140  24.083  33.687  0.00  0.00     0.002 C 
ATOM     15  C   UNL d   1     -49.288  25.186  33.367  0.00  0.00     0.002 C 
ENDBRANCH   4  13
ENDBRANCH   2   4
BRANCH   1  16
ATOM     16  C   UNL d   1     -52.296  24.147  34.094  0.00  0.00     0.111 A 
ATOM     17  C   UNL d   1     -52.383  23.791  33.480  0.00  0.00     0.026 A 
ATOM     18  C   UNL d   1     -53.013  23.374  33.366  0.00  0.00     0.045 A 
ATOM     19  C   UNL d   1     -53.537  23.451  34.120  0.00  0.00    -0.022 A 
ATOM     20  C   UNL d   1     -53.713  23.240  33.898  0.00  0.00    -0.022 A 
ATOM     21  C   UNL d   1     -53.434  23.867  34.838  0.00  0.00    -0.007 A 
ATOM     22  C   UNL d   1     -52.692  24.283  34.820  0.00  0.00    -0.014 A 
ATOM     23  C   UNL d   1     -54.044  23.758  35.317  0.00  0.00    -0.001 A 
ATOM     24  C   UNL d   1     -53.621  23.616  34.547  0.00  0.00    -0.007 A 
ATOM     25  C   UNL d   1     -52.844  24.062  34.552  0.00  0.00    -0.014 A 
ENDBRANCH   1  16
TORSDOF 5
ENDMDL
MODEL 2
REMARK VINA RESULT:      60.1      1.620      2.528
REMARK  5 active torsions:
REMARK  status: ('A' for Active; 'I' for Inactive)
REMARK    1  A    between atoms: C_3  and  C_1 
REMARK       I    between atoms: N_2  and  C_4 
REMARK    2  A    between atoms: C_5  and  N_2 
REMARK       I    between atoms: N_6  and  C_3 
REMARK    3  A    between atoms: C_4  and  C_7 
REMARK    4  A    between atoms: C_7  and  N_6 
REMARK    5  A    between atoms: C_21  and  C_7 
ROOT
ATOM      1  C   UNL d   1     -51.349  25.990  33.878  0.00  0.00     0.263 C 
ATOM      2  N   UNL d   1     -50.605  26.317  33.791  0.00  0.00    -0.206 NA
ATOM      3  O   UNL d   1     -51.968  26.470  34.151  0.00  0.00    -0.270 OA
ENDROOT
BRANCH   2   4
ATOM      4  C   UNL d   1     -50.470  27.102  33.969  0.00  0.00     0.142 C 
BRANCH   4   5
ATOM      5  C   UNL d   1     -49.695  27.377  34.111  0.00  0.00     0.299 C 
ATOM      6  N   UNL d   1     -49.550  27.910  34.705  0.00  0.00    -0.181 NA
ATOM      7  O   UNL d   1     -49.084  27.096  33.635  0.00  0.00    -0.263 OA
BRANCH   6   8
ATOM      8  C   UNL d   1     -48.787  28.185  34.850  0.00  0.00     0.197 A 
ATOM      9  N   UNL d   1     -48.658  28.886  35.293  0.00  0.00    -0.219 NA
ATOM     10  C   UNL d   1     -47.839  29.001  35.333  0.00  0.00     0.108 A 
ATOM     11  C   UNL d   1     -47.467  28.421  34.947  0.00  0.00     0.059 A 
ATOM     12  S   UNL d   1     -48.046  27.878  34.623  0.00  0.00    -0.046 SA
ENDBRANCH   6   8
ENDBRANCH   4   5
BRANCH   4  13
ATOM     13  C   UNL d   1     -51.104  27.617  34.006  0.00  0.00     0.022 C 
ATOM     14  C   UNL d   1     -51.416  27.930  33.308  0.00  0.00     0.002 C 
ATOM     15  C   UNL d   1     -51.400  27.799  34.732  0.00  0.00     0.002 C 
ENDBRANCH   4  13
ENDBRANCH   2   4
BRANCH   1  16
ATOM     16  C   UNL d   1     -51.483  25.215  33.703  0.00  0.00     0.111 A 
ATOM     17  C   UNL d   1     -50.779  25.109  33.639  0.00  0.00     0.026 A 
ATOM     18  C   UNL d   1     -50.512  24.416  33.462  0.00  0.00     0.045 A 
ATOM     19  C   UNL d   1     -51.236  23.854  33.369  0.00  0.00    -0.022 A 
ATOM     20  C   UNL d   1     -50.949  23.657  33.307  0.00  0.00    -0.022 A 
ATOM     21  C   UNL d   1     -52.060  23.979  33.444  0.00  0.00    -0.007 A 
ATOM     22  C   UNL d   1     -52.205  24.794  33.643  0.00  0.00    -0.014 A 
ATOM     23  C   UNL d   1     -52.459  23.319  33.310  0.00  0.00    -0.001 A 
ATOM     24  C   UNL d   1     -51.694  23.770  33.374  0.00  0.00    -0.007 A 
ATOM     25  C   UNL d   1     -51.872  24.622  33.585  0.00  0.00    -0.014 A 
ENDBRANCH   1  16
TORSDOF 5
ENDMDL
MODEL 3
REMARK VINA RESULT:      60.2      4.061      7.704
REMARK  5 active torsions:
REMARK  status: ('A' for Active; 'I' for Inactive)
REMARK    1  A    between atoms: C_3  and  C_1 
REMARK       I    between atoms: N_2  and  C_4 
REMARK    2  A    between atoms: C_5  and  N_2 
REMARK       I    between atoms: N_6  and  C_3 
REMARK    3  A    between atoms: C_4  and  C_7 
REMARK    4  A    between atoms: C_7  and  N_6 
REMARK    5  A    between atoms: C_21  and  C_7 
ROOT
ATOM      1  C   UNL d   1     -47.666  31.176  35.056  0.00  0.00     0.263 C 
ATOM      2  N   UNL d   1     -47.752  30.416  34.766  0.00  0.00    -0.206 NA
ATOM      3  O   UNL d   1     -47.509  31.282  35.862  0.00  0.00    -0.270 OA
ENDROOT
BRANCH   2   4
ATOM      4  C   UNL d   1     -47.685  29.771  35.261  0.00  0.00     0.142 C 
BRANCH   4   5
ATOM      5  C   UNL d   1     -48.205  29.123  35.188  0.00  0.00     0.299 C 
ATOM      6  N   UNL d   1     -48.399  28.831  34.457  0.00  0.00    -0.181 NA
ATOM      7  O   UNL d   1     -48.517  28.789  35.874  0.00  0.00    -0.263 OA
BRANCH   6   8
ATOM      8  C   UNL d   1     -48.913  28.191  34.378  0.00  0.00     0.197 A 
ATOM      9  N   UNL d   1     -49.476  28.164  33.757  0.00  0.00    -0.219 NA
ATOM     10  C   UNL d   1     -49.896  27.456  33.841  0.00  0.00     0.108 A 
ATOM     11  C   UNL d   1     -49.626  27.056  34.466  0.00  0.00     0.059 A 
ATOM     12  S   UNL d   1     -48.992  27.499  34.836  0.00  0.00    -0.046 SA
ENDBRANCH   6   8
ENDBRANCH   4   5
BRANCH   4  13
ATOM     13  C   UNL d   1     -47.099  29.766  35.832  0.00  0.00     0.022 C 
ATOM     14  C   UNL d   1     -47.291  29.945  36.616  0.00  0.00     0.002 C 
ATOM     15  C   UNL d   1     -46.349  29.583  35.602  0.00  0.00     0.002 C 
ENDBRANCH   4  13
ENDBRANCH   2   4
BRANCH   1  16
ATOM     16  C   UNL d   1     -47.733  31.813  34.567  0.00  0.00     0.111 A 
ATOM     17  C   UNL d   1     -47.023  31.892  34.572  0.00  0.00     0.026 A 
ATOM     18  C   UNL d   1     -46.698  32.456  34.174  0.00  0.00     0.045 A 
ATOM     19  C   UNL d   1     -47.371  32.926  33.757  0.00  0.00    -0.022 A 
ATOM     20  C   UNL d   1     -47.069  33.084  33.665  0.00  0.00    -0.022 A 
ATOM     21  C   UNL d   1     -48.203  32.834  33.751  0.00  0.00    -0.007 A 
ATOM     22  C   UNL d   1     -48.417  32.168  34.236  0.00  0.00    -0.014 A 
ATOM     23  C   UNL d   1     -48.544  33.380  33.306  0.00  0.00    -0.001 A 
ATOM     24  C   UNL d   1     -47.821  33.001  33.659  0.00  0.00    -0.007 A 
ATOM     25  C   UNL d   1     -48.070  32.305  34.164  0.00  0.00    -0.014 A 
ENDBRANCH   1  16
TORSDOF 5
ENDMDL
MODEL 4
REMARK VINA RESULT:      60.3      1.912      4.270
REMARK  5 active torsions:
REMARK  status: ('A' for Active; 'I' for Inactive)
REMARK    1  A    between atoms: C_3  and  C_1 
REMARK       I    between atoms: N_2  and  C_4 
REMARK    2  A    between atoms: C_5  and  N_2 
REMARK       I    between atoms: N_6  and  C_3 
REMARK    3  A    between atoms: C_4  and  C_7 
REMARK    4  A    between atoms: C_7  and  N_6 
REMARK    5  A    between atoms: C_21  and  C_7 
ROOT
ATOM      1  C   UNL d   1     -51.956  24.865  33.707  0.00  0.00     0.263 C 
ATOM      2  N   UNL d   1     -52.594  24.954  34.212  0.00  0.00    -0.206 NA
ATOM      3  O   UNL d   1     -51.848  24.139  33.322  0.00  0.00    -0.270 OA
ENDROOT
BRANCH   2   4
ATOM      4  C   UNL d   1     -53.117  24.340  34.335  0.00  0.00     0.142 C 
BRANCH   4   5
ATOM      5  C   UNL d   1     -53.211  24.010  35.095  0.00  0.00     0.299 C 
ATOM      6  N   UNL d   1     -53.337  24.487  35.739  0.00  0.00    -0.181 NA
ATOM      7  O   UNL d   1     -53.174  23.191  35.176  0.00  0.00    -0.263 OA
BRANCH   6   8
ATOM      8  C   UNL d   1     -53.432  24.166  36.493  0.00  0.00     0.197 A 
ATOM      9  N   UNL d   1     -54.194  23.988  36.793  0.00  0.00    -0.219 NA
ATOM     10  C   UNL d   1     -54.090  23.678  37.553  0.00  0.00     0.108 A 
ATOM     11  C   UNL d   1     -53.320  23.657  37.731  0.00  0.00     0.059 A 
ATOM     12  S   UNL d   1     -52.867  23.964  37.071  0.00  0.00    -0.046 SA
ENDBRANCH   6   8
ENDBRANCH   4   5
BRANCH   4  13
ATOM     13  C   UNL d   1     -53.548  24.050  33.704  0.00  0.00     0.022 C 
ATOM     14  C   UNL d   1     -53.424  23.276  33.445  0.00  0.00     0.002 C 
ATOM     15  C   UNL d   1     -54.084  24.541  33.357  0.00  0.00     0.002 C 
ENDBRANCH   4  13
ENDBRANCH   2   4
BRANCH   1  16
ATOM     16  C   UNL d   1     -51.439  25.471  33.585  0.00  0.00     0.111 A 
ATOM     17  C   UNL d   1     -50.900  25.003  33.541  0.00  0.00     0.026 A 
ATOM     18  C   UNL d   1     -50.189  25.251  33.417  0.00  0.00     0.045 A 
ATOM     19  C   UNL d   1     -50.221  26.169  33.353  0.00  0.00    -0.022 A 
ATOM     20  C   UNL d   1     -49.882  26.079  33.309  0.00  0.00    -0.022 A 
ATOM     21  C   UNL d   1     -50.852  26.717  33.405  0.00  0.00    -0.007 A 
ATOM     22  C   UNL d   1     -51.579  26.297  33.544  0.00  0.00    -0.014 A 
ATOM     23  C   UNL d   1     -50.596  27.450  33.312  0.00  0.00    -0.001 A 
ATOM     24  C   UNL d   1     -50.452  26.573  33.356  0.00  0.00    -0.007 A 
ATOM     25  C   UNL d   1     -51.230  26.154  33.503  0.00  0.00    -0.014 A 
ENDBRANCH   1  16
TORSDOF 5
ENDMDL
