MODEL 1
REMARK VINA RESULT:      -8.8      0.000      0.000
REMARK  4 active torsions:
REMARK  status: ('A' for Active; 'I' for Inactive)
REMARK    1  A    between atoms: C_7  and  C_1 
REMARK    2  A    between atoms: N_5  and  C_3 
REMARK       I    between atoms: C_8  and  N_5 
REMARK    3  A    between atoms: C_9  and  C_8 
REMARK    4  A    between atoms: O_21  and  C_15 
ROOT
ATOM      1  C   UNL d   1      52.877  33.921  53.559  0.00  0.00     0.137 A 
ATOM      2  S   UNL d   1      52.091  34.140  53.673  0.00  0.00    -0.026 SA
ATOM      3  C   UNL d   1      51.788  34.413  52.962  0.00  0.00     0.219 A 
ATOM      4  N   UNL d   1      53.065  34.063  52.757  0.00  0.00    -0.139 NA
ATOM      5  N   UNL d   1      52.393  34.367  52.389  0.00  0.00    -0.121 NA
ENDROOT
BRANCH   3   6
ATOM      6  N   UNL d   1      51.023  34.687  52.831  0.00  0.00    -0.181 NA
ATOM      7  C   UNL d   1      50.301  34.283  52.773  0.00  0.00     0.281 C 
ATOM      8  O   UNL d   1      50.281  33.471  52.851  0.00  0.00    -0.265 OA
BRANCH   7   9
ATOM      9  C   UNL d   1      49.608  34.712  52.636  0.00  0.00     0.060 A 
ATOM     10  C   UNL d   1      49.300  35.181  53.242  0.00  0.00     0.031 A 
ATOM     11  C   UNL d   1      48.615  35.608  53.115  0.00  0.00     0.119 A 
ATOM     12  O   UNL d   1      48.183  36.112  53.599  0.00  0.00    -0.300 OA
ATOM     13  C   UNL d   1      48.233  35.572  52.386  0.00  0.00     0.119 A 
ATOM     14  C   UNL d   1      47.530  36.391  53.171  0.00  0.00     0.304 A 
ATOM     15  O   UNL d   1      47.564  36.054  52.417  0.00  0.00    -0.300 OA
ATOM     16  C   UNL d   1      48.542  35.103  51.780  0.00  0.00     0.026 A 
ATOM     17  C   UNL d   1      49.229  34.674  51.906  0.00  0.00     0.007 A 
ENDBRANCH   7   9
ENDBRANCH   3   6
BRANCH   1  18
ATOM     18  C   UNL d   1      53.392  33.617  54.131  0.00  0.00     0.048 A 
ATOM     19  C   UNL d   1      53.579  32.806  54.147  0.00  0.00     0.096 A 
ATOM     20  C   UNL d   1      54.085  32.507  54.709  0.00  0.00     0.024 A 
ATOM     21  C   UNL d   1      54.417  33.016  55.272  0.00  0.00     0.002 A 
ATOM     22  C   UNL d   1      54.241  33.813  55.268  0.00  0.00     0.000 A 
ATOM     23  C   UNL d   1      53.725  34.112  54.692  0.00  0.00     0.004 A 
BRANCH  19  24
ATOM     24  O   UNL d   1      53.246  32.311  53.586  0.00  0.00    -0.328 OA
ATOM     25  C   UNL d   1      53.440  31.509  53.580  0.00  0.00     0.181 C 
ENDBRANCH  19  24
ENDBRANCH   1  18
TORSDOF 4
ENDMDL
MODEL 2
REMARK VINA RESULT:      -7.9      1.367      5.540
REMARK  4 active torsions:
REMARK  status: ('A' for Active; 'I' for Inactive)
REMARK    1  A    between atoms: C_7  and  C_1 
REMARK    2  A    between atoms: N_5  and  C_3 
REMARK       I    between atoms: C_8  and  N_5 
REMARK    3  A    between atoms: C_9  and  C_8 
REMARK    4  A    between atoms: O_21  and  C_15 
ROOT
ATOM      1  C   UNL d   1      50.023  34.565  52.530  0.00  0.00     0.137 A 
ATOM      2  S   UNL d   1      50.365  33.817  52.560  0.00  0.00    -0.026 SA
ATOM      3  C   UNL d   1      51.051  33.859  53.007  0.00  0.00     0.219 A 
ATOM      4  N   UNL d   1      50.509  35.083  52.971  0.00  0.00    -0.139 NA
ATOM      5  N   UNL d   1      51.144  34.647  53.265  0.00  0.00    -0.121 NA
ENDROOT
BRANCH   3   6
ATOM      6  N   UNL d   1      51.562  33.235  53.176  0.00  0.00    -0.181 NA
ATOM      7  C   UNL d   1      52.265  32.991  52.811  0.00  0.00     0.281 C 
ATOM      8  O   UNL d   1      52.553  33.401  52.167  0.00  0.00    -0.265 OA
BRANCH   7   9
ATOM      9  C   UNL d   1      52.666  32.333  53.108  0.00  0.00     0.060 A 
ATOM     10  C   UNL d   1      52.414  31.577  52.890  0.00  0.00     0.031 A 
ATOM     11  C   UNL d   1      52.806  30.921  53.179  0.00  0.00     0.119 A 
ATOM     12  O   UNL d   1      52.689  30.116  53.065  0.00  0.00    -0.300 OA
ATOM     13  C   UNL d   1      53.450  31.012  53.684  0.00  0.00     0.119 A 
ATOM     14  C   UNL d   1      53.261  29.703  53.502  0.00  0.00     0.304 A 
ATOM     15  O   UNL d   1      53.733  30.263  53.886  0.00  0.00    -0.300 OA
ATOM     16  C   UNL d   1      53.702  31.768  53.902  0.00  0.00     0.026 A 
ATOM     17  C   UNL d   1      53.310  32.427  53.613  0.00  0.00     0.007 A 
ENDBRANCH   7   9
ENDBRANCH   3   6
BRANCH   1  18
ATOM     18  C   UNL d   1      49.325  34.773  52.138  0.00  0.00     0.048 A 
ATOM     19  C   UNL d   1      48.742  35.229  52.517  0.00  0.00     0.096 A 
ATOM     20  C   UNL d   1      48.056  35.433  52.131  0.00  0.00     0.024 A 
ATOM     21  C   UNL d   1      47.937  35.182  51.350  0.00  0.00     0.002 A 
ATOM     22  C   UNL d   1      48.501  34.734  50.966  0.00  0.00     0.000 A 
ATOM     23  C   UNL d   1      49.198  34.530  51.366  0.00  0.00     0.004 A 
BRANCH  19  24
ATOM     24  O   UNL d   1      48.869  35.471  53.289  0.00  0.00    -0.328 OA
ATOM     25  C   UNL d   1      48.303  35.936  53.671  0.00  0.00     0.181 C 
ENDBRANCH  19  24
ENDBRANCH   1  18
TORSDOF 4
ENDMDL
MODEL 3
REMARK VINA RESULT:      -7.0      1.193      5.373
REMARK  4 active torsions:
REMARK  status: ('A' for Active; 'I' for Inactive)
REMARK    1  A    between atoms: C_7  and  C_1 
REMARK    2  A    between atoms: N_5  and  C_3 
REMARK       I    between atoms: C_8  and  N_5 
REMARK    3  A    between atoms: C_9  and  C_8 
REMARK    4  A    between atoms: O_21  and  C_15 
ROOT
ATOM      1  C   UNL d   1      49.585  34.785  52.461  0.00  0.00     0.137 A 
ATOM      2  S   UNL d   1      50.144  34.614  53.040  0.00  0.00    -0.026 SA
ATOM      3  C   UNL d   1      50.757  34.190  52.697  0.00  0.00     0.219 A 
ATOM      4  N   UNL d   1      49.858  34.459  51.741  0.00  0.00    -0.139 NA
ATOM      5  N   UNL d   1      50.581  34.092  51.887  0.00  0.00    -0.121 NA
ENDROOT
BRANCH   3   6
ATOM      6  N   UNL d   1      51.429  33.909  53.080  0.00  0.00    -0.181 NA
ATOM      7  C   UNL d   1      52.221  34.150  53.042  0.00  0.00     0.281 C 
ATOM      8  O   UNL d   1      52.435  34.771  52.558  0.00  0.00    -0.265 OA
BRANCH   7   9
ATOM      9  C   UNL d   1      52.786  33.756  53.498  0.00  0.00     0.060 A 
ATOM     10  C   UNL d   1      53.140  34.153  54.130  0.00  0.00     0.031 A 
ATOM     11  C   UNL d   1      53.700  33.771  54.586  0.00  0.00     0.119 A 
ATOM     12  O   UNL d   1      54.139  34.014  55.236  0.00  0.00    -0.300 OA
ATOM     13  C   UNL d   1      53.911  32.993  54.417  0.00  0.00     0.119 A 
ATOM     14  C   UNL d   1      54.626  33.385  55.473  0.00  0.00     0.304 A 
ATOM     15  O   UNL d   1      54.482  32.751  54.962  0.00  0.00    -0.300 OA
ATOM     16  C   UNL d   1      53.557  32.596  53.785  0.00  0.00     0.026 A 
ATOM     17  C   UNL d   1      52.995  32.978  53.326  0.00  0.00     0.007 A 
ENDBRANCH   7   9
ENDBRANCH   3   6
BRANCH   1  18
ATOM     18  C   UNL d   1      48.879  35.204  52.566  0.00  0.00     0.048 A 
ATOM     19  C   UNL d   1      48.302  35.223  51.967  0.00  0.00     0.096 A 
ATOM     20  C   UNL d   1      47.608  35.635  52.070  0.00  0.00     0.024 A 
ATOM     21  C   UNL d   1      47.475  36.039  52.782  0.00  0.00     0.002 A 
ATOM     22  C   UNL d   1      48.033  36.028  53.377  0.00  0.00     0.000 A 
ATOM     23  C   UNL d   1      48.739  35.606  53.265  0.00  0.00     0.004 A 
BRANCH  19  24
ATOM     24  O   UNL d   1      48.443  34.821  51.267  0.00  0.00    -0.328 OA
ATOM     25  C   UNL d   1      47.871  34.822  50.672  0.00  0.00     0.181 C 
ENDBRANCH  19  24
ENDBRANCH   1  18
TORSDOF 4
ENDMDL
MODEL 4
REMARK VINA RESULT:      -6.9      1.853      5.900
REMARK  4 active torsions:
REMARK  status: ('A' for Active; 'I' for Inactive)
REMARK    1  A    between atoms: C_7  and  C_1 
REMARK    2  A    between atoms: N_5  and  C_3 
REMARK       I    between atoms: C_8  and  N_5 
REMARK    3  A    between atoms: C_9  and  C_8 
REMARK    4  A    between atoms: O_21  and  C_15 
ROOT
ATOM      1  C   UNL d   1      47.639  35.965  52.836  0.00  0.00     0.137 A 
ATOM      2  S   UNL d   1      48.164  35.332  52.806  0.00  0.00    -0.026 SA
ATOM      3  C   UNL d   1      48.875  35.563  53.144  0.00  0.00     0.219 A 
ATOM      4  N   UNL d   1      48.034  36.604  53.202  0.00  0.00    -0.139 NA
ATOM      5  N   UNL d   1      48.797  36.356  53.392  0.00  0.00    -0.121 NA
ENDROOT
BRANCH   3   6
ATOM      6  N   UNL d   1      49.550  35.098  53.227  0.00  0.00    -0.181 NA
ATOM      7  C   UNL d   1      49.983  34.661  52.672  0.00  0.00     0.281 C 
ATOM      8  O   UNL d   1      49.750  34.650  51.890  0.00  0.00    -0.265 OA
BRANCH   7   9
ATOM      9  C   UNL d   1      50.649  34.240  52.920  0.00  0.00     0.060 A 
ATOM     10  C   UNL d   1      51.383  34.619  52.931  0.00  0.00     0.031 A 
ATOM     11  C   UNL d   1      52.046  34.210  53.175  0.00  0.00     0.119 A 
ATOM     12  O   UNL d   1      52.835  34.430  53.245  0.00  0.00    -0.300 OA
ATOM     13  C   UNL d   1      51.985  33.422  53.410  0.00  0.00     0.119 A 
ATOM     14  C   UNL d   1      53.266  33.779  53.524  0.00  0.00     0.304 A 
ATOM     15  O   UNL d   1      52.735  33.153  53.626  0.00  0.00    -0.300 OA
ATOM     16  C   UNL d   1      51.251  33.043  53.399  0.00  0.00     0.026 A 
ATOM     17  C   UNL d   1      50.584  33.453  53.154  0.00  0.00     0.007 A 
ENDBRANCH   7   9
ENDBRANCH   3   6
BRANCH   1  18
ATOM     18  C   UNL d   1      46.861  35.973  52.557  0.00  0.00     0.048 A 
ATOM     19  C   UNL d   1      46.219  35.907  53.082  0.00  0.00     0.096 A 
ATOM     20  C   UNL d   1      45.453  35.915  52.807  0.00  0.00     0.024 A 
ATOM     21  C   UNL d   1      45.312  35.990  51.994  0.00  0.00     0.002 A 
ATOM     22  C   UNL d   1      45.933  36.055  51.468  0.00  0.00     0.000 A 
ATOM     23  C   UNL d   1      46.711  36.046  51.755  0.00  0.00     0.004 A 
BRANCH  19  24
ATOM     24  O   UNL d   1      46.368  35.834  53.884  0.00  0.00    -0.328 OA
ATOM     25  C   UNL d   1      45.740  35.756  54.413  0.00  0.00     0.181 C 
ENDBRANCH  19  24
ENDBRANCH   1  18
TORSDOF 4
ENDMDL
