MODEL 1
REMARK VINA RESULT:      80.4      0.000      0.000
REMARK  7 active torsions:
REMARK  status: ('A' for Active; 'I' for Inactive)
REMARK    1  A    between atoms: C_21  and  C_3 
REMARK    2  A    between atoms: S_17  and  C_5 
REMARK    3  A    between atoms: C_11  and  C_16 
REMARK       I    between atoms: N_14  and  C_11 
REMARK    4  A    between atoms: C_19  and  N_14 
REMARK    5  A    between atoms: C_16  and  C_20 
REMARK    6  A    between atoms: C_20  and  S_17 
REMARK    7  A    between atoms: O_27  and  C_22 
ROOT
ATOM      1  C   UNL d   1      59.088  49.601  51.645  0.00  0.00     0.092 A 
ATOM      2  C   UNL d   1      57.799  49.613  51.023  0.00  0.00     0.057 A 
ATOM      3  C   UNL d   1      58.262  49.619  51.703  0.00  0.00     0.016 A 
ATOM      4  N   UNL d   1      58.978  49.572  50.220  0.00  0.00    -0.239 NA
ATOM      5  C   UNL d   1      59.446  49.578  50.904  0.00  0.00     0.120 A 
ATOM      6  C   UNL d   1      58.157  49.590  50.281  0.00  0.00     0.081 A 
ATOM      7  C   UNL d   1      56.981  49.631  51.084  0.00  0.00     0.193 A 
ATOM      8  C   UNL d   1      59.552  49.607  52.331  0.00  0.00     0.103 C 
ATOM      9  N   UNL d   1      60.015  49.613  53.025  0.00  0.00    -0.191 NA
ATOM     10  C   UNL d   1      56.873  49.602  49.661  0.00  0.00     0.042 A 
ATOM     11  C   UNL d   1      56.515  49.625  50.403  0.00  0.00     0.019 A 
ATOM     12  C   UNL d   1      57.696  49.584  49.601  0.00  0.00    -0.003 A 
ATOM     13  O   UNL d   1      56.623  49.654  51.826  0.00  0.00    -0.287 OA
ATOM     14  C   UNL d   1      56.958  49.582  48.834  0.00  0.00     0.009 C 
ATOM     15  C   UNL d   1      56.049  49.619  49.712  0.00  0.00     0.009 C 
ENDROOT
BRANCH   3  16
ATOM     16  C   UNL d   1      57.904  49.642  52.444  0.00  0.00     0.001 C 
ATOM     17  C   UNL d   1      57.177  49.276  52.563  0.00  0.00     0.000 C 
ENDBRANCH   3  16
BRANCH   5  18
ATOM     18  S   UNL d   1      60.270  49.560  50.844  0.00  0.00    -0.067 SA
BRANCH  18  19
ATOM     19  C   UNL d   1      60.632  49.002  50.359  0.00  0.00     0.042 C 
BRANCH  19  20
ATOM     20  C   UNL d   1      61.388  48.717  50.549  0.00  0.00     0.070 C 
BRANCH  20  21
ATOM     21  C   UNL d   1      61.590  47.933  50.358  0.00  0.00     0.280 C 
ATOM     22  N   UNL d   1      61.012  47.339  50.404  0.00  0.00    -0.208 NA
ATOM     23  O   UNL d   1      62.356  47.745  50.125  0.00  0.00    -0.265 OA
BRANCH  22  24
ATOM     24  C   UNL d   1      61.213  46.556  50.213  0.00  0.00     0.085 A 
ATOM     25  C   UNL d   1      61.079  46.264  49.454  0.00  0.00     0.021 A 
ATOM     26  C   UNL d   1      61.281  45.488  49.272  0.00  0.00     0.026 A 
ATOM     27  C   UNL d   1      61.618  44.992  49.842  0.00  0.00     0.094 A 
ATOM     28  C   UNL d   1      61.751  45.283  50.600  0.00  0.00     0.026 A 
ATOM     29  C   UNL d   1      61.550  46.067  50.792  0.00  0.00     0.021 A 
BRANCH  27  30
ATOM     30  O   UNL d   1      61.822  44.200  49.652  0.00  0.00    -0.328 OA
ATOM     31  C   UNL d   1      61.725  43.924  48.876  0.00  0.00     0.181 C 
ENDBRANCH  27  30
ENDBRANCH  22  24
ENDBRANCH  20  21
ENDBRANCH  19  20
ENDBRANCH  18  19
ENDBRANCH   5  18
TORSDOF 7
ENDMDL
