MODEL 1
REMARK VINA RESULT:      11.5      0.000      0.000
REMARK  4 active torsions:
REMARK  status: ('A' for Active; 'I' for Inactive)
REMARK    1  A    between atoms: N_4  and  C_8 
REMARK    2  A    between atoms: C_15  and  C_5 
REMARK    3  A    between atoms: O_17  and  C_15 
REMARK    4  A    between atoms: C_16  and  O_17 
ROOT
ATOM      1  C   UNL d   1      46.149 -16.121  44.955  0.00  0.00     0.144 C 
ENDROOT
BRANCH   1   2
ATOM      2  C   UNL d   1      45.847 -15.415  44.665  0.00  0.00     0.142 A 
ATOM      3  N   UNL d   1      46.227 -14.906  44.143  0.00  0.00    -0.057 NA
ATOM      4  C   UNL d   1      45.729 -14.277  44.006  0.00  0.00     0.735 A 
ATOM      5  N   UNL d   1      45.038 -14.391  44.441  0.00  0.00    -0.136 N 
ATOM      6  N   UNL d   1      45.804 -13.601  43.538  0.00  0.00    -0.059 NA
ATOM      7  C   UNL d   1      45.125 -15.094  44.842  0.00  0.00     0.120 A 
ATOM      8  C   UNL d   1      44.413 -13.845  44.423  0.00  0.00     0.100 A 
ATOM      9  C   UNL d   1      44.498 -13.155  43.941  0.00  0.00     0.041 A 
ATOM     10  C   UNL d   1      45.200 -13.044  43.502  0.00  0.00     0.119 A 
ENDBRANCH   1   2
BRANCH   1  11
ATOM     11  O   UNL d   1      46.178 -16.800  44.466  0.00  0.00    -0.303 OA
BRANCH  11  12
ATOM     12  C   UNL d   1      46.211 -17.474  43.984  0.00  0.00     0.102 A 
ATOM     13  C   UNL d   1      46.232 -18.233  44.322  0.00  0.00     0.048 A 
ATOM     14  C   UNL d   1      46.265 -18.904  43.848  0.00  0.00     0.129 A 
ATOM     15  C   UNL d   1      46.277 -18.825  43.018  0.00  0.00     0.024 A 
ATOM     16  C   UNL d   1      46.256 -18.070  42.680  0.00  0.00     0.004 A 
ATOM     17  C   UNL d   1      46.223 -17.404  43.162  0.00  0.00     0.025 A 
BRANCH  14  18
ATOM     18  N   UNL d   1      46.285 -19.652  44.199  0.00  0.00    -0.114 N 
ATOM     19  O   UNL d   1      45.953 -19.760  44.949  0.00  0.00    -0.532 OA
ATOM     20  O   UNL d   1      46.630 -20.285  43.815  0.00  0.00    -0.532 OA
ENDBRANCH  14  18
ENDBRANCH  11  12
ENDBRANCH   1  11
TORSDOF 4
ENDMDL
