MODEL 1
REMARK VINA RESULT:      27.9      0.000      0.000
REMARK  5 active torsions:
REMARK  status: ('A' for Active; 'I' for Inactive)
REMARK       I    between atoms: N_2  and  C_5 
REMARK    1  A    between atoms: C_3  and  N_2 
REMARK    2  A    between atoms: C_14  and  C_4 
REMARK    3  A    between atoms: C_5  and  C_13 
REMARK    4  A    between atoms: C_17  and  C_6 
REMARK    5  A    between atoms: C_13  and  C_14 
ROOT
ATOM      1  N   UNL d   1      13.844  11.787  -2.425  0.00  0.00    -0.208 NA
ATOM      2  C   UNL d   1      13.574  12.188  -3.082  0.00  0.00     0.279 C 
ATOM      3  O   UNL d   1      13.184  11.779  -3.689  0.00  0.00    -0.265 OA
ENDROOT
BRANCH   2   4
ATOM      4  C   UNL d   1      13.689  13.003  -3.145  0.00  0.00     0.065 C 
BRANCH   4   5
ATOM      5  C   UNL d   1      13.219  13.451  -3.655  0.00  0.00     0.030 C 
BRANCH   5   6
ATOM      6  C   UNL d   1      13.460  14.201  -3.886  0.00  0.00     0.100 A 
ATOM      7  O   UNL d   1      13.748  14.802  -3.388  0.00  0.00    -0.307 OA
ATOM      8  C   UNL d   1      13.922  15.454  -3.849  0.00  0.00     0.100 A 
ATOM      9  C   UNL d   1      13.747  15.270  -4.634  0.00  0.00     0.027 A 
ATOM     10  C   UNL d   1      13.462  14.496  -4.651  0.00  0.00     0.027 A 
BRANCH   8  11
ATOM     11  C   UNL d   1      14.221  16.167  -3.573  0.00  0.00     0.025 C 
ATOM     12  C   UNL d   1      15.026  16.235  -3.393  0.00  0.00     0.002 C 
ENDBRANCH   8  11
ENDBRANCH   5   6
ENDBRANCH   4   5
ENDBRANCH   2   4
BRANCH   1  13
ATOM     13  C   UNL d   1      14.232  12.195  -1.820  0.00  0.00     0.085 A 
ATOM     14  C   UNL d   1      13.914  12.200  -1.062  0.00  0.00     0.018 A 
ATOM     15  C   UNL d   1      14.301  12.606  -0.462  0.00  0.00     0.002 A 
ATOM     16  C   UNL d   1      13.208  11.797  -0.909  0.00  0.00     0.002 C 
ATOM     17  C   UNL d   1      15.004  13.006  -0.623  0.00  0.00     0.000 A 
ATOM     18  C   UNL d   1      15.323  13.001  -1.381  0.00  0.00     0.002 A 
ATOM     19  C   UNL d   1      15.394  13.416  -0.015  0.00  0.00     0.000 C 
ATOM     20  C   UNL d   1      14.927  12.588  -1.985  0.00  0.00     0.019 A 
ENDBRANCH   1  13
TORSDOF 5
ENDMDL
MODEL 2
REMARK VINA RESULT:      30.3      0.859      1.280
REMARK  5 active torsions:
REMARK  status: ('A' for Active; 'I' for Inactive)
REMARK       I    between atoms: N_2  and  C_5 
REMARK    1  A    between atoms: C_3  and  N_2 
REMARK    2  A    between atoms: C_14  and  C_4 
REMARK    3  A    between atoms: C_5  and  C_13 
REMARK    4  A    between atoms: C_17  and  C_6 
REMARK    5  A    between atoms: C_13  and  C_14 
ROOT
ATOM      1  N   UNL d   1      13.770  11.781  -3.312  0.00  0.00    -0.208 NA
ATOM      2  C   UNL d   1      13.484  12.391  -3.774  0.00  0.00     0.279 C 
ATOM      3  O   UNL d   1      13.497  12.327  -4.601  0.00  0.00    -0.265 OA
ENDROOT
BRANCH   2   4
ATOM      4  C   UNL d   1      13.183  13.072  -3.420  0.00  0.00     0.065 C 
BRANCH   4   5
ATOM      5  C   UNL d   1      12.772  13.628  -3.871  0.00  0.00     0.030 C 
BRANCH   5   6
ATOM      6  C   UNL d   1      13.086  14.377  -3.987  0.00  0.00     0.100 A 
ATOM      7  O   UNL d   1      13.725  14.714  -3.576  0.00  0.00    -0.307 OA
ATOM      8  C   UNL d   1      13.851  15.466  -3.869  0.00  0.00     0.100 A 
ATOM      9  C   UNL d   1      13.296  15.608  -4.462  0.00  0.00     0.027 A 
ATOM     10  C   UNL d   1      12.827  14.934  -4.532  0.00  0.00     0.027 A 
BRANCH   8  11
ATOM     11  C   UNL d   1      14.431  15.987  -3.612  0.00  0.00     0.025 C 
ATOM     12  C   UNL d   1      14.602  16.049  -2.804  0.00  0.00     0.002 C 
ENDBRANCH   8  11
ENDBRANCH   5   6
ENDBRANCH   4   5
ENDBRANCH   2   4
BRANCH   1  13
ATOM     13  C   UNL d   1      13.757  11.845  -2.488  0.00  0.00     0.085 A 
ATOM     14  C   UNL d   1      14.463  11.933  -2.076  0.00  0.00     0.018 A 
ATOM     15  C   UNL d   1      14.449  11.996  -1.256  0.00  0.00     0.002 A 
ATOM     16  C   UNL d   1      15.181  11.956  -2.486  0.00  0.00     0.002 C 
ATOM     17  C   UNL d   1      13.729  11.972  -0.854  0.00  0.00     0.000 A 
ATOM     18  C   UNL d   1      13.024  11.885  -1.266  0.00  0.00     0.002 A 
ATOM     19  C   UNL d   1      13.717  12.037  -0.026  0.00  0.00     0.000 C 
ATOM     20  C   UNL d   1      13.044  11.821  -2.096  0.00  0.00     0.019 A 
ENDBRANCH   1  13
TORSDOF 5
ENDMDL
MODEL 3
REMARK VINA RESULT:      30.9      1.500      3.887
REMARK  5 active torsions:
REMARK  status: ('A' for Active; 'I' for Inactive)
REMARK       I    between atoms: N_2  and  C_5 
REMARK    1  A    between atoms: C_3  and  N_2 
REMARK    2  A    between atoms: C_14  and  C_4 
REMARK    3  A    between atoms: C_5  and  C_13 
REMARK    4  A    between atoms: C_17  and  C_6 
REMARK    5  A    between atoms: C_13  and  C_14 
ROOT
ATOM      1  N   UNL d   1      12.784  13.076  -3.404  0.00  0.00    -0.208 NA
ATOM      2  C   UNL d   1      13.164  12.941  -2.694  0.00  0.00     0.279 C 
ATOM      3  O   UNL d   1      12.823  13.200  -1.984  0.00  0.00    -0.265 OA
ENDROOT
BRANCH   2   4
ATOM      4  C   UNL d   1      13.888  12.546  -2.682  0.00  0.00     0.065 C 
BRANCH   4   5
ATOM      5  C   UNL d   1      14.048  11.990  -2.092  0.00  0.00     0.030 C 
BRANCH   5   6
ATOM      6  C   UNL d   1      14.430  12.219  -1.403  0.00  0.00     0.100 A 
ATOM      7  O   UNL d   1      14.831  12.937  -1.276  0.00  0.00    -0.307 OA
ATOM      8  C   UNL d   1      15.128  12.933  -0.514  0.00  0.00     0.100 A 
ATOM      9  C   UNL d   1      14.917  12.219  -0.159  0.00  0.00     0.027 A 
ATOM     10  C   UNL d   1      14.488  11.783  -0.710  0.00  0.00     0.027 A 
BRANCH   8  11
ATOM     11  C   UNL d   1      15.560  13.539  -0.168  0.00  0.00     0.025 C 
ATOM     12  C   UNL d   1      15.313  14.324  -0.256  0.00  0.00     0.002 C 
ENDBRANCH   8  11
ENDBRANCH   5   6
ENDBRANCH   4   5
ENDBRANCH   2   4
BRANCH   1  13
ATOM     13  C   UNL d   1      13.124  12.818  -4.111  0.00  0.00     0.085 A 
ATOM     14  C   UNL d   1      13.202  13.341  -4.741  0.00  0.00     0.018 A 
ATOM     15  C   UNL d   1      13.541  13.083  -5.444  0.00  0.00     0.002 A 
ATOM     16  C   UNL d   1      12.940  14.122  -4.663  0.00  0.00     0.002 C 
ATOM     17  C   UNL d   1      13.800  12.303  -5.514  0.00  0.00     0.000 A 
ATOM     18  C   UNL d   1      13.722  11.780  -4.885  0.00  0.00     0.002 A 
ATOM     19  C   UNL d   1      14.142  12.045  -6.226  0.00  0.00     0.000 C 
ATOM     20  C   UNL d   1      13.378  12.046  -4.175  0.00  0.00     0.019 A 
ENDBRANCH   1  13
TORSDOF 5
ENDMDL
