MODEL 1
REMARK VINA RESULT:      -2.9      0.000      0.000
REMARK  5 active torsions:
REMARK  status: ('A' for Active; 'I' for Inactive)
REMARK    1  A    between atoms: C_2  and  C_1 
REMARK    2  A    between atoms: N_5  and  C_2 
REMARK    3  A    between atoms: C_9  and  C_4 
REMARK    4  A    between atoms: C_21  and  N_10 
REMARK    5  A    between atoms: C_18  and  C_21 
ROOT
ATOM      1  N   UNL d   1      27.352  15.920 -23.118  0.00  0.00    -0.191 NA
ATOM      2  C   UNL d   1      28.165  16.013 -23.169  0.00  0.00     0.103 C 
ATOM      3  C   UNL d   1      28.986  16.106 -23.228  0.00  0.00     0.097 C 
ENDROOT
BRANCH   3   4
ATOM      4  C   UNL d   1      29.334  16.183 -23.966  0.00  0.00     0.091 C 
BRANCH   4   5
ATOM      5  N   UNL d   1      30.084  16.526 -24.030  0.00  0.00    -0.299 N 
ATOM      6  C   UNL d   1      30.165  17.301 -24.308  0.00  0.00     0.100 A 
ATOM      7  C   UNL d   1      30.906  17.646 -24.374  0.00  0.00     0.100 A 
ATOM      8  N   UNL d   1      31.577  17.213 -24.160  0.00  0.00    -0.291 N 
ATOM      9  C   UNL d   1      31.509  16.443 -23.882  0.00  0.00     0.100 A 
ATOM     10  C   UNL d   1      30.758  16.096 -23.816  0.00  0.00     0.100 A 
BRANCH   8  11
ATOM     11  C   UNL d   1      32.322  17.561 -24.226  0.00  0.00     0.143 C 
ATOM     12  S   UNL d   1      32.762  17.477 -24.918  0.00  0.00    -0.057 SA
BRANCH  11  13
ATOM     13  C   UNL d   1      32.633  18.000 -23.589  0.00  0.00     0.126 A 
ATOM     14  O   UNL d   1      32.591  18.823 -23.506  0.00  0.00    -0.305 OA
ATOM     15  C   UNL d   1      32.966  19.022 -22.800  0.00  0.00     0.100 A 
ATOM     16  C   UNL d   1      33.241  18.321 -22.446  0.00  0.00     0.027 A 
ATOM     17  C   UNL d   1      33.033  17.694 -22.936  0.00  0.00     0.029 A 
BRANCH  15  18
ATOM     18  C   UNL d   1      33.057  19.779 -22.493  0.00  0.00     0.024 A 
ATOM     19  C   UNL d   1      33.082  20.424 -23.005  0.00  0.00     0.013 A 
ATOM     20  C   UNL d   1      33.173  21.192 -22.709  0.00  0.00     0.058 A 
ATOM     21 CL   UNL d   1      33.198  21.841 -23.223  0.00  0.00    -0.082 Cl
ATOM     22  C   UNL d   1      33.239  21.307 -21.887  0.00  0.00     0.011 A 
ATOM     23  C   UNL d   1      33.214  20.655 -21.378  0.00  0.00     0.001 A 
ATOM     24  C   UNL d   1      33.123  19.894 -21.680  0.00  0.00     0.002 A 
ENDBRANCH  15  18
ENDBRANCH  11  13
ENDBRANCH   8  11
ENDBRANCH   4   5
ENDBRANCH   3   4
TORSDOF 5
ENDMDL
MODEL 2
REMARK VINA RESULT:      -2.3      0.923      1.270
REMARK  5 active torsions:
REMARK  status: ('A' for Active; 'I' for Inactive)
REMARK    1  A    between atoms: C_2  and  C_1 
REMARK    2  A    between atoms: N_5  and  C_2 
REMARK    3  A    between atoms: C_9  and  C_4 
REMARK    4  A    between atoms: C_21  and  N_10 
REMARK    5  A    between atoms: C_18  and  C_21 
ROOT
ATOM      1  N   UNL d   1      26.678  16.579 -22.924  0.00  0.00    -0.191 NA
ATOM      2  C   UNL d   1      27.460  16.684 -23.147  0.00  0.00     0.103 C 
ATOM      3  C   UNL d   1      28.251  16.782 -23.375  0.00  0.00     0.097 C 
ENDROOT
BRANCH   3   4
ATOM      4  C   UNL d   1      28.668  16.146 -23.679  0.00  0.00     0.091 C 
BRANCH   4   5
ATOM      5  N   UNL d   1      29.483  16.213 -23.803  0.00  0.00    -0.299 N 
ATOM      6  C   UNL d   1      29.776  16.734 -24.376  0.00  0.00     0.100 A 
ATOM      7  C   UNL d   1      30.582  16.805 -24.503  0.00  0.00     0.100 A 
ATOM      8  N   UNL d   1      31.106  16.351 -24.054  0.00  0.00    -0.291 N 
ATOM      9  C   UNL d   1      30.828  15.830 -23.482  0.00  0.00     0.100 A 
ATOM     10  C   UNL d   1      30.011  15.760 -23.355  0.00  0.00     0.100 A 
BRANCH   8  11
ATOM     11  C   UNL d   1      31.919  16.422 -24.182  0.00  0.00     0.143 C 
ATOM     12  S   UNL d   1      32.294  15.957 -24.750  0.00  0.00    -0.057 SA
BRANCH  11  13
ATOM     13  C   UNL d   1      32.362  16.968 -23.736  0.00  0.00     0.126 A 
ATOM     14  O   UNL d   1      32.284  17.793 -23.768  0.00  0.00    -0.305 OA
ATOM     15  C   UNL d   1      32.827  18.115 -23.238  0.00  0.00     0.100 A 
ATOM     16  C   UNL d   1      33.241  17.490 -22.878  0.00  0.00     0.027 A 
ATOM     17  C   UNL d   1      32.951  16.785 -23.188  0.00  0.00     0.029 A 
BRANCH  15  18
ATOM     18  C   UNL d   1      32.944  18.915 -23.087  0.00  0.00     0.024 A 
ATOM     19  C   UNL d   1      32.879  19.195 -22.315  0.00  0.00     0.013 A 
ATOM     20  C   UNL d   1      32.994  19.998 -22.149  0.00  0.00     0.058 A 
ATOM     21 CL   UNL d   1      32.929  20.282 -21.373  0.00  0.00    -0.082 Cl
ATOM     22  C   UNL d   1      33.177  20.522 -22.771  0.00  0.00     0.011 A 
ATOM     23  C   UNL d   1      33.241  20.233 -23.543  0.00  0.00     0.001 A 
ATOM     24  C   UNL d   1      33.125  19.433 -23.701  0.00  0.00     0.002 A 
ENDBRANCH  15  18
ENDBRANCH  11  13
ENDBRANCH   8  11
ENDBRANCH   4   5
ENDBRANCH   3   4
TORSDOF 5
ENDMDL
