MODEL 1
REMARK VINA RESULT:      -2.5      0.000      0.000
REMARK  1 active torsions:
REMARK  status: ('A' for Active; 'I' for Inactive)
REMARK    1  A    between atoms: C_14  and  C_5 
ROOT
ATOM      1  C   UNL d   1      31.277  17.711 -24.591  0.00  0.00     0.111 A 
ATOM      2  C   UNL d   1      30.423  16.705 -24.010  0.00  0.00     0.062 A 
ATOM      3  C   UNL d   1      30.547  18.188 -24.728  0.00  0.00     0.213 A 
ATOM      4  C   UNL d   1      29.773  17.151 -24.142  0.00  0.00     0.101 A 
ATOM      5  C   UNL d   1      31.178  16.986 -24.235  0.00  0.00     0.018 A 
ATOM      6  O   UNL d   1      29.836  17.891 -24.500  0.00  0.00    -0.288 OA
ATOM      7  C   UNL d   1      30.365  15.956 -23.649  0.00  0.00     0.194 A 
ATOM      8  C   UNL d   1      32.022  17.988 -24.813  0.00  0.00     0.105 C 
ATOM      9  N   UNL d   1      32.781  18.249 -25.029  0.00  0.00    -0.191 NA
ATOM     10  C   UNL d   1      29.029  16.874 -23.920  0.00  0.00     0.002 A 
ATOM     11  C   UNL d   1      28.929  16.149 -23.565  0.00  0.00     0.042 A 
ATOM     12  C   UNL d   1      29.650  15.668 -23.425  0.00  0.00     0.019 A 
ATOM     13  O   UNL d   1      31.066  15.480 -23.509  0.00  0.00    -0.287 OA
ATOM     14  N   UNL d   1      30.569  18.962 -25.097  0.00  0.00    -0.120 N 
ATOM     15  C   UNL d   1      28.103  16.263 -23.518  0.00  0.00     0.009 C 
ATOM     16  C   UNL d   1      28.674  15.461 -23.208  0.00  0.00     0.009 C 
ENDROOT
BRANCH   5  17
ATOM     17  C   UNL d   1      31.830  16.536 -24.102  0.00  0.00     0.001 A 
ATOM     18  C   UNL d   1      32.041  15.989 -24.652  0.00  0.00     0.000 A 
ATOM     19  C   UNL d   1      32.718  15.511 -24.529  0.00  0.00     0.000 A 
ATOM     20  C   UNL d   1      33.154  15.600 -23.861  0.00  0.00     0.000 A 
ATOM     21  C   UNL d   1      32.932  16.168 -23.294  0.00  0.00     0.000 A 
ATOM     22  C   UNL d   1      32.262  16.639 -23.420  0.00  0.00     0.000 A 
ENDBRANCH   5  17
TORSDOF 1
ENDMDL
MODEL 2
REMARK VINA RESULT:      -2.4      0.897      2.992
REMARK  1 active torsions:
REMARK  status: ('A' for Active; 'I' for Inactive)
REMARK    1  A    between atoms: C_14  and  C_5 
ROOT
ATOM      1  C   UNL d   1      30.062  17.679 -24.593  0.00  0.00     0.111 A 
ATOM      2  C   UNL d   1      30.920  16.682 -24.003  0.00  0.00     0.062 A 
ATOM      3  C   UNL d   1      30.790  18.162 -24.726  0.00  0.00     0.213 A 
ATOM      4  C   UNL d   1      31.568  17.132 -24.131  0.00  0.00     0.101 A 
ATOM      5  C   UNL d   1      30.165  16.956 -24.235  0.00  0.00     0.018 A 
ATOM      6  O   UNL d   1      31.501  17.871 -24.492  0.00  0.00    -0.288 OA
ATOM      7  C   UNL d   1      30.982  15.935 -23.639  0.00  0.00     0.194 A 
ATOM      8  C   UNL d   1      29.317  17.949 -24.821  0.00  0.00     0.105 C 
ATOM      9  N   UNL d   1      28.557  18.203 -25.043  0.00  0.00    -0.191 NA
ATOM     10  C   UNL d   1      32.312  16.862 -23.903  0.00  0.00     0.002 A 
ATOM     11  C   UNL d   1      32.416  16.139 -23.545  0.00  0.00     0.042 A 
ATOM     12  C   UNL d   1      31.698  15.653 -23.410  0.00  0.00     0.019 A 
ATOM     13  O   UNL d   1      30.284  15.453 -23.503  0.00  0.00    -0.287 OA
ATOM     14  N   UNL d   1      30.764  18.934 -25.097  0.00  0.00    -0.120 N 
ATOM     15  C   UNL d   1      33.240  16.260 -23.493  0.00  0.00     0.009 C 
ATOM     16  C   UNL d   1      32.674  15.454 -23.185  0.00  0.00     0.009 C 
ENDROOT
BRANCH   5  17
ATOM     17  C   UNL d   1      29.516  16.501 -24.105  0.00  0.00     0.001 A 
ATOM     18  C   UNL d   1      29.115  16.589 -23.414  0.00  0.00     0.000 A 
ATOM     19  C   UNL d   1      28.435  16.122 -23.261  0.00  0.00     0.000 A 
ATOM     20  C   UNL d   1      28.187  15.588 -23.806  0.00  0.00     0.000 A 
ATOM     21  C   UNL d   1      28.606  15.500 -24.520  0.00  0.00     0.000 A 
ATOM     22  C   UNL d   1      29.277  15.963 -24.667  0.00  0.00     0.000 A 
ENDBRANCH   5  17
TORSDOF 1
ENDMDL
MODEL 3
REMARK VINA RESULT:      -0.5      1.434      2.970
REMARK  1 active torsions:
REMARK  status: ('A' for Active; 'I' for Inactive)
REMARK    1  A    between atoms: C_14  and  C_5 
ROOT
ATOM      1  C   UNL d   1      30.732  17.029 -24.322  0.00  0.00     0.111 A 
ATOM      2  C   UNL d   1      31.844  17.943 -24.398  0.00  0.00     0.062 A 
ATOM      3  C   UNL d   1      30.238  17.671 -24.674  0.00  0.00     0.213 A 
ATOM      4  C   UNL d   1      31.382  18.512 -24.716  0.00  0.00     0.101 A 
ATOM      5  C   UNL d   1      31.518  17.199 -24.200  0.00  0.00     0.018 A 
ATOM      6  O   UNL d   1      30.581  18.375 -24.853  0.00  0.00    -0.288 OA
ATOM      7  C   UNL d   1      32.655  18.077 -24.258  0.00  0.00     0.194 A 
ATOM      8  C   UNL d   1      30.411  16.294 -24.126  0.00  0.00     0.105 C 
ATOM      9  N   UNL d   1      30.106  15.548 -23.923  0.00  0.00    -0.191 NA
ATOM     10  C   UNL d   1      31.703  19.245 -24.911  0.00  0.00     0.002 A 
ATOM     11  C   UNL d   1      32.490  19.416 -24.790  0.00  0.00     0.042 A 
ATOM     12  C   UNL d   1      32.987  18.784 -24.440  0.00  0.00     0.019 A 
ATOM     13  O   UNL d   1      33.149  17.462 -23.915  0.00  0.00    -0.287 OA
ATOM     14  N   UNL d   1      29.402  17.569 -24.832  0.00  0.00    -0.120 N 
ATOM     15  C   UNL d   1      32.391  20.186 -25.097  0.00  0.00     0.009 C 
ATOM     16  C   UNL d   1      33.241  19.729 -24.729  0.00  0.00     0.009 C 
ENDROOT
BRANCH   5  17
ATOM     17  C   UNL d   1      31.985  16.628 -23.881  0.00  0.00     0.001 A 
ATOM     18  C   UNL d   1      32.388  16.138 -24.374  0.00  0.00     0.000 A 
ATOM     19  C   UNL d   1      32.880  15.537 -24.058  0.00  0.00     0.000 A 
ATOM     20  C   UNL d   1      32.948  15.453 -23.263  0.00  0.00     0.000 A 
ATOM     21  C   UNL d   1      32.528  15.964 -22.756  0.00  0.00     0.000 A 
ATOM     22  C   UNL d   1      32.043  16.556 -23.072  0.00  0.00     0.000 A 
ENDBRANCH   5  17
TORSDOF 1
ENDMDL
MODEL 4
REMARK VINA RESULT:       0.1      1.571      2.239
REMARK  1 active torsions:
REMARK  status: ('A' for Active; 'I' for Inactive)
REMARK    1  A    between atoms: C_14  and  C_5 
ROOT
ATOM      1  C   UNL d   1      31.317  16.377 -23.079  0.00  0.00     0.111 A 
ATOM      2  C   UNL d   1      30.448  17.114 -23.961  0.00  0.00     0.062 A 
ATOM      3  C   UNL d   1      30.587  16.022 -22.729  0.00  0.00     0.213 A 
ATOM      4  C   UNL d   1      29.798  16.783 -23.634  0.00  0.00     0.101 A 
ATOM      5  C   UNL d   1      31.209  16.910 -23.683  0.00  0.00     0.018 A 
ATOM      6  O   UNL d   1      29.869  16.238 -23.019  0.00  0.00    -0.288 OA
ATOM      7  C   UNL d   1      30.381  17.665 -24.583  0.00  0.00     0.194 A 
ATOM      8  C   UNL d   1      32.068  16.176 -22.804  0.00  0.00     0.105 C 
ATOM      9  N   UNL d   1      32.834  15.987 -22.542  0.00  0.00    -0.191 NA
ATOM     10  C   UNL d   1      29.048  16.984 -23.908  0.00  0.00     0.002 A 
ATOM     11  C   UNL d   1      28.939  17.517 -24.513  0.00  0.00     0.042 A 
ATOM     12  C   UNL d   1      29.660  17.874 -24.865  0.00  0.00     0.019 A 
ATOM     13  O   UNL d   1      31.081  18.019 -24.934  0.00  0.00    -0.287 OA
ATOM     14  N   UNL d   1      30.617  15.453 -22.089  0.00  0.00    -0.120 N 
ATOM     15  C   UNL d   1      28.110  17.429 -24.469  0.00  0.00     0.009 C 
ATOM     16  C   UNL d   1      28.676  18.023 -25.096  0.00  0.00     0.009 C 
ENDROOT
BRANCH   5  17
ATOM     17  C   UNL d   1      31.860  17.244 -24.015  0.00  0.00     0.001 A 
ATOM     18  C   UNL d   1      32.210  16.874 -24.635  0.00  0.00     0.000 A 
ATOM     19  C   UNL d   1      32.891  17.208 -24.994  0.00  0.00     0.000 A 
ATOM     20  C   UNL d   1      33.190  17.898 -24.716  0.00  0.00     0.000 A 
ATOM     21  C   UNL d   1      32.824  18.279 -24.072  0.00  0.00     0.000 A 
ATOM     22  C   UNL d   1      32.152  17.945 -23.721  0.00  0.00     0.000 A 
ENDBRANCH   5  17
TORSDOF 1
ENDMDL
