MODEL 1
REMARK VINA RESULT:      22.0      0.000      0.000
REMARK  2 active torsions:
REMARK  status: ('A' for Active; 'I' for Inactive)
REMARK    1  A    between atoms: C_3  and  C_1 
REMARK       I    between atoms: N_7  and  C_3 
REMARK    2  A    between atoms: C_11  and  N_7 
ROOT
ATOM      1  C   UNL d   1      45.866 -16.945  43.623  0.00  0.00     0.121 A 
ATOM      2  C   UNL d   1      46.171 -17.462  44.190  0.00  0.00     0.305 A 
ATOM      3  C   UNL d   1      45.728 -17.211  42.844  0.00  0.00     0.012 A 
ATOM      4  O   UNL d   1      46.335 -18.236  43.970  0.00  0.00    -0.273 OA
ATOM      5  C   UNL d   1      45.900 -17.986  42.656  0.00  0.00     0.023 A 
ATOM      6  C   UNL d   1      46.206 -18.502  43.223  0.00  0.00     0.103 A 
ATOM      7  O   UNL d   1      46.310 -17.216  44.951  0.00  0.00    -0.259 OA
ATOM      8  C   UNL d   1      45.763 -18.254  41.875  0.00  0.00     0.002 A 
ATOM      9  C   UNL d   1      46.369 -19.280  43.000  0.00  0.00     0.025 A 
ATOM     10  C   UNL d   1      45.935 -19.022  41.693  0.00  0.00     0.000 A 
ATOM     11  C   UNL d   1      46.240 -19.539  42.260  0.00  0.00     0.002 A 
ENDROOT
BRANCH   1  12
ATOM     12  C   UNL d   1      45.693 -16.159  43.822  0.00  0.00     0.284 C 
ATOM     13  N   UNL d   1      46.278 -15.575  43.798  0.00  0.00    -0.208 NA
ATOM     14  O   UNL d   1      44.940 -15.913  44.051  0.00  0.00    -0.265 OA
BRANCH  13  15
ATOM     15  C   UNL d   1      46.100 -14.803  43.994  0.00  0.00     0.085 A 
ATOM     16  C   UNL d   1      45.695 -14.320  43.471  0.00  0.00     0.019 A 
ATOM     17  C   UNL d   1      45.514 -13.540  43.665  0.00  0.00     0.002 A 
ATOM     18  C   UNL d   1      45.749 -13.246  44.405  0.00  0.00     0.000 A 
ATOM     19  C   UNL d   1      46.158 -13.714  44.950  0.00  0.00     0.002 A 
ATOM     20  C   UNL d   1      45.577 -12.487  44.605  0.00  0.00     0.000 C 
ATOM     21  C   UNL d   1      46.333 -14.496  44.741  0.00  0.00     0.019 A 
ENDBRANCH  13  15
ENDBRANCH   1  12
TORSDOF 2
ENDMDL
