MODEL 1
REMARK VINA RESULT:      14.1      0.000      0.000
REMARK  5 active torsions:
REMARK  status: ('A' for Active; 'I' for Inactive)
REMARK    1  A    between atoms: N_6  and  C_1 
REMARK    2  A    between atoms: S_10  and  C_4 
REMARK       I    between atoms: C_7  and  N_6 
REMARK       I    between atoms: N_8  and  C_7 
REMARK    3  A    between atoms: C_11  and  N_8 
REMARK    4  A    between atoms: C_12  and  S_10 
REMARK    5  A    between atoms: C_15  and  C_12 
ROOT
ATOM      1  N   UNL d   1      14.066  12.409  -2.094  0.00  0.00    -0.321 NA
ATOM      2  C   UNL d   1      13.692  12.136  -2.632  0.00  0.00     0.422 C 
ATOM      3  N   UNL d   1      13.223  11.779  -3.285  0.00  0.00    -0.180 NA
ATOM      4  O   UNL d   1      13.837  12.692  -3.038  0.00  0.00    -0.228 OA
ENDROOT
BRANCH   1   5
ATOM      5  C   UNL d   1      14.479  12.597  -1.345  0.00  0.00     0.271 A 
ATOM      6  S   UNL d   1      14.816  13.156  -1.067  0.00  0.00    -0.006 SA
ATOM      7  C   UNL d   1      15.096  13.100  -0.411  0.00  0.00     0.166 A 
ATOM      8  N   UNL d   1      15.036  12.493  -0.045  0.00  0.00    -0.132 NA
ATOM      9  N   UNL d   1      14.420  11.990  -0.979  0.00  0.00    -0.107 NA
BRANCH   7  10
ATOM     10  S   UNL d   1      15.460  13.589  -0.014  0.00  0.00    -0.059 SA
BRANCH  10  11
ATOM     11  C   UNL d   1      15.737  14.282  -0.367  0.00  0.00     0.037 C 
BRANCH  11  12
ATOM     12  C   UNL d   1      15.299  14.979  -0.302  0.00  0.00     0.007 C 
ATOM     13  C   UNL d   1      15.650  15.666  -0.014  0.00  0.00     0.001 C 
ENDBRANCH  11  12
ENDBRANCH  10  11
ENDBRANCH   7  10
ENDBRANCH   1   5
BRANCH   3  14
ATOM     14  C   UNL d   1      13.153  12.185  -4.010  0.00  0.00     0.087 A 
ATOM     15  C   UNL d   1      12.937  12.973  -4.014  0.00  0.00     0.019 A 
ATOM     16  C   UNL d   1      12.866  13.380  -4.740  0.00  0.00     0.002 A 
ATOM     17  C   UNL d   1      13.013  12.990  -5.448  0.00  0.00     0.000 A 
ATOM     18  C   UNL d   1      13.233  12.186  -5.443  0.00  0.00     0.002 A 
ATOM     19  C   UNL d   1      13.302  11.786  -4.721  0.00  0.00     0.019 A 
ENDBRANCH   3  14
TORSDOF 5
ENDMDL
