MODEL 1
REMARK VINA RESULT:      12.0      0.000      0.000
REMARK  4 active torsions:
REMARK  status: ('A' for Active; 'I' for Inactive)
REMARK    1  A    between atoms: C_4  and  S_1 
REMARK    2  A    between atoms: N_5  and  S_1 
REMARK    3  A    between atoms: C_3  and  C_12 
REMARK    4  A    between atoms: C_12  and  N_5 
ROOT
ATOM      1  S   UNL d   1      45.832 -15.786  44.448  0.00  0.00     0.285 S 
ATOM      2  O   UNL d   1      46.517 -15.781  43.988  0.00  0.00    -0.198 OA
ATOM      3  O   UNL d   1      45.135 -15.800  44.916  0.00  0.00    -0.198 OA
ENDROOT
BRANCH   1   4
ATOM      4  C   UNL d   1      45.815 -14.964  44.447  0.00  0.00     0.105 A 
ATOM      5  C   UNL d   1      45.300 -14.560  43.927  0.00  0.00     0.013 A 
ATOM      6  C   UNL d   1      45.301 -13.734  43.943  0.00  0.00     0.001 A 
ATOM      7  C   UNL d   1      44.786 -13.336  43.425  0.00  0.00     0.000 A 
ATOM      8  C   UNL d   1      45.791 -13.315  44.453  0.00  0.00     0.000 A 
ATOM      9  C   UNL d   1      44.778 -12.509  43.432  0.00  0.00     0.000 A 
ATOM     10  C   UNL d   1      45.267 -12.086  43.941  0.00  0.00     0.000 A 
ATOM     11  C   UNL d   1      45.773 -12.498  44.450  0.00  0.00     0.000 A 
ATOM     12  C   UNL d   1      46.286 -13.723  44.952  0.00  0.00     0.001 A 
ATOM     13  C   UNL d   1      46.303 -14.545  44.953  0.00  0.00     0.013 A 
ENDBRANCH   1   4
BRANCH   1  14
ATOM     14  N   UNL d   1      45.840 -16.620  44.454  0.00  0.00    -0.155 NA
BRANCH  14  15
ATOM     15  C   UNL d   1      46.307 -17.040  43.921  0.00  0.00     0.132 C 
BRANCH  15  16
ATOM     16  C   UNL d   1      46.315 -17.873  43.933  0.00  0.00     0.108 A 
ATOM     17  N   UNL d   1      46.350 -18.340  44.606  0.00  0.00    -0.237 NA
ATOM     18  C   UNL d   1      46.347 -19.141  44.367  0.00  0.00     0.111 A 
ATOM     19  C   UNL d   1      46.376 -19.804  44.870  0.00  0.00     0.028 C 
ATOM     20  S   UNL d   1      46.310 -19.149  43.543  0.00  0.00    -0.066 SA
ATOM     21  C   UNL d   1      46.290 -18.365  43.274  0.00  0.00     0.058 A 
ENDBRANCH  15  16
ENDBRANCH  14  15
ENDBRANCH   1  14
TORSDOF 4
ENDMDL
