MODEL 1
REMARK VINA RESULT:      34.9      0.000      0.000
REMARK  1 active torsions:
REMARK  status: ('A' for Active; 'I' for Inactive)
REMARK       I    between atoms: C_4  and  N_1 
REMARK    1  A    between atoms: C_7  and  C_4 
ROOT
ATOM      1  N   UNL d   1     -54.921-101.488 -37.949  0.00  0.00    -0.175 N 
ATOM      2  N   UNL d   1     -54.764-100.701 -38.161  0.00  0.00    -0.057 NA
ATOM      3  N   UNL d   1     -54.720-100.256 -37.478  0.00  0.00    -0.129 NA
ATOM      4  C   UNL d   1     -55.010-102.127 -38.473  0.00  0.00     0.282 C 
ATOM      5  C   UNL d   1     -54.975-101.526 -37.127  0.00  0.00     0.107 A 
ATOM      6  C   UNL d   1     -54.850-100.764 -36.833  0.00  0.00     0.122 A 
ATOM      7  O   UNL d   1     -55.165-102.876 -38.176  0.00  0.00    -0.265 OA
ATOM      8  C   UNL d   1     -55.119-102.146 -36.607  0.00  0.00     0.021 A 
ATOM      9  C   UNL d   1     -54.871-100.626 -36.010  0.00  0.00     0.022 A 
ATOM     10  C   UNL d   1     -55.139-102.009 -35.794  0.00  0.00     0.002 A 
ATOM     11  C   UNL d   1     -55.015-101.250 -35.491  0.00  0.00     0.002 A 
ENDROOT
BRANCH   4  12
ATOM     12  C   UNL d   1     -54.941-102.000 -39.284  0.00  0.00     0.058 A 
ATOM     13  C   UNL d   1     -54.985-101.235 -39.589  0.00  0.00     0.005 A 
ATOM     14  C   UNL d   1     -54.916-101.109 -40.400  0.00  0.00     0.000 A 
ATOM     15  C   UNL d   1     -54.803-101.741 -40.913  0.00  0.00     0.000 A 
ATOM     16  C   UNL d   1     -54.759-102.507 -40.611  0.00  0.00     0.000 A 
ATOM     17  C   UNL d   1     -54.734-101.604 -41.735  0.00  0.00     0.000 C 
ATOM     18  C   UNL d   1     -54.828-102.637 -39.800  0.00  0.00     0.005 A 
ENDBRANCH   4  12
TORSDOF 1
ENDMDL
MODEL 2
REMARK VINA RESULT:      35.4      1.087      3.866
REMARK  1 active torsions:
REMARK  status: ('A' for Active; 'I' for Inactive)
REMARK       I    between atoms: C_4  and  N_1 
REMARK    1  A    between atoms: C_7  and  C_4 
ROOT
ATOM      1  N   UNL d   1     -54.761-101.580 -38.898  0.00  0.00    -0.175 N 
ATOM      2  N   UNL d   1     -54.771-102.406 -38.978  0.00  0.00    -0.057 NA
ATOM      3  N   UNL d   1     -54.760-102.585 -39.775  0.00  0.00    -0.129 NA
ATOM      4  C   UNL d   1     -54.767-101.159 -38.181  0.00  0.00     0.282 C 
ATOM      5  C   UNL d   1     -54.744-101.249 -39.653  0.00  0.00     0.107 A 
ATOM      6  C   UNL d   1     -54.743-101.870 -40.198  0.00  0.00     0.122 A 
ATOM      7  O   UNL d   1     -54.756-100.339 -38.193  0.00  0.00    -0.265 OA
ATOM      8  C   UNL d   1     -54.728-100.471 -39.918  0.00  0.00     0.021 A 
ATOM      9  C   UNL d   1     -54.727-101.706 -41.016  0.00  0.00     0.022 A 
ATOM     10  C   UNL d   1     -54.713-100.310 -40.727  0.00  0.00     0.002 A 
ATOM     11  C   UNL d   1     -54.712-100.925 -41.279  0.00  0.00     0.002 A 
ENDROOT
BRANCH   4  12
ATOM     12  C   UNL d   1     -54.785-101.571 -37.468  0.00  0.00     0.058 A 
ATOM     13  C   UNL d   1     -54.874-102.391 -37.465  0.00  0.00     0.005 A 
ATOM     14  C   UNL d   1     -54.892-102.802 -36.752  0.00  0.00     0.000 A 
ATOM     15  C   UNL d   1     -54.821-102.402 -36.036  0.00  0.00     0.000 A 
ATOM     16  C   UNL d   1     -54.732-101.583 -36.037  0.00  0.00     0.000 A 
ATOM     17  C   UNL d   1     -54.840-102.828 -35.317  0.00  0.00     0.000 C 
ATOM     18  C   UNL d   1     -54.714-101.168 -36.749  0.00  0.00     0.005 A 
ENDBRANCH   4  12
TORSDOF 1
ENDMDL
