MODEL 1
REMARK VINA RESULT:      -1.3      0.000      0.000
REMARK  5 active torsions:
REMARK  status: ('A' for Active; 'I' for Inactive)
REMARK    1  A    between atoms: N_6  and  C_1 
REMARK    2  A    between atoms: C_12  and  C_2 
REMARK       I    between atoms: C_9  and  N_6 
REMARK       I    between atoms: C_11  and  N_7 
REMARK    3  A    between atoms: C_8  and  C_9 
REMARK    4  A    between atoms: O_24  and  C_11 
REMARK    5  A    between atoms: C_25  and  O_24 
ROOT
ATOM      1  C   UNL d   1      33.118  21.358 -21.505  0.00  0.00     0.119 A 
ATOM      2  C   UNL d   1      32.923  21.427 -22.304  0.00  0.00     0.084 A 
ATOM      3  C   UNL d   1      33.112  20.137 -22.037  0.00  0.00     0.049 A 
ATOM      4  C   UNL d   1      32.922  20.660 -22.628  0.00  0.00     0.016 A 
ATOM      5  S   UNL d   1      33.236  20.551 -21.337  0.00  0.00    -0.066 SA
ATOM      6  N   UNL d   1      32.999  19.052 -22.965  0.00  0.00    -0.251 N 
ATOM      7  C   UNL d   1      33.037  18.238 -23.143  0.00  0.00     0.378 C 
ATOM      8  C   UNL d   1      33.153  19.315 -22.205  0.00  0.00     0.091 A 
ATOM      9  C   UNL d   1      32.765  20.400 -23.403  0.00  0.00     0.020 A 
ATOM     10  C   UNL d   1      32.807  19.590 -23.560  0.00  0.00     0.085 A 
ATOM     11  O   UNL d   1      33.229  17.699 -22.548  0.00  0.00    -0.237 OA
ENDROOT
BRANCH   1  12
ATOM     12  N   UNL d   1      33.185  21.978 -20.965  0.00  0.00    -0.201 NA
ATOM     13  C   UNL d   1      33.021  21.850 -20.169  0.00  0.00     0.286 C 
ATOM     14  O   UNL d   1      32.788  21.098 -19.906  0.00  0.00    -0.265 OA
BRANCH  13  15
ATOM     15  C   UNL d   1      33.088  22.470 -19.629  0.00  0.00     0.088 A 
ATOM     16  S   UNL d   1      33.079  22.410 -18.794  0.00  0.00    -0.071 SA
ATOM     17  C   UNL d   1      33.163  23.178 -18.484  0.00  0.00     0.087 A 
ATOM     18 CL   UNL d   1      33.183  23.380 -17.668  0.00  0.00    -0.075 Cl
ATOM     19  C   UNL d   1      33.222  23.702 -19.118  0.00  0.00     0.019 A 
ATOM     20  C   UNL d   1      33.175  23.258 -19.818  0.00  0.00     0.013 A 
ENDBRANCH  13  15
ENDBRANCH   1  12
BRANCH   2  21
ATOM     21  C   UNL d   1      32.761  22.126 -22.705  0.00  0.00     0.299 C 
ATOM     22  O   UNL d   1      33.196  22.328 -23.366  0.00  0.00    -0.264 OA
ATOM     23  N   UNL d   1      32.157  22.624 -22.438  0.00  0.00    -0.102 N 
ENDBRANCH   2  21
BRANCH   7  24
ATOM     24  O   UNL d   1      32.883  17.971 -23.907  0.00  0.00    -0.257 OA
BRANCH  24  25
ATOM     25  C   UNL d   1      32.679  17.182 -24.039  0.00  0.00     0.128 C 
ATOM     26  C   UNL d   1      32.902  16.801 -24.731  0.00  0.00     0.029 C 
ENDBRANCH  24  25
ENDBRANCH   7  24
TORSDOF 5
ENDMDL
MODEL 2
REMARK VINA RESULT:      -1.2      2.557      5.447
REMARK  5 active torsions:
REMARK  status: ('A' for Active; 'I' for Inactive)
REMARK    1  A    between atoms: N_6  and  C_1 
REMARK    2  A    between atoms: C_12  and  C_2 
REMARK       I    between atoms: C_9  and  N_6 
REMARK       I    between atoms: C_11  and  N_7 
REMARK    3  A    between atoms: C_8  and  C_9 
REMARK    4  A    between atoms: O_24  and  C_11 
REMARK    5  A    between atoms: C_25  and  O_24 
ROOT
ATOM      1  C   UNL d   1      33.052  19.079 -23.254  0.00  0.00     0.119 A 
ATOM      2  C   UNL d   1      33.138  19.823 -23.603  0.00  0.00     0.084 A 
ATOM      3  C   UNL d   1      33.085  19.991 -22.284  0.00  0.00     0.049 A 
ATOM      4  C   UNL d   1      33.157  20.385 -22.990  0.00  0.00     0.016 A 
ATOM      5  S   UNL d   1      33.018  19.184 -22.429  0.00  0.00    -0.066 SA
ATOM      6  N   UNL d   1      33.162  21.239 -21.583  0.00  0.00    -0.251 N 
ATOM      7  C   UNL d   1      33.165  21.677 -20.874  0.00  0.00     0.378 C 
ATOM      8  C   UNL d   1      33.086  20.423 -21.563  0.00  0.00     0.091 A 
ATOM      9  C   UNL d   1      33.235  21.214 -23.018  0.00  0.00     0.020 A 
ATOM     10  C   UNL d   1      33.235  21.631 -22.305  0.00  0.00     0.085 A 
ATOM     11  O   UNL d   1      33.091  21.285 -20.152  0.00  0.00    -0.237 OA
ENDROOT
BRANCH   1  12
ATOM     12  N   UNL d   1      33.007  18.358 -23.651  0.00  0.00    -0.201 NA
ATOM     13  C   UNL d   1      32.632  17.716 -23.297  0.00  0.00     0.286 C 
ATOM     14  O   UNL d   1      32.299  17.792 -22.541  0.00  0.00    -0.265 OA
BRANCH  13  15
ATOM     15  C   UNL d   1      32.587  16.994 -23.694  0.00  0.00     0.088 A 
ATOM     16  S   UNL d   1      31.953  16.723 -24.169  0.00  0.00    -0.071 SA
ATOM     17  C   UNL d   1      32.155  15.967 -24.453  0.00  0.00     0.087 A 
ATOM     18 CL   UNL d   1      31.680  15.485 -24.953  0.00  0.00    -0.075 Cl
ATOM     19  C   UNL d   1      32.902  15.776 -24.158  0.00  0.00     0.019 A 
ATOM     20  C   UNL d   1      33.160  16.414 -23.692  0.00  0.00     0.013 A 
ENDBRANCH  13  15
ENDBRANCH   1  12
BRANCH   2  21
ATOM     21  C   UNL d   1      33.194  19.976 -24.409  0.00  0.00     0.299 C 
ATOM     22  O   UNL d   1      33.241  19.358 -24.940  0.00  0.00    -0.264 OA
ATOM     23  N   UNL d   1      33.203  20.757 -24.680  0.00  0.00    -0.102 N 
ENDBRANCH   2  21
BRANCH   7  24
ATOM     24  O   UNL d   1      33.241  22.497 -20.892  0.00  0.00    -0.257 OA
BRANCH  24  25
ATOM     25  C   UNL d   1      33.056  22.946 -20.225  0.00  0.00     0.128 C 
ATOM     26  C   UNL d   1      32.681  23.673 -20.298  0.00  0.00     0.029 C 
ENDBRANCH  24  25
ENDBRANCH   7  24
TORSDOF 5
ENDMDL
