MODEL 1
REMARK VINA RESULT:      45.9      0.000      0.000
REMARK  3 active torsions:
REMARK  status: ('A' for Active; 'I' for Inactive)
REMARK    1  A    between atoms: N_5  and  C_1 
REMARK    2  A    between atoms: C_2  and  C_6 
REMARK       I    between atoms: C_11  and  N_5 
REMARK    3  A    between atoms: C_9  and  C_11 
ROOT
ATOM      1  C   UNL d   1      46.020 -16.318  43.804  0.00  0.00     0.053 A 
ATOM      2  S   UNL d   1      45.831 -16.994  44.243  0.00  0.00    -0.080 SA
ATOM      3  C   UNL d   1      46.213 -17.639  43.888  0.00  0.00     0.087 A 
ATOM      4  C   UNL d   1      46.514 -16.542  43.184  0.00  0.00     0.009 A 
ATOM      5  C   UNL d   1      46.635 -17.360  43.234  0.00  0.00     0.012 A 
ENDROOT
BRANCH   3   6
ATOM      6  C   UNL d   1      46.177 -18.424  44.146  0.00  0.00     0.287 C 
ATOM      7  N   UNL d   1      46.068 -19.028  43.598  0.00  0.00    -0.182 NA
ATOM      8  O   UNL d   1      46.249 -18.599  44.951  0.00  0.00    -0.265 OA
BRANCH   7   9
ATOM      9  C   UNL d   1      45.995 -18.852  42.789  0.00  0.00     0.197 A 
ATOM     10  N   UNL d   1      45.291 -18.682  42.393  0.00  0.00    -0.221 NA
ATOM     11  C   UNL d   1      45.477 -18.543  41.607  0.00  0.00     0.090 A 
ATOM     12  C   UNL d   1      45.005 -18.351  40.965  0.00  0.00     0.020 A 
ATOM     13  C   UNL d   1      46.289 -18.629  41.529  0.00  0.00     0.050 A 
ATOM     14  C   UNL d   1      45.354 -18.245  40.234  0.00  0.00     0.002 A 
ATOM     15  C   UNL d   1      46.162 -18.326  40.136  0.00  0.00     0.001 A 
ATOM     16  C   UNL d   1      46.646 -18.519  40.776  0.00  0.00     0.008 A 
ATOM     17  C   UNL d   1      46.509 -18.217  39.394  0.00  0.00     0.000 C 
ATOM     18  S   UNL d   1      46.612 -18.820  42.253  0.00  0.00    -0.047 SA
ENDBRANCH   7   9
ENDBRANCH   3   6
BRANCH   1  19
ATOM     19  C   UNL d   1      45.757 -15.550  43.962  0.00  0.00     0.117 A 
ATOM     20  N   UNL d   1      46.148 -14.856  43.747  0.00  0.00    -0.238 NA
ATOM     21  C   UNL d   1      45.689 -14.219  44.015  0.00  0.00     0.088 A 
ATOM     22  C   UNL d   1      45.796 -13.404  43.963  0.00  0.00     0.020 A 
ATOM     23  C   UNL d   1      45.020 -14.526  44.393  0.00  0.00     0.049 A 
ATOM     24  C   UNL d   1      45.236 -12.897  44.287  0.00  0.00     0.002 A 
ATOM     25  C   UNL d   1      44.567 -13.204  44.665  0.00  0.00     0.001 A 
ATOM     26  C   UNL d   1      44.459 -14.017  44.717  0.00  0.00     0.008 A 
ATOM     27  S   UNL d   1      45.065 -15.352  44.358  0.00  0.00    -0.066 SA
ENDBRANCH   1  19
TORSDOF 3
ENDMDL
