MODEL 1
REMARK VINA RESULT:      25.5      0.000      0.000
REMARK  7 active torsions:
REMARK  status: ('A' for Active; 'I' for Inactive)
REMARK    1  A    between atoms: S_9  and  C_2 
REMARK    2  A    between atoms: C_6  and  C_8 
REMARK       I    between atoms: N_7  and  C_6 
REMARK    3  A    between atoms: C_11  and  N_7 
REMARK    4  A    between atoms: C_8  and  C_12 
REMARK    5  A    between atoms: C_12  and  S_9 
REMARK    6  A    between atoms: O_18  and  C_13 
REMARK    7  A    between atoms: C_20  and  O_18 
ROOT
ATOM      1  C   UNL d   1     -57.133 -98.818 -45.155  0.00  0.00     0.280 C 
ATOM      2  N   UNL d   1     -57.956 -98.832 -45.209  0.00  0.00    -0.208 NA
ATOM      3  O   UNL d   1     -56.673 -98.836 -45.844  0.00  0.00    -0.265 OA
ENDROOT
BRANCH   1   4
ATOM      4  C   UNL d   1     -56.767 -98.787 -44.415  0.00  0.00     0.070 C 
BRANCH   4   5
ATOM      5  C   UNL d   1     -55.979 -99.018 -44.333  0.00  0.00     0.042 C 
BRANCH   5   6
ATOM      6  S   UNL d   1     -55.684 -99.664 -44.772  0.00  0.00    -0.059 SA
BRANCH   6   7
ATOM      7  C   UNL d   1     -55.405-100.335 -44.382  0.00  0.00     0.164 A 
ATOM      8  S   UNL d   1     -55.516-101.141 -44.518  0.00  0.00    -0.039 SA
ATOM      9  C   UNL d   1     -55.101-101.559 -43.947  0.00  0.00     0.134 A 
ATOM     10  N   UNL d   1     -54.724-101.017 -43.447  0.00  0.00    -0.140 NA
ATOM     11  C   UNL d   1     -55.063-102.390 -43.881  0.00  0.00     0.030 C 
ATOM     12  N   UNL d   1     -54.917-100.255 -43.722  0.00  0.00    -0.134 NA
ENDBRANCH   6   7
ENDBRANCH   5   6
ENDBRANCH   4   5
ENDBRANCH   1   4
BRANCH   2  13
ATOM     13  C   UNL d   1     -58.425 -98.814 -44.516  0.00  0.00     0.085 A 
ATOM     14  C   UNL d   1     -59.248 -98.796 -44.580  0.00  0.00     0.021 A 
ATOM     15  C   UNL d   1     -59.715 -98.778 -43.901  0.00  0.00     0.026 A 
ATOM     16  C   UNL d   1     -59.357 -98.778 -43.156  0.00  0.00     0.100 A 
ATOM     17  C   UNL d   1     -58.534 -98.796 -43.093  0.00  0.00     0.026 A 
ATOM     18  C   UNL d   1     -58.066 -98.814 -43.774  0.00  0.00     0.021 A 
BRANCH  16  19
ATOM     19  O   UNL d   1     -59.837 -98.760 -42.465  0.00  0.00    -0.305 OA
BRANCH  19  20
ATOM     20  C   UNL d   1     -59.543 -99.046 -41.747  0.00  0.00     0.123 C 
ATOM     21  C   UNL d   1     -59.958 -98.904 -41.048  0.00  0.00     0.029 C 
ENDBRANCH  19  20
ENDBRANCH  16  19
ENDBRANCH   2  13
TORSDOF 7
ENDMDL
