MODEL 1
REMARK VINA RESULT:      18.8      0.000      0.000
REMARK  3 active torsions:
REMARK  status: ('A' for Active; 'I' for Inactive)
REMARK    1  A    between atoms: C_8  and  C_6 
REMARK    2  A    between atoms: C_9  and  C_8 
REMARK       I    between atoms: N_10  and  C_9 
REMARK    3  A    between atoms: C_14  and  N_10 
ROOT
ATOM      1  N   UNL d   1      46.066 -17.798  42.724  0.00  0.00    -0.207 NA
ATOM      2  N   UNL d   1      46.144 -17.880  44.397  0.00  0.00    -0.240 NA
ATOM      3  C   UNL d   1      45.967 -17.235  43.305  0.00  0.00     0.297 A 
ATOM      4  C   UNL d   1      46.240 -18.605  42.799  0.00  0.00     0.086 A 
ATOM      5  C   UNL d   1      46.304 -18.666  44.226  0.00  0.00     0.083 A 
ATOM      6  C   UNL d   1      45.994 -17.267  43.870  0.00  0.00     0.144 A 
ATOM      7  C   UNL d   1      46.357 -19.037  43.492  0.00  0.00     0.035 A 
ATOM      8  O   UNL d   1      45.796 -16.477  43.030  0.00  0.00    -0.264 OA
ATOM      9  C   UNL d   1      46.527 -19.844  43.450  0.00  0.00     0.003 A 
ATOM     10  C   UNL d   1      46.420 -19.093  44.919  0.00  0.00     0.019 A 
ATOM     11  C   UNL d   1      46.294 -18.985  42.060  0.00  0.00     0.019 A 
ATOM     12  C   UNL d   1      46.592 -19.909  44.878  0.00  0.00     0.002 A 
ATOM     13  C   UNL d   1      46.464 -19.792  42.023  0.00  0.00     0.002 A 
ATOM     14  C   UNL d   1      46.645 -20.284  44.143  0.00  0.00     0.000 A 
ATOM     15  C   UNL d   1      46.579 -20.219  42.712  0.00  0.00     0.000 A 
ENDROOT
BRANCH   6  16
ATOM     16  C   UNL d   1      45.854 -16.543  44.238  0.00  0.00     0.086 C 
BRANCH  16  17
ATOM     17  C   UNL d   1      45.180 -16.455  44.709  0.00  0.00     0.281 C 
ATOM     18  N   UNL d   1      44.953 -15.701  44.955  0.00  0.00    -0.208 NA
ATOM     19  O   UNL d   1      44.732 -17.114  44.936  0.00  0.00    -0.265 OA
BRANCH  18  20
ATOM     20  C   UNL d   1      45.391 -15.034  44.736  0.00  0.00     0.085 A 
ATOM     21  C   UNL d   1      46.175 -14.962  44.953  0.00  0.00     0.019 A 
ATOM     22  C   UNL d   1      46.606 -14.300  44.733  0.00  0.00     0.002 A 
ATOM     23  C   UNL d   1      46.248 -13.698  44.290  0.00  0.00     0.000 A 
ATOM     24  C   UNL d   1      45.448 -13.778  44.072  0.00  0.00     0.002 A 
ATOM     25  C   UNL d   1      45.028 -14.444  44.297  0.00  0.00     0.019 A 
ENDBRANCH  18  20
ENDBRANCH  16  17
ENDBRANCH   6  16
TORSDOF 3
ENDMDL
