MODEL 1
REMARK VINA RESULT:      10.0      0.000      0.000
REMARK  4 active torsions:
REMARK  status: ('A' for Active; 'I' for Inactive)
REMARK    1  A    between atoms: C_2  and  C_1 
REMARK    2  A    between atoms: C_3  and  C_1 
REMARK       I    between atoms: N_6  and  C_2 
REMARK    3  A    between atoms: C_13  and  C_3 
REMARK    4  A    between atoms: C_8  and  N_6 
ROOT
ATOM      1  C   UNL d   1      45.999 -16.618  44.278  0.00  0.00     0.282 C 
ATOM      2  N   UNL d   1      45.510 -16.091  44.745  0.00  0.00    -0.208 NA
ATOM      3  O   UNL d   1      46.536 -16.312  43.729  0.00  0.00    -0.265 OA
ENDROOT
BRANCH   1   4
ATOM      4  C   UNL d   1      45.928 -17.426  44.380  0.00  0.00     0.104 C 
BRANCH   4   5
ATOM      5  C   UNL d   1      46.265 -17.938  43.819  0.00  0.00     0.200 C 
ATOM      6  O   UNL d   1      46.524 -17.647  43.089  0.00  0.00    -0.286 OA
BRANCH   5   7
ATOM      7  C   UNL d   1      46.338 -18.735  43.998  0.00  0.00     0.039 A 
ATOM      8  C   UNL d   1      46.212 -19.303  43.412  0.00  0.00     0.003 A 
ATOM      9  C   UNL d   1      46.288 -20.105  43.602  0.00  0.00     0.000 A 
ATOM     10  C   UNL d   1      46.486 -20.330  44.364  0.00  0.00     0.000 A 
ATOM     11  C   UNL d   1      46.613 -19.753  44.953  0.00  0.00     0.000 A 
ATOM     12  C   UNL d   1      46.540 -18.954  44.773  0.00  0.00     0.003 A 
ENDBRANCH   5   7
ENDBRANCH   4   5
ENDBRANCH   1   4
BRANCH   2  13
ATOM     13  C   UNL d   1      45.594 -15.259  44.629  0.00  0.00     0.087 A 
ATOM     14  C   UNL d   1      45.043 -14.848  44.200  0.00  0.00     0.046 A 
ATOM     15  C   UNL d   1      45.123 -14.058  44.089  0.00  0.00     0.124 A 
ATOM     16  O   UNL d   1      44.562 -13.624  43.649  0.00  0.00    -0.301 OA
ATOM     17  C   UNL d   1      45.773 -13.656  44.414  0.00  0.00     0.123 A 
ATOM     18  C   UNL d   1      44.639 -12.825  43.535  0.00  0.00     0.149 A 
ATOM     19  C   UNL d   1      45.290 -12.424  43.861  0.00  0.00     0.149 A 
ATOM     20  O   UNL d   1      45.857 -12.824  44.298  0.00  0.00    -0.301 OA
ATOM     21  C   UNL d   1      46.338 -14.049  44.848  0.00  0.00     0.028 A 
ATOM     22  C   UNL d   1      46.244 -14.858  44.954  0.00  0.00     0.021 A 
ENDBRANCH   2  13
TORSDOF 4
ENDMDL
MODEL 2
REMARK VINA RESULT:      10.4      1.113      5.137
REMARK  4 active torsions:
REMARK  status: ('A' for Active; 'I' for Inactive)
REMARK    1  A    between atoms: C_2  and  C_1 
REMARK    2  A    between atoms: C_3  and  C_1 
REMARK       I    between atoms: N_6  and  C_2 
REMARK    3  A    between atoms: C_13  and  C_3 
REMARK    4  A    between atoms: C_8  and  N_6 
ROOT
ATOM      1  C   UNL d   1      45.844 -16.434  44.642  0.00  0.00     0.282 C 
ATOM      2  N   UNL d   1      46.514 -16.842  44.295  0.00  0.00    -0.208 NA
ATOM      3  O   UNL d   1      45.144 -16.843  44.803  0.00  0.00    -0.265 OA
ENDROOT
BRANCH   1   4
ATOM      4  C   UNL d   1      45.905 -15.637  44.812  0.00  0.00     0.104 C 
BRANCH   4   5
ATOM      5  C   UNL d   1      45.265 -15.135  44.639  0.00  0.00     0.200 C 
ATOM      6  O   UNL d   1      44.497 -15.436  44.595  0.00  0.00    -0.286 OA
BRANCH   5   7
ATOM      7  C   UNL d   1      45.407 -14.336  44.514  0.00  0.00     0.039 A 
ATOM      8  C   UNL d   1      45.986 -13.946  44.955  0.00  0.00     0.003 A 
ATOM      9  C   UNL d   1      46.122 -13.140  44.822  0.00  0.00     0.000 A 
ATOM     10  C   UNL d   1      45.685 -12.737  44.258  0.00  0.00     0.000 A 
ATOM     11  C   UNL d   1      45.100 -13.135  43.815  0.00  0.00     0.000 A 
ATOM     12  C   UNL d   1      44.959 -13.935  43.941  0.00  0.00     0.003 A 
ENDBRANCH   5   7
ENDBRANCH   4   5
ENDBRANCH   1   4
BRANCH   2  13
ATOM     13  C   UNL d   1      46.437 -17.665  44.125  0.00  0.00     0.087 A 
ATOM     14  C   UNL d   1      46.462 -17.929  43.360  0.00  0.00     0.046 A 
ATOM     15  C   UNL d   1      46.389 -18.712  43.198  0.00  0.00     0.124 A 
ATOM     16  O   UNL d   1      46.414 -18.996  42.415  0.00  0.00    -0.301 OA
ATOM     17  C   UNL d   1      46.285 -19.256  43.818  0.00  0.00     0.123 A 
ATOM     18  C   UNL d   1      46.340 -19.785  42.247  0.00  0.00     0.149 A 
ATOM     19  C   UNL d   1      46.236 -20.329  42.867  0.00  0.00     0.149 A 
ATOM     20  O   UNL d   1      46.208 -20.079  43.648  0.00  0.00    -0.301 OA
ATOM     21  C   UNL d   1      46.256 -19.012  44.593  0.00  0.00     0.028 A 
ATOM     22  C   UNL d   1      46.333 -18.209  44.745  0.00  0.00     0.021 A 
ENDBRANCH   2  13
TORSDOF 4
ENDMDL
