MODEL 1
REMARK VINA RESULT:      17.5      0.000      0.000
REMARK  6 active torsions:
REMARK  status: ('A' for Active; 'I' for Inactive)
REMARK    1  A    between atoms: S_10  and  C_6 
REMARK    2  A    between atoms: C_14  and  S_10 
REMARK    3  A    between atoms: C_11  and  C_14 
REMARK       I    between atoms: N_15  and  C_11 
REMARK    4  A    between atoms: C_20  and  N_15 
REMARK    5  A    between atoms: C_18  and  C_20 
REMARK    6  A    between atoms: C_21  and  C_18 
ROOT
ATOM      1  C   UNL d   1      13.357  13.438  -3.513  0.00  0.00     0.187 A 
ATOM      2  C   UNL d   1      13.200  13.021  -4.206  0.00  0.00     0.081 A 
ATOM      3  N   UNL d   1      13.504  13.021  -2.811  0.00  0.00    -0.197 NA
ATOM      4  N   UNL d   1      13.334  11.779  -3.513  0.00  0.00    -0.200 NA
ATOM      5  C   UNL d   1      13.188  12.196  -4.208  0.00  0.00     0.189 A 
ATOM      6  C   UNL d   1      13.493  12.188  -2.810  0.00  0.00     0.198 A 
ATOM      7  C   UNL d   1      13.077  13.572  -4.806  0.00  0.00     0.029 A 
ATOM      8  O   UNL d   1      13.331  14.239  -3.680  0.00  0.00    -0.289 OA
ATOM      9  C   UNL d   1      13.157  14.332  -4.484  0.00  0.00     0.102 A 
ATOM     10  N   UNL d   1      13.030  11.790  -4.909  0.00  0.00    -0.127 N 
ATOM     11  C   UNL d   1      12.901  13.397  -5.600  0.00  0.00     0.002 C 
ATOM     12  C   UNL d   1      13.077  15.043  -4.895  0.00  0.00     0.027 C 
ENDROOT
BRANCH   6  13
ATOM     13  S   UNL d   1      13.640  11.780  -2.111  0.00  0.00    -0.043 SA
BRANCH  13  14
ATOM     14  C   UNL d   1      14.382  11.813  -1.755  0.00  0.00     0.101 C 
BRANCH  14  15
ATOM     15  C   UNL d   1      14.462  12.132  -1.004  0.00  0.00     0.286 C 
ATOM     16  O   UNL d   1      14.006  11.841  -0.377  0.00  0.00    -0.265 OA
ATOM     17  N   UNL d   1      14.997  12.742  -0.870  0.00  0.00    -0.206 NA
BRANCH  17  18
ATOM     18  C   UNL d   1      15.077  13.063  -0.110  0.00  0.00     0.106 C 
BRANCH  18  19
ATOM     19  C   UNL d   1      15.469  13.770  -0.014  0.00  0.00     0.066 C 
BRANCH  19  20
ATOM     20  C   UNL d   1      15.063  14.482  -0.131  0.00  0.00     0.236 C 
ATOM     21  O   UNL d   1      15.444  15.193  -0.017  0.00  0.00    -0.283 OA
ENDBRANCH  19  20
ENDBRANCH  18  19
ENDBRANCH  17  18
ENDBRANCH  14  15
ENDBRANCH  13  14
ENDBRANCH   6  13
TORSDOF 6
ENDMDL
