MODEL 1
REMARK VINA RESULT:      -3.3      0.000      0.000
REMARK  1 active torsions:
REMARK  status: ('A' for Active; 'I' for Inactive)
REMARK    1  A    between atoms: C_8  and  C_4 
ROOT
ATOM      1  N   UNL d   1      30.288  17.623 -24.731  0.00  0.00    -0.211 NA
ATOM      2  C   UNL d   1      29.509  17.370 -24.630  0.00  0.00     0.140 A 
ATOM      3  C   UNL d   1      29.331  16.733 -24.129  0.00  0.00     0.051 A 
ATOM      4  C   UNL d   1      30.902  17.237 -24.327  0.00  0.00     0.183 A 
ATOM      5  C   UNL d   1      29.955  16.340 -23.718  0.00  0.00     0.104 A 
ATOM      6  O   UNL d   1      30.734  16.598 -23.824  0.00  0.00    -0.289 OA
ATOM      7  S   UNL d   1      28.896  17.757 -25.035  0.00  0.00    -0.057 SA
ATOM      8  C   UNL d   1      28.556  16.474 -24.023  0.00  0.00     0.004 A 
ATOM      9  C   UNL d   1      29.786  15.712 -23.223  0.00  0.00     0.025 A 
ATOM     10  C   UNL d   1      28.386  15.840 -23.523  0.00  0.00     0.000 A 
ATOM     11  C   UNL d   1      29.001  15.453 -23.119  0.00  0.00     0.002 A 
ENDROOT
BRANCH   4  12
ATOM     12  C   UNL d   1      31.691  17.488 -24.425  0.00  0.00     0.041 A 
ATOM     13  C   UNL d   1      32.165  17.143 -25.002  0.00  0.00     0.004 A 
ATOM     14  C   UNL d   1      32.937  17.391 -25.097  0.00  0.00     0.000 A 
ATOM     15  C   UNL d   1      33.241  17.986 -24.615  0.00  0.00     0.000 A 
ATOM     16  C   UNL d   1      32.767  18.327 -24.043  0.00  0.00     0.000 A 
ATOM     17  C   UNL d   1      31.978  18.075 -23.945  0.00  0.00     0.004 A 
ENDBRANCH   4  12
TORSDOF 1
ENDMDL
MODEL 2
REMARK VINA RESULT:      -3.1      1.523      3.723
REMARK  1 active torsions:
REMARK  status: ('A' for Active; 'I' for Inactive)
REMARK    1  A    between atoms: C_8  and  C_4 
ROOT
ATOM      1  N   UNL d   1      31.326  15.719 -23.622  0.00  0.00    -0.211 NA
ATOM      2  C   UNL d   1      32.105  15.987 -23.580  0.00  0.00     0.140 A 
ATOM      3  C   UNL d   1      32.289  16.782 -23.731  0.00  0.00     0.051 A 
ATOM      4  C   UNL d   1      30.718  16.249 -23.818  0.00  0.00     0.183 A 
ATOM      5  C   UNL d   1      31.671  17.321 -23.930  0.00  0.00     0.104 A 
ATOM      6  O   UNL d   1      30.892  17.046 -23.971  0.00  0.00    -0.289 OA
ATOM      7  S   UNL d   1      32.713  15.456 -23.384  0.00  0.00    -0.057 SA
ATOM      8  C   UNL d   1      33.065  17.059 -23.691  0.00  0.00     0.004 A 
ATOM      9  C   UNL d   1      31.846  18.106 -24.080  0.00  0.00     0.025 A 
ATOM     10  C   UNL d   1      33.240  17.850 -23.843  0.00  0.00     0.000 A 
ATOM     11  C   UNL d   1      32.632  18.381 -24.039  0.00  0.00     0.002 A 
ENDROOT
BRANCH   4  12
ATOM     12  C   UNL d   1      29.929  15.983 -23.861  0.00  0.00     0.041 A 
ATOM     13  C   UNL d   1      29.585  15.833 -24.593  0.00  0.00     0.004 A 
ATOM     14  C   UNL d   1      28.811  15.572 -24.634  0.00  0.00     0.000 A 
ATOM     15  C   UNL d   1      28.378  15.460 -23.943  0.00  0.00     0.000 A 
ATOM     16  C   UNL d   1      28.723  15.609 -23.218  0.00  0.00     0.000 A 
ATOM     17  C   UNL d   1      29.512  15.876 -23.174  0.00  0.00     0.004 A 
ENDBRANCH   4  12
TORSDOF 1
ENDMDL
MODEL 3
REMARK VINA RESULT:      -2.8      6.707      7.930
REMARK  1 active torsions:
REMARK  status: ('A' for Active; 'I' for Inactive)
REMARK    1  A    between atoms: C_8  and  C_4 
ROOT
ATOM      1  N   UNL d   1      32.368  23.379 -19.960  0.00  0.00    -0.211 NA
ATOM      2  C   UNL d   1      32.396  23.100 -20.736  0.00  0.00     0.140 A 
ATOM      3  C   UNL d   1      32.636  22.323 -20.900  0.00  0.00     0.051 A 
ATOM      4  C   UNL d   1      32.583  22.878 -19.335  0.00  0.00     0.183 A 
ATOM      5  C   UNL d   1      32.854  21.812 -20.264  0.00  0.00     0.104 A 
ATOM      6  O   UNL d   1      32.825  22.099 -19.488  0.00  0.00    -0.289 OA
ATOM      7  S   UNL d   1      32.181  23.602 -21.362  0.00  0.00    -0.057 SA
ATOM      8  C   UNL d   1      32.666  22.035 -21.672  0.00  0.00     0.004 A 
ATOM      9  C   UNL d   1      33.091  21.045 -20.418  0.00  0.00     0.025 A 
ATOM     10  C   UNL d   1      32.905  21.262 -21.826  0.00  0.00     0.000 A 
ATOM     11  C   UNL d   1      33.120  20.759 -21.200  0.00  0.00     0.002 A 
ENDROOT
BRANCH   4  12
ATOM     12  C   UNL d   1      32.557  23.155 -18.548  0.00  0.00     0.041 A 
ATOM     13  C   UNL d   1      31.849  23.425 -18.230  0.00  0.00     0.004 A 
ATOM     14  C   UNL d   1      31.826  23.697 -17.460  0.00  0.00     0.000 A 
ATOM     15  C   UNL d   1      32.511  23.700 -17.003  0.00  0.00     0.000 A 
ATOM     16  C   UNL d   1      33.213  23.431 -17.323  0.00  0.00     0.000 A 
ATOM     17  C   UNL d   1      33.239  23.153 -18.109  0.00  0.00     0.004 A 
ENDBRANCH   4  12
TORSDOF 1
ENDMDL
MODEL 4
REMARK VINA RESULT:      -2.7      1.247      3.503
REMARK  1 active torsions:
REMARK  status: ('A' for Active; 'I' for Inactive)
REMARK    1  A    between atoms: C_8  and  C_4 
ROOT
ATOM      1  N   UNL d   1      30.471  17.100 -24.399  0.00  0.00    -0.211 NA
ATOM      2  C   UNL d   1      31.246  17.384 -24.429  0.00  0.00     0.140 A 
ATOM      3  C   UNL d   1      31.860  16.985 -24.038  0.00  0.00     0.051 A 
ATOM      4  C   UNL d   1      30.304  16.407 -23.973  0.00  0.00     0.183 A 
ATOM      5  C   UNL d   1      31.689  16.281 -23.605  0.00  0.00     0.104 A 
ATOM      6  O   UNL d   1      30.911  16.001 -23.579  0.00  0.00    -0.289 OA
ATOM      7  S   UNL d   1      31.414  18.076 -24.854  0.00  0.00    -0.057 SA
ATOM      8  C   UNL d   1      32.636  17.261 -24.063  0.00  0.00     0.004 A 
ATOM      9  C   UNL d   1      32.290  15.883 -23.218  0.00  0.00     0.025 A 
ATOM     10  C   UNL d   1      33.241  16.860 -23.672  0.00  0.00     0.000 A 
ATOM     11  C   UNL d   1      33.073  16.166 -23.246  0.00  0.00     0.002 A 
ENDROOT
BRANCH   4  12
ATOM     12  C   UNL d   1      29.523  16.116 -23.940  0.00  0.00     0.041 A 
ATOM     13  C   UNL d   1      29.080  16.202 -23.252  0.00  0.00     0.004 A 
ATOM     14  C   UNL d   1      28.315  15.917 -23.221  0.00  0.00     0.000 A 
ATOM     15  C   UNL d   1      27.988  15.543 -23.879  0.00  0.00     0.000 A 
ATOM     16  C   UNL d   1      28.431  15.459 -24.560  0.00  0.00     0.000 A 
ATOM     17  C   UNL d   1      29.212  15.750 -24.593  0.00  0.00     0.004 A 
ENDBRANCH   4  12
TORSDOF 1
ENDMDL
MODEL 5
REMARK VINA RESULT:      -2.6      2.351      4.044
REMARK  1 active torsions:
REMARK  status: ('A' for Active; 'I' for Inactive)
REMARK    1  A    between atoms: C_8  and  C_4 
ROOT
ATOM      1  N   UNL d   1      32.908  18.540 -24.266  0.00  0.00    -0.211 NA
ATOM      2  C   UNL d   1      33.074  19.340 -24.150  0.00  0.00     0.140 A 
ATOM      3  C   UNL d   1      33.076  19.666 -23.387  0.00  0.00     0.051 A 
ATOM      4  C   UNL d   1      32.740  18.055 -23.613  0.00  0.00     0.183 A 
ATOM      5  C   UNL d   1      32.906  19.174 -22.723  0.00  0.00     0.104 A 
ATOM      6  O   UNL d   1      32.740  18.372 -22.847  0.00  0.00    -0.289 OA
ATOM      7  S   UNL d   1      33.241  19.824 -24.803  0.00  0.00    -0.057 SA
ATOM      8  C   UNL d   1      33.241  20.464 -23.261  0.00  0.00     0.004 A 
ATOM      9  C   UNL d   1      32.906  19.489 -21.969  0.00  0.00     0.025 A 
ATOM     10  C   UNL d   1      33.241  20.781 -22.501  0.00  0.00     0.000 A 
ATOM     11  C   UNL d   1      33.073  20.296 -21.847  0.00  0.00     0.002 A 
ENDROOT
BRANCH   4  12
ATOM     12  C   UNL d   1      32.572  17.246 -23.726  0.00  0.00     0.041 A 
ATOM     13  C   UNL d   1      33.182  16.695 -23.732  0.00  0.00     0.004 A 
ATOM     14  C   UNL d   1      33.015  15.903 -23.842  0.00  0.00     0.000 A 
ATOM     15  C   UNL d   1      32.236  15.657 -23.947  0.00  0.00     0.000 A 
ATOM     16  C   UNL d   1      31.632  16.207 -23.940  0.00  0.00     0.000 A 
ATOM     17  C   UNL d   1      31.801  17.016 -23.828  0.00  0.00     0.004 A 
ENDBRANCH   4  12
TORSDOF 1
ENDMDL
MODEL 6
REMARK VINA RESULT:      -2.6      5.282      6.681
REMARK  1 active torsions:
REMARK  status: ('A' for Active; 'I' for Inactive)
REMARK    1  A    between atoms: C_8  and  C_4 
ROOT
ATOM      1  N   UNL d   1      32.483  22.199 -21.684  0.00  0.00    -0.211 NA
ATOM      2  C   UNL d   1      32.355  22.895 -21.259  0.00  0.00     0.140 A 
ATOM      3  C   UNL d   1      32.589  22.957 -20.465  0.00  0.00     0.051 A 
ATOM      4  C   UNL d   1      32.850  21.554 -21.314  0.00  0.00     0.183 A 
ATOM      5  C   UNL d   1      32.962  22.301 -20.089  0.00  0.00     0.104 A 
ATOM      6  O   UNL d   1      33.088  21.606 -20.520  0.00  0.00    -0.289 OA
ATOM      7  S   UNL d   1      31.987  23.541 -21.628  0.00  0.00    -0.057 SA
ATOM      8  C   UNL d   1      32.465  23.648 -20.032  0.00  0.00     0.004 A 
ATOM      9  C   UNL d   1      33.195  22.355 -19.307  0.00  0.00     0.025 A 
ATOM     10  C   UNL d   1      32.700  23.702 -19.245  0.00  0.00     0.000 A 
ATOM     11  C   UNL d   1      33.068  23.056 -18.874  0.00  0.00     0.002 A 
ENDROOT
BRANCH   4  12
ATOM     12  C   UNL d   1      32.982  20.848 -21.739  0.00  0.00     0.041 A 
ATOM     13  C   UNL d   1      33.077  20.137 -21.338  0.00  0.00     0.004 A 
ATOM     14  C   UNL d   1      33.206  19.447 -21.756  0.00  0.00     0.000 A 
ATOM     15  C   UNL d   1      33.241  19.464 -22.579  0.00  0.00     0.000 A 
ATOM     16  C   UNL d   1      33.146  20.173 -22.974  0.00  0.00     0.000 A 
ATOM     17  C   UNL d   1      33.014  20.879 -22.549  0.00  0.00     0.004 A 
ENDBRANCH   4  12
TORSDOF 1
ENDMDL
MODEL 7
REMARK VINA RESULT:      -2.4      2.897      4.114
REMARK  1 active torsions:
REMARK  status: ('A' for Active; 'I' for Inactive)
REMARK    1  A    between atoms: C_8  and  C_4 
ROOT
ATOM      1  N   UNL d   1      33.108  19.801 -23.465  0.00  0.00    -0.211 NA
ATOM      2  C   UNL d   1      33.092  19.283 -24.108  0.00  0.00     0.140 A 
ATOM      3  C   UNL d   1      32.930  18.477 -23.999  0.00  0.00     0.051 A 
ATOM      4  C   UNL d   1      32.959  19.513 -22.701  0.00  0.00     0.183 A 
ATOM      5  C   UNL d   1      32.779  18.184 -23.222  0.00  0.00     0.104 A 
ATOM      6  O   UNL d   1      32.796  18.708 -22.582  0.00  0.00    -0.289 OA
ATOM      7  S   UNL d   1      33.240  19.571 -24.872  0.00  0.00    -0.057 SA
ATOM      8  C   UNL d   1      32.912  17.952 -24.635  0.00  0.00     0.004 A 
ATOM      9  C   UNL d   1      32.618  17.390 -23.108  0.00  0.00     0.025 A 
ATOM     10  C   UNL d   1      32.750  17.152 -24.519  0.00  0.00     0.000 A 
ATOM     11  C   UNL d   1      32.602  16.864 -23.754  0.00  0.00     0.002 A 
ENDROOT
BRANCH   4  12
ATOM     12  C   UNL d   1      32.974  20.033 -22.048  0.00  0.00     0.041 A 
ATOM     13  C   UNL d   1      32.737  20.815 -22.139  0.00  0.00     0.004 A 
ATOM     14  C   UNL d   1      32.752  21.322 -21.499  0.00  0.00     0.000 A 
ATOM     15  C   UNL d   1      33.004  21.050 -20.763  0.00  0.00     0.000 A 
ATOM     16  C   UNL d   1      33.239  20.272 -20.677  0.00  0.00     0.000 A 
ATOM     17  C   UNL d   1      33.225  19.753 -21.330  0.00  0.00     0.004 A 
ENDBRANCH   4  12
TORSDOF 1
ENDMDL
MODEL 8
REMARK VINA RESULT:      -2.3      2.191      2.972
REMARK  1 active torsions:
REMARK  status: ('A' for Active; 'I' for Inactive)
REMARK    1  A    between atoms: C_8  and  C_4 
ROOT
ATOM      1  N   UNL d   1      31.994  18.300 -23.916  0.00  0.00    -0.211 NA
ATOM      2  C   UNL d   1      31.782  17.573 -24.246  0.00  0.00     0.140 A 
ATOM      3  C   UNL d   1      32.167  16.874 -24.016  0.00  0.00     0.051 A 
ATOM      4  C   UNL d   1      32.597  18.333 -23.348  0.00  0.00     0.183 A 
ATOM      5  C   UNL d   1      32.781  16.909 -23.438  0.00  0.00     0.104 A 
ATOM      6  O   UNL d   1      32.988  17.640 -23.111  0.00  0.00    -0.289 OA
ATOM      7  S   UNL d   1      31.178  17.539 -24.814  0.00  0.00    -0.057 SA
ATOM      8  C   UNL d   1      31.963  16.144 -24.340  0.00  0.00     0.004 A 
ATOM      9  C   UNL d   1      33.164  16.224 -23.207  0.00  0.00     0.025 A 
ATOM     10  C   UNL d   1      32.349  15.455 -24.106  0.00  0.00     0.000 A 
ATOM     11  C   UNL d   1      32.953  15.489 -23.537  0.00  0.00     0.002 A 
ENDROOT
BRANCH   4  12
ATOM     12  C   UNL d   1      32.815  19.065 -23.012  0.00  0.00     0.041 A 
ATOM     13  C   UNL d   1      32.991  19.705 -23.497  0.00  0.00     0.004 A 
ATOM     14  C   UNL d   1      33.203  20.421 -23.166  0.00  0.00     0.000 A 
ATOM     15  C   UNL d   1      33.241  20.501 -22.347  0.00  0.00     0.000 A 
ATOM     16  C   UNL d   1      33.065  19.863 -21.868  0.00  0.00     0.000 A 
ATOM     17  C   UNL d   1      32.848  19.131 -22.204  0.00  0.00     0.004 A 
ENDBRANCH   4  12
TORSDOF 1
ENDMDL
MODEL 9
REMARK VINA RESULT:      -2.2      4.142      5.858
REMARK  1 active torsions:
REMARK  status: ('A' for Active; 'I' for Inactive)
REMARK    1  A    between atoms: C_8  and  C_4 
ROOT
ATOM      1  N   UNL d   1      32.716  20.695 -21.475  0.00  0.00    -0.211 NA
ATOM      2  C   UNL d   1      32.652  21.454 -21.159  0.00  0.00     0.140 A 
ATOM      3  C   UNL d   1      32.825  22.122 -21.621  0.00  0.00     0.051 A 
ATOM      4  C   UNL d   1      32.956  20.596 -22.264  0.00  0.00     0.183 A 
ATOM      5  C   UNL d   1      33.069  22.022 -22.423  0.00  0.00     0.104 A 
ATOM      6  O   UNL d   1      33.131  21.258 -22.733  0.00  0.00    -0.289 OA
ATOM      7  S   UNL d   1      32.413  21.553 -20.371  0.00  0.00    -0.057 SA
ATOM      8  C   UNL d   1      32.764  22.885 -21.314  0.00  0.00     0.004 A 
ATOM      9  C   UNL d   1      33.241  22.676 -22.883  0.00  0.00     0.025 A 
ATOM     10  C   UNL d   1      32.937  23.543 -21.778  0.00  0.00     0.000 A 
ATOM     11  C   UNL d   1      33.178  23.444 -22.567  0.00  0.00     0.002 A 
ENDROOT
BRANCH   4  12
ATOM     12  C   UNL d   1      33.023  19.830 -22.588  0.00  0.00     0.041 A 
ATOM     13  C   UNL d   1      33.176  19.188 -22.098  0.00  0.00     0.004 A 
ATOM     14  C   UNL d   1      33.240  18.438 -22.417  0.00  0.00     0.000 A 
ATOM     15  C   UNL d   1      33.152  18.327 -23.229  0.00  0.00     0.000 A 
ATOM     16  C   UNL d   1      33.000  18.968 -23.712  0.00  0.00     0.000 A 
ATOM     17  C   UNL d   1      32.934  19.734 -23.388  0.00  0.00     0.004 A 
ENDBRANCH   4  12
TORSDOF 1
ENDMDL
