MODEL 1
REMARK VINA RESULT:      61.8      0.000      0.000
REMARK  5 active torsions:
REMARK  status: ('A' for Active; 'I' for Inactive)
REMARK    1  A    between atoms: N_2  and  S_1 
REMARK    2  A    between atoms: C_4  and  S_1 
REMARK    3  A    between atoms: S_8  and  C_3 
REMARK    4  A    between atoms: C_18  and  S_8 
REMARK    5  A    between atoms: C_17  and  C_18 
ROOT
ATOM      1  N   UNL d   1     -49.624  26.695  33.733  0.00  0.00    -0.208 N 
ATOM      2  C   UNL d   1     -49.036  27.092  34.167  0.00  0.00     0.189 A 
ATOM      3  N   UNL d   1     -48.396  26.576  34.266  0.00  0.00    -0.219 NA
ATOM      4  C   UNL d   1     -49.344  25.930  33.564  0.00  0.00     0.114 A 
ATOM      5  C   UNL d   1     -48.590  25.861  33.893  0.00  0.00     0.121 A 
ENDROOT
BRANCH   1   6
ATOM      6  S   UNL d   1     -50.358  27.010  33.511  0.00  0.00     0.273 S 
ATOM      7  O   UNL d   1     -50.958  27.540  33.306  0.00  0.00    -0.200 OA
ATOM      8  O   UNL d   1     -50.008  27.749  33.540  0.00  0.00    -0.200 OA
BRANCH   6   9
ATOM      9  C   UNL d   1     -50.727  26.271  33.477  0.00  0.00     0.104 A 
ATOM     10  C   UNL d   1     -51.547  26.231  33.526  0.00  0.00     0.013 A 
ATOM     11  C   UNL d   1     -51.913  25.491  33.491  0.00  0.00     0.001 A 
ATOM     12  C   UNL d   1     -52.736  25.447  33.540  0.00  0.00     0.000 A 
ATOM     13  C   UNL d   1     -51.464  24.805  33.409  0.00  0.00     0.000 A 
ATOM     14  C   UNL d   1     -53.112  24.714  33.506  0.00  0.00     0.000 A 
ATOM     15  C   UNL d   1     -52.661  24.022  33.424  0.00  0.00     0.000 A 
ATOM     16  C   UNL d   1     -51.843  24.069  33.375  0.00  0.00     0.000 A 
ATOM     17  C   UNL d   1     -50.642  24.848  33.360  0.00  0.00     0.001 A 
ATOM     18  C   UNL d   1     -50.269  25.595  33.395  0.00  0.00     0.013 A 
ENDBRANCH   6   9
ENDBRANCH   1   6
BRANCH   2  19
ATOM     19  S   UNL d   1     -49.084  27.871  34.452  0.00  0.00    -0.049 SA
BRANCH  19  20
ATOM     20  C   UNL d   1     -48.624  28.100  35.098  0.00  0.00     0.040 C 
BRANCH  20  21
ATOM     21  C   UNL d   1     -48.304  28.858  35.123  0.00  0.00     0.026 A 
ATOM     22  C   UNL d   1     -47.931  29.132  35.824  0.00  0.00     0.099 A 
ATOM     23  N   UNL d   1     -47.607  29.885  35.866  0.00  0.00    -0.242 NA
ATOM     24  C   UNL d   1     -47.655  30.371  35.202  0.00  0.00     0.099 A 
ATOM     25  C   UNL d   1     -48.019  30.109  34.513  0.00  0.00     0.021 A 
ATOM     26  C   UNL d   1     -48.343  29.352  34.475  0.00  0.00     0.004 A 
ENDBRANCH  20  21
ENDBRANCH  19  20
ENDBRANCH   2  19
TORSDOF 5
ENDMDL
