MODEL 1
REMARK VINA RESULT:       1.7      0.000      0.000
REMARK  5 active torsions:
REMARK  status: ('A' for Active; 'I' for Inactive)
REMARK    1  A    between atoms: N_6  and  C_1 
REMARK    2  A    between atoms: S_2  and  C_11 
REMARK    3  A    between atoms: N_8  and  S_2 
REMARK    4  A    between atoms: C_10  and  C_3 
REMARK       I    between atoms: C_9  and  N_6 
REMARK    5  A    between atoms: C_14  and  C_9 
REMARK       I    between atoms: N_22  and  C_10 
ROOT
ATOM      1  C   UNL d   1     -41.951-122.147 -53.189  0.00  0.00     0.104 A 
ATOM      2  C   UNL d   1     -41.991-122.360 -51.547  0.00  0.00     0.058 A 
ATOM      3  C   UNL d   1     -41.788-122.885 -52.867  0.00  0.00     0.013 A 
ATOM      4  C   UNL d   1     -42.137-121.505 -52.690  0.00  0.00     0.013 A 
ATOM      5  C   UNL d   1     -41.807-122.994 -52.046  0.00  0.00     0.005 A 
ATOM      6  C   UNL d   1     -42.156-121.614 -51.872  0.00  0.00     0.005 A 
ENDROOT
BRANCH   2   7
ATOM      7  C   UNL d   1     -42.011-122.469 -50.729  0.00  0.00     0.280 C 
ATOM      8  N   UNL d   1     -42.382-123.322 -50.484  0.00  0.00    -0.201 NA
ATOM      9  O   UNL d   1     -41.759-121.929 -50.395  0.00  0.00    -0.265 OA
BRANCH   8  10
ATOM     10  C   UNL d   1     -42.382-123.380 -49.748  0.00  0.00     0.119 A 
ATOM     11  C   UNL d   1     -42.809-123.377 -49.101  0.00  0.00     0.082 A 
ATOM     12  C   UNL d   1     -42.328-123.487 -48.483  0.00  0.00     0.013 A 
ATOM     13  C   UNL d   1     -42.460-123.532 -47.705  0.00  0.00     0.001 A 
ATOM     14  C   UNL d   1     -41.591-123.558 -48.765  0.00  0.00     0.031 A 
ATOM     15  C   UNL d   1     -41.857-123.648 -47.211  0.00  0.00     0.001 A 
ATOM     16  C   UNL d   1     -41.125-123.718 -47.489  0.00  0.00     0.006 A 
ATOM     17  S   UNL d   1     -41.624-123.492 -49.546  0.00  0.00    -0.068 SA
BRANCH  11  18
ATOM     18  C   UNL d   1     -43.592-123.281 -49.063  0.00  0.00     0.281 C 
ATOM     19  O   UNL d   1     -43.896-122.699 -48.621  0.00  0.00    -0.265 OA
ATOM     20  N   UNL d   1     -44.072-123.764 -49.465  0.00  0.00    -0.205 NA
ATOM     21  C   UNL d   1     -44.890-123.660 -49.423  0.00  0.00     0.123 C 
ENDBRANCH  11  18
ENDBRANCH   8  10
ENDBRANCH   2   7
BRANCH   1  22
ATOM     22  S   UNL d   1     -41.931-122.038 -54.011  0.00  0.00     0.272 S 
ATOM     23  O   UNL d   1     -41.200-122.420 -54.044  0.00  0.00    -0.200 OA
ATOM     24  O   UNL d   1     -42.665-121.654 -53.978  0.00  0.00    -0.200 OA
BRANCH  22  25
ATOM     25  N   UNL d   1     -41.911-121.930 -54.829  0.00  0.00    -0.225 N 
ATOM     26  C   UNL d   1     -42.566-122.122 -55.291  0.00  0.00     0.118 A 
ATOM     27  C   UNL d   1     -42.546-122.012 -56.117  0.00  0.00     0.142 A 
ATOM     28  O   UNL d   1     -41.864-121.708 -56.476  0.00  0.00    -0.300 OA
ATOM     29  C   UNL d   1     -41.216-121.519 -56.015  0.00  0.00     0.142 A 
ATOM     30  C   UNL d   1     -41.236-121.627 -55.197  0.00  0.00     0.118 A 
ENDBRANCH  22  25
ENDBRANCH   1  22
TORSDOF 5
ENDMDL
MODEL 2
REMARK VINA RESULT:       3.0      1.343      5.927
REMARK  5 active torsions:
REMARK  status: ('A' for Active; 'I' for Inactive)
REMARK    1  A    between atoms: N_6  and  C_1 
REMARK    2  A    between atoms: S_2  and  C_11 
REMARK    3  A    between atoms: N_8  and  S_2 
REMARK    4  A    between atoms: C_10  and  C_3 
REMARK       I    between atoms: C_9  and  N_6 
REMARK    5  A    between atoms: C_14  and  C_9 
REMARK       I    between atoms: N_22  and  C_10 
ROOT
ATOM      1  C   UNL d   1     -41.858-123.097 -49.970  0.00  0.00     0.104 A 
ATOM      2  C   UNL d   1     -41.663-123.099 -51.616  0.00  0.00     0.058 A 
ATOM      3  C   UNL d   1     -41.867-122.388 -50.385  0.00  0.00     0.013 A 
ATOM      4  C   UNL d   1     -41.751-123.817 -50.377  0.00  0.00     0.013 A 
ATOM      5  C   UNL d   1     -41.769-122.386 -51.209  0.00  0.00     0.005 A 
ATOM      6  C   UNL d   1     -41.655-123.816 -51.196  0.00  0.00     0.005 A 
ENDROOT
BRANCH   2   7
ATOM      7  C   UNL d   1     -41.567-123.097 -52.435  0.00  0.00     0.280 C 
ATOM      8  N   UNL d   1     -42.105-122.425 -52.864  0.00  0.00    -0.201 NA
ATOM      9  O   UNL d   1     -41.123-123.575 -52.639  0.00  0.00    -0.265 OA
BRANCH   8  10
ATOM     10  C   UNL d   1     -41.991-122.456 -53.592  0.00  0.00     0.119 A 
ATOM     11  C   UNL d   1     -42.066-122.093 -54.273  0.00  0.00     0.082 A 
ATOM     12  C   UNL d   1     -41.772-122.560 -54.840  0.00  0.00     0.013 A 
ATOM     13  C   UNL d   1     -41.705-122.472 -55.623  0.00  0.00     0.001 A 
ATOM     14  C   UNL d   1     -41.514-123.223 -54.492  0.00  0.00     0.031 A 
ATOM     15  C   UNL d   1     -41.381-123.046 -56.056  0.00  0.00     0.001 A 
ATOM     16  C   UNL d   1     -41.125-123.704 -55.711  0.00  0.00     0.006 A 
ATOM     17  S   UNL d   1     -41.649-123.159 -53.722  0.00  0.00    -0.068 SA
BRANCH  11  18
ATOM     18  C   UNL d   1     -42.380-121.378 -54.384  0.00  0.00     0.281 C 
ATOM     19  O   UNL d   1     -43.166-121.296 -54.430  0.00  0.00    -0.265 OA
ATOM     20  N   UNL d   1     -41.914-120.742 -54.449  0.00  0.00    -0.205 NA
ATOM     21  C   UNL d   1     -42.246-119.996 -54.565  0.00  0.00     0.123 C 
ENDBRANCH  11  18
ENDBRANCH   8  10
ENDBRANCH   2   7
BRANCH   1  22
ATOM     22  S   UNL d   1     -41.955-123.098 -49.147  0.00  0.00     0.272 S 
ATOM     23  O   UNL d   1     -42.667-122.689 -49.230  0.00  0.00    -0.200 OA
ATOM     24  O   UNL d   1     -41.240-123.509 -49.063  0.00  0.00    -0.200 OA
BRANCH  22  25
ATOM     25  N   UNL d   1     -42.052-123.099 -48.327  0.00  0.00    -0.225 N 
ATOM     26  C   UNL d   1     -42.749-123.382 -47.990  0.00  0.00     0.118 A 
ATOM     27  C   UNL d   1     -42.846-123.383 -47.162  0.00  0.00     0.142 A 
ATOM     28  O   UNL d   1     -42.239-123.099 -46.676  0.00  0.00    -0.300 OA
ATOM     29  C   UNL d   1     -41.549-122.819 -47.013  0.00  0.00     0.142 A 
ATOM     30  C   UNL d   1     -41.453-122.818 -47.833  0.00  0.00     0.118 A 
ENDBRANCH  22  25
ENDBRANCH   1  22
TORSDOF 5
ENDMDL
