MODEL 1
REMARK VINA RESULT:      -5.9      0.000      0.000
REMARK  4 active torsions:
REMARK  status: ('A' for Active; 'I' for Inactive)
REMARK    1  A    between atoms: S_4  and  C_1 
REMARK    2  A    between atoms: C_7  and  S_4 
REMARK       I    between atoms: C_5  and  N_6 
REMARK    3  A    between atoms: C_12  and  C_5 
REMARK    4  A    between atoms: N_6  and  C_7 
ROOT
ATOM      1  C   UNL d   1     -41.849-122.305 -51.773  0.00  0.00     0.141 C 
ENDROOT
BRANCH   1   2
ATOM      2  N   UNL d   1     -41.736-122.652 -51.018  0.00  0.00    -0.199 NA
ATOM      3  C   UNL d   1     -42.268-122.499 -50.406  0.00  0.00     0.280 C 
ATOM      4  O   UNL d   1     -42.926-121.995 -50.536  0.00  0.00    -0.265 OA
BRANCH   3   5
ATOM      5  C   UNL d   1     -42.149-122.843 -49.670  0.00  0.00     0.058 A 
ATOM      6  C   UNL d   1     -41.378-122.993 -49.396  0.00  0.00     0.005 A 
ATOM      7  C   UNL d   1     -41.250-123.336 -48.663  0.00  0.00     0.000 A 
ATOM      8  C   UNL d   1     -41.897-123.541 -48.179  0.00  0.00     0.000 A 
ATOM      9  C   UNL d   1     -42.675-123.391 -48.452  0.00  0.00     0.000 A 
ATOM     10  C   UNL d   1     -42.794-123.038 -49.206  0.00  0.00     0.005 A 
ENDBRANCH   3   5
ENDBRANCH   1   2
BRANCH   1  11
ATOM     11  S   UNL d   1     -41.239-122.319 -52.347  0.00  0.00    -0.027 SA
BRANCH  11  12
ATOM     12  C   UNL d   1     -41.434-122.431 -53.165  0.00  0.00     0.196 A 
ATOM     13  N   UNL d   1     -41.165-123.109 -53.547  0.00  0.00    -0.221 NA
ATOM     14  C   UNL d   1     -41.352-123.224 -54.345  0.00  0.00     0.085 A 
ATOM     15  C   UNL d   1     -41.123-123.817 -54.699  0.00  0.00     0.021 C 
ATOM     16  C   UNL d   1     -41.814-122.653 -54.760  0.00  0.00     0.038 A 
ATOM     17  C   UNL d   1     -42.072-121.986 -54.364  0.00  0.00     0.085 A 
ATOM     18  N   UNL d   1     -41.895-121.861 -53.580  0.00  0.00    -0.221 NA
ATOM     19  C   UNL d   1     -42.508-121.451 -54.762  0.00  0.00     0.021 C 
ENDBRANCH  11  12
ENDBRANCH   1  11
TORSDOF 4
ENDMDL
MODEL 2
REMARK VINA RESULT:      -5.8      1.135      4.876
REMARK  4 active torsions:
REMARK  status: ('A' for Active; 'I' for Inactive)
REMARK    1  A    between atoms: S_4  and  C_1 
REMARK    2  A    between atoms: C_7  and  S_4 
REMARK       I    between atoms: C_5  and  N_6 
REMARK    3  A    between atoms: C_12  and  C_5 
REMARK    4  A    between atoms: N_6  and  C_7 
ROOT
ATOM      1  C   UNL d   1     -41.439-122.801 -51.814  0.00  0.00     0.141 C 
ENDROOT
BRANCH   1   2
ATOM      2  N   UNL d   1     -41.601-122.477 -52.570  0.00  0.00    -0.199 NA
ATOM      3  C   UNL d   1     -41.466-122.921 -53.252  0.00  0.00     0.280 C 
ATOM      4  O   UNL d   1     -41.165-123.703 -53.192  0.00  0.00    -0.265 OA
BRANCH   3   5
ATOM      5  C   UNL d   1     -41.627-122.595 -53.988  0.00  0.00     0.058 A 
ATOM      6  C   UNL d   1     -42.262-122.066 -54.082  0.00  0.00     0.005 A 
ATOM      7  C   UNL d   1     -42.430-121.736 -54.813  0.00  0.00     0.000 A 
ATOM      8  C   UNL d   1     -41.963-121.927 -55.476  0.00  0.00     0.000 A 
ATOM      9  C   UNL d   1     -41.321-122.460 -55.383  0.00  0.00     0.000 A 
ATOM     10  C   UNL d   1     -41.159-122.792 -54.628  0.00  0.00     0.005 A 
ENDBRANCH   3   5
ENDBRANCH   1   2
BRANCH   1  11
ATOM     11  S   UNL d   1     -41.497-122.330 -51.123  0.00  0.00    -0.027 SA
BRANCH  11  12
ATOM     12  C   UNL d   1     -41.806-122.668 -50.409  0.00  0.00     0.196 A 
ATOM     13  N   UNL d   1     -42.621-122.763 -50.336  0.00  0.00    -0.221 NA
ATOM     14  C   UNL d   1     -42.927-123.091 -49.641  0.00  0.00     0.085 A 
ATOM     15  C   UNL d   1     -43.645-123.183 -49.558  0.00  0.00     0.021 C 
ATOM     16  C   UNL d   1     -42.411-123.326 -49.017  0.00  0.00     0.038 A 
ATOM     17  C   UNL d   1     -41.605-123.224 -49.107  0.00  0.00     0.085 A 
ATOM     18  N   UNL d   1     -41.289-122.902 -49.785  0.00  0.00    -0.221 NA
ATOM     19  C   UNL d   1     -41.123-123.447 -48.514  0.00  0.00     0.021 C 
ENDBRANCH  11  12
ENDBRANCH   1  11
TORSDOF 4
ENDMDL
MODEL 3
REMARK VINA RESULT:      -5.7      1.131      4.806
REMARK  4 active torsions:
REMARK  status: ('A' for Active; 'I' for Inactive)
REMARK    1  A    between atoms: S_4  and  C_1 
REMARK    2  A    between atoms: C_7  and  S_4 
REMARK       I    between atoms: C_5  and  N_6 
REMARK    3  A    between atoms: C_12  and  C_5 
REMARK    4  A    between atoms: N_6  and  C_7 
ROOT
ATOM      1  C   UNL d   1     -41.478-122.751 -51.752  0.00  0.00     0.141 C 
ENDROOT
BRANCH   1   2
ATOM      2  N   UNL d   1     -41.613-122.434 -52.516  0.00  0.00    -0.199 NA
ATOM      3  C   UNL d   1     -41.528-122.910 -53.185  0.00  0.00     0.280 C 
ATOM      4  O   UNL d   1     -41.306-123.715 -53.104  0.00  0.00    -0.265 OA
BRANCH   3   5
ATOM      5  C   UNL d   1     -41.662-122.591 -53.930  0.00  0.00     0.058 A 
ATOM      6  C   UNL d   1     -42.242-122.004 -54.036  0.00  0.00     0.005 A 
ATOM      7  C   UNL d   1     -42.382-121.680 -54.776  0.00  0.00     0.000 A 
ATOM      8  C   UNL d   1     -41.942-121.936 -55.435  0.00  0.00     0.000 A 
ATOM      9  C   UNL d   1     -41.357-122.528 -55.330  0.00  0.00     0.000 A 
ATOM     10  C   UNL d   1     -41.222-122.853 -54.567  0.00  0.00     0.005 A 
ENDBRANCH   3   5
ENDBRANCH   1   2
BRANCH   1  11
ATOM     11  S   UNL d   1     -41.664-122.309 -51.064  0.00  0.00    -0.027 SA
BRANCH  11  12
ATOM     12  C   UNL d   1     -41.916-122.711 -50.361  0.00  0.00     0.196 A 
ATOM     13  N   UNL d   1     -41.360-122.868 -49.774  0.00  0.00    -0.221 NA
ATOM     14  C   UNL d   1     -41.600-123.260 -49.086  0.00  0.00     0.085 A 
ATOM     15  C   UNL d   1     -41.123-123.408 -48.557  0.00  0.00     0.021 C 
ATOM     16  C   UNL d   1     -42.404-123.495 -48.988  0.00  0.00     0.038 A 
ATOM     17  C   UNL d   1     -42.942-123.330 -49.582  0.00  0.00     0.085 A 
ATOM     18  N   UNL d   1     -42.719-122.946 -50.264  0.00  0.00    -0.221 NA
ATOM     19  C   UNL d   1     -43.700-123.555 -49.483  0.00  0.00     0.021 C 
ENDBRANCH  11  12
ENDBRANCH   1  11
TORSDOF 4
ENDMDL
