MODEL 1
REMARK VINA RESULT:      -0.8      0.000      0.000
REMARK  5 active torsions:
REMARK  status: ('A' for Active; 'I' for Inactive)
REMARK    1  A    between atoms: C_8  and  C_1 
REMARK    2  A    between atoms: C_6  and  O_10 
REMARK       I    between atoms: N_7  and  C_6 
REMARK    3  A    between atoms: C_15  and  C_8 
REMARK    4  A    between atoms: O_10  and  C_12 
REMARK    5  A    between atoms: C_27  and  C_18 
ROOT
ATOM      1  C   UNL d   1     -41.312-121.998 -52.716  0.00  0.00     0.139 A 
ATOM      2  C   UNL d   1     -41.541-121.934 -51.394  0.00  0.00     0.064 A 
ATOM      3  C   UNL d   1     -41.325-121.497 -52.060  0.00  0.00     0.220 A 
ATOM      4  C   UNL d   1     -41.664-122.711 -51.631  0.00  0.00     0.105 A 
ATOM      5  O   UNL d   1     -41.523-122.760 -52.453  0.00  0.00    -0.304 OA
ATOM      6  C   UNL d   1     -41.886-123.278 -51.081  0.00  0.00     0.050 A 
ATOM      7  C   UNL d   1     -41.639-121.718 -50.606  0.00  0.00     0.007 A 
ATOM      8  C   UNL d   1     -41.983-123.065 -50.301  0.00  0.00     0.107 A 
ATOM      9  O   UNL d   1     -41.148-120.681 -52.078  0.00  0.00    -0.284 OA
ATOM     10  C   UNL d   1     -41.862-122.290 -50.056  0.00  0.00     0.025 A 
ENDROOT
BRANCH   1  11
ATOM     11  C   UNL d   1     -41.126-121.790 -53.493  0.00  0.00     0.028 C 
BRANCH  11  12
ATOM     12  C   UNL d   1     -41.653-121.962 -54.103  0.00  0.00     0.002 A 
ATOM     13  C   UNL d   1     -42.324-121.500 -54.209  0.00  0.00     0.000 A 
ATOM     14  C   UNL d   1     -42.860-121.664 -54.818  0.00  0.00     0.000 A 
ATOM     15  C   UNL d   1     -42.712-122.304 -55.325  0.00  0.00     0.000 A 
ATOM     16  C   UNL d   1     -42.034-122.770 -55.219  0.00  0.00     0.000 A 
ATOM     17  C   UNL d   1     -41.506-122.596 -54.606  0.00  0.00     0.000 A 
BRANCH  15  18
ATOM     18  C   UNL d   1     -43.242-122.474 -55.937  0.00  0.00     0.000 C 
ATOM     19  C   UNL d   1     -43.287-121.983 -56.594  0.00  0.00     0.000 C 
ENDBRANCH  15  18
ENDBRANCH  11  12
ENDBRANCH   1  11
BRANCH   8  20
ATOM     20  O   UNL d   1     -42.207-123.635 -49.743  0.00  0.00    -0.259 OA
BRANCH  20  21
ATOM     21  C   UNL d   1     -41.927-123.594 -48.961  0.00  0.00     0.378 C 
ATOM     22  N   UNL d   1     -42.449-123.653 -48.331  0.00  0.00    -0.247 N 
ATOM     23  C   UNL d   1     -43.266-123.755 -48.472  0.00  0.00     0.112 A 
ATOM     24  C   UNL d   1     -42.181-123.614 -47.559  0.00  0.00     0.112 A 
ATOM     25  C   UNL d   1     -43.797-123.815 -47.843  0.00  0.00     0.142 A 
ATOM     26  O   UNL d   1     -43.508-123.773 -47.060  0.00  0.00    -0.300 OA
ATOM     27  C   UNL d   1     -42.704-123.673 -46.921  0.00  0.00     0.142 A 
ATOM     28  O   UNL d   1     -41.123-123.494 -48.822  0.00  0.00    -0.237 OA
ENDBRANCH  20  21
ENDBRANCH   8  20
TORSDOF 5
ENDMDL
MODEL 2
REMARK VINA RESULT:       0.1      1.761      5.884
REMARK  5 active torsions:
REMARK  status: ('A' for Active; 'I' for Inactive)
REMARK    1  A    between atoms: C_8  and  C_1 
REMARK    2  A    between atoms: C_6  and  O_10 
REMARK       I    between atoms: N_7  and  C_6 
REMARK    3  A    between atoms: C_15  and  C_8 
REMARK    4  A    between atoms: O_10  and  C_12 
REMARK    5  A    between atoms: C_27  and  C_18 
ROOT
ATOM      1  C   UNL d   1     -41.153-123.304 -50.386  0.00  0.00     0.139 A 
ATOM      2  C   UNL d   1     -41.190-122.317 -51.297  0.00  0.00     0.064 A 
ATOM      3  C   UNL d   1     -41.154-122.484 -50.490  0.00  0.00     0.220 A 
ATOM      4  C   UNL d   1     -41.212-123.031 -51.703  0.00  0.00     0.105 A 
ATOM      5  O   UNL d   1     -41.189-123.652 -51.143  0.00  0.00    -0.304 OA
ATOM      6  C   UNL d   1     -41.249-123.037 -52.522  0.00  0.00     0.050 A 
ATOM      7  C   UNL d   1     -41.205-121.604 -51.708  0.00  0.00     0.007 A 
ATOM      8  C   UNL d   1     -41.264-122.333 -52.929  0.00  0.00     0.107 A 
ATOM      9  O   UNL d   1     -41.124-121.925 -49.870  0.00  0.00    -0.284 OA
ATOM     10  C   UNL d   1     -41.243-121.614 -52.531  0.00  0.00     0.025 A 
ENDROOT
BRANCH   1  11
ATOM     11  C   UNL d   1     -41.123-123.712 -49.669  0.00  0.00     0.028 C 
BRANCH  11  12
ATOM     12  C   UNL d   1     -41.731-123.626 -49.120  0.00  0.00     0.002 A 
ATOM     13  C   UNL d   1     -41.566-123.350 -48.363  0.00  0.00     0.000 A 
ATOM     14  C   UNL d   1     -42.169-123.260 -47.804  0.00  0.00     0.000 A 
ATOM     15  C   UNL d   1     -42.948-123.452 -48.015  0.00  0.00     0.000 A 
ATOM     16  C   UNL d   1     -43.115-123.731 -48.779  0.00  0.00     0.000 A 
ATOM     17  C   UNL d   1     -42.502-123.817 -49.329  0.00  0.00     0.000 A 
BRANCH  15  18
ATOM     18  C   UNL d   1     -43.556-123.365 -47.462  0.00  0.00     0.000 C 
ATOM     19  C   UNL d   1     -43.444-123.602 -46.683  0.00  0.00     0.000 C 
ENDBRANCH  15  18
ENDBRANCH  11  12
ENDBRANCH   1  11
BRANCH   8  20
ATOM     20  O   UNL d   1     -41.301-122.334 -53.756  0.00  0.00    -0.259 OA
BRANCH  20  21
ATOM     21  C   UNL d   1     -42.016-122.502 -54.148  0.00  0.00     0.378 C 
ATOM     22  N   UNL d   1     -42.145-122.226 -54.909  0.00  0.00    -0.247 N 
ATOM     23  C   UNL d   1     -41.559-121.775 -55.296  0.00  0.00     0.112 A 
ATOM     24  C   UNL d   1     -42.846-122.388 -55.301  0.00  0.00     0.112 A 
ATOM     25  C   UNL d   1     -41.683-121.494 -56.063  0.00  0.00     0.142 A 
ATOM     26  O   UNL d   1     -42.403-121.667 -56.449  0.00  0.00    -0.300 OA
ATOM     27  C   UNL d   1     -42.980-122.111 -56.069  0.00  0.00     0.142 A 
ATOM     28  O   UNL d   1     -42.593-122.947 -53.767  0.00  0.00    -0.237 OA
ENDBRANCH  20  21
ENDBRANCH   8  20
TORSDOF 5
ENDMDL
