MODEL 1
REMARK VINA RESULT:       0.3      0.000      0.000
REMARK  1 active torsions:
REMARK  status: ('A' for Active; 'I' for Inactive)
REMARK    1  A    between atoms: C_2  and  N_1 
ROOT
ATOM      1  C   UNL d   1     -41.458-121.884 -51.717  0.00  0.00     0.169 A 
ATOM      2  C   UNL d   1     -41.470-121.922 -52.521  0.00  0.00     0.060 A 
ATOM      3  C   UNL d   1     -41.365-121.214 -52.975  0.00  0.00     0.115 A 
ATOM      4  S   UNL d   1     -41.401-121.411 -53.766  0.00  0.00    -0.068 SA
ATOM      5  C   UNL d   1     -41.568-122.528 -53.067  0.00  0.00     0.011 A 
ATOM      6  N   UNL d   1     -41.348-121.189 -51.324  0.00  0.00    -0.208 NA
ATOM      7  N   UNL d   1     -41.253-120.512 -52.598  0.00  0.00    -0.220 NA
ATOM      8  C   UNL d   1     -41.525-122.209 -53.833  0.00  0.00     0.031 A 
ATOM      9  C   UNL d   1     -41.238-120.456 -51.755  0.00  0.00     0.165 A 
ATOM     10  C   UNL d   1     -41.693-123.344 -52.970  0.00  0.00     0.001 A 
ATOM     11  C   UNL d   1     -41.605-122.696 -54.488  0.00  0.00     0.006 A 
ATOM     12  C   UNL d   1     -41.123-119.730 -51.371  0.00  0.00     0.042 C 
ATOM     13  C   UNL d   1     -41.771-123.816 -53.642  0.00  0.00     0.000 A 
ATOM     14  C   UNL d   1     -41.728-123.493 -54.421  0.00  0.00     0.001 A 
ENDROOT
BRANCH   1  15
ATOM     15  N   UNL d   1     -41.560-122.570 -51.264  0.00  0.00    -0.193 N 
ATOM     16  N   UNL d   1     -41.124-123.254 -51.352  0.00  0.00    -0.058 NA
ATOM     17  N   UNL d   1     -41.394-123.817 -50.794  0.00  0.00    -0.129 NA
ATOM     18  C   UNL d   1     -42.006-123.467 -50.361  0.00  0.00     0.122 A 
ATOM     19  C   UNL d   1     -42.116-122.711 -50.636  0.00  0.00     0.105 A 
ATOM     20  C   UNL d   1     -42.457-123.754 -49.764  0.00  0.00     0.022 A 
ATOM     21  C   UNL d   1     -42.666-122.224 -50.335  0.00  0.00     0.021 A 
ATOM     22  C   UNL d   1     -43.143-122.499 -49.719  0.00  0.00     0.002 A 
ATOM     23  C   UNL d   1     -43.031-123.275 -49.434  0.00  0.00     0.002 A 
ENDBRANCH   1  15
TORSDOF 1
ENDMDL
MODEL 2
REMARK VINA RESULT:       2.1      1.268      3.162
REMARK  1 active torsions:
REMARK  status: ('A' for Active; 'I' for Inactive)
REMARK    1  A    between atoms: C_2  and  N_1 
ROOT
ATOM      1  C   UNL d   1     -41.408-121.587 -52.518  0.00  0.00     0.169 A 
ATOM      2  C   UNL d   1     -41.462-121.758 -51.733  0.00  0.00     0.060 A 
ATOM      3  C   UNL d   1     -41.403-121.132 -51.163  0.00  0.00     0.115 A 
ATOM      4  S   UNL d   1     -41.476-121.458 -50.419  0.00  0.00    -0.068 SA
ATOM      5  C   UNL d   1     -41.569-122.448 -51.300  0.00  0.00     0.011 A 
ATOM      6  N   UNL d   1     -41.298-120.835 -52.785  0.00  0.00    -0.208 NA
ATOM      7  N   UNL d   1     -41.294-120.375 -51.414  0.00  0.00    -0.220 NA
ATOM      8  C   UNL d   1     -41.578-122.258 -50.491  0.00  0.00     0.031 A 
ATOM      9  C   UNL d   1     -41.235-120.180 -52.234  0.00  0.00     0.165 A 
ATOM     10  C   UNL d   1     -41.663-123.239 -51.536  0.00  0.00     0.001 A 
ATOM     11  C   UNL d   1     -41.678-122.848 -49.930  0.00  0.00     0.006 A 
ATOM     12  C   UNL d   1     -41.123-119.399 -52.486  0.00  0.00     0.042 C 
ATOM     13  C   UNL d   1     -41.762-123.817 -50.956  0.00  0.00     0.000 A 
ATOM     14  C   UNL d   1     -41.771-123.627 -50.134  0.00  0.00     0.001 A 
ENDROOT
BRANCH   1  15
ATOM     15  N   UNL d   1     -41.463-122.191 -53.082  0.00  0.00    -0.193 N 
ATOM     16  N   UNL d   1     -41.130-122.932 -53.004  0.00  0.00    -0.058 NA
ATOM     17  N   UNL d   1     -41.311-123.380 -53.688  0.00  0.00    -0.129 NA
ATOM     18  C   UNL d   1     -41.762-122.900 -54.190  0.00  0.00     0.122 A 
ATOM     19  C   UNL d   1     -41.861-122.178 -53.834  0.00  0.00     0.105 A 
ATOM     20  C   UNL d   1     -42.079-123.048 -54.910  0.00  0.00     0.022 A 
ATOM     21  C   UNL d   1     -42.271-121.589 -54.173  0.00  0.00     0.021 A 
ATOM     22  C   UNL d   1     -42.608-121.718 -54.916  0.00  0.00     0.002 A 
ATOM     23  C   UNL d   1     -42.506-122.460 -55.283  0.00  0.00     0.002 A 
ENDBRANCH   1  15
TORSDOF 1
ENDMDL
