MODEL 1
REMARK VINA RESULT:       2.6      0.000      0.000
REMARK  0 active torsions:
REMARK  status: ('A' for Active; 'I' for Inactive)
ROOT
ATOM      1  C   UNL d   1      23.563  12.622  -1.673  0.00  0.00     0.063 A 
ATOM      2  N   UNL d   1      24.661  11.883  -1.819  0.00  0.00    -0.204 NA
ATOM      3  C   UNL d   1      24.147  12.218  -1.266  0.00  0.00     0.099 A 
ATOM      4  C   UNL d   1      24.394  12.080  -2.542  0.00  0.00     0.318 A 
ATOM      5  C   UNL d   1      23.712  12.540  -2.482  0.00  0.00     0.254 A 
ATOM      6  C   UNL d   1      24.145  12.200  -0.456  0.00  0.00     0.076 A 
ATOM      7  C   UNL d   1      23.548  12.594  -0.034  0.00  0.00     0.024 A 
ATOM      8  C   UNL d   1      22.977  13.009  -1.271  0.00  0.00     0.016 A 
ATOM      9  O   UNL d   1      24.768  11.844  -3.249  0.00  0.00    -0.262 OA
ATOM     10  C   UNL d   1      22.965  12.998  -0.441  0.00  0.00     0.059 A 
ATOM     11  O   UNL d   1      23.262  12.859  -3.093  0.00  0.00    -0.281 OA
ATOM     12 CL   UNL d   1      24.736  11.790  -0.044  0.00  0.00    -0.081 Cl
ATOM     13 CL   UNL d   1      22.349  13.404  -0.014  0.00  0.00    -0.082 Cl
ENDROOT
TORSDOF 0
ENDMDL
MODEL 2
REMARK VINA RESULT:       4.3      1.534      2.326
REMARK  0 active torsions:
REMARK  status: ('A' for Active; 'I' for Inactive)
ROOT
ATOM      1  C   UNL d   1      23.319  12.675  -1.500  0.00  0.00     0.063 A 
ATOM      2  N   UNL d   1      23.207  12.695  -0.174  0.00  0.00    -0.204 NA
ATOM      3  C   UNL d   1      23.685  12.454  -0.803  0.00  0.00     0.099 A 
ATOM      4  C   UNL d   1      22.567  13.052  -0.484  0.00  0.00     0.318 A 
ATOM      5  C   UNL d   1      22.610  13.054  -1.308  0.00  0.00     0.254 A 
ATOM      6  C   UNL d   1      24.396  12.067  -0.819  0.00  0.00     0.076 A 
ATOM      7  C   UNL d   1      24.758  11.893  -1.546  0.00  0.00     0.024 A 
ATOM      8  C   UNL d   1      23.663  12.509  -2.214  0.00  0.00     0.016 A 
ATOM      9  O   UNL d   1      21.952  13.373  -0.022  0.00  0.00    -0.262 OA
ATOM     10  C   UNL d   1      24.391  12.114  -2.243  0.00  0.00     0.059 A 
ATOM     11  O   UNL d   1      22.065  13.367  -1.841  0.00  0.00    -0.281 OA
ATOM     12 CL   UNL d   1      24.768  11.843  -0.113  0.00  0.00    -0.081 Cl
ATOM     13 CL   UNL d   1      24.757  11.938  -2.992  0.00  0.00    -0.082 Cl
ENDROOT
TORSDOF 0
ENDMDL
