MODEL 1
REMARK VINA RESULT:      -2.8      0.000      0.000
REMARK  3 active torsions:
REMARK  status: ('A' for Active; 'I' for Inactive)
REMARK    1  A    between atoms: C_6  and  N_1 
REMARK    2  A    between atoms: C_7  and  C_6 
REMARK    3  A    between atoms: C_8  and  C_7 
ROOT
ATOM      1  N   UNL d   1      32.625  22.204 -21.241  0.00  0.00    -0.305 N 
ATOM      2  C   UNL d   1      32.725  22.884 -21.994  0.00  0.00     0.064 A 
ATOM      3  C   UNL d   1      32.958  22.226 -22.426  0.00  0.00     0.018 A 
ATOM      4  C   UNL d   1      32.770  21.394 -21.268  0.00  0.00     0.064 A 
ATOM      5  C   UNL d   1      32.978  21.481 -22.054  0.00  0.00     0.018 A 
ATOM      6  C   UNL d   1      32.705  23.622 -22.362  0.00  0.00     0.018 A 
ATOM      7  C   UNL d   1      33.170  22.291 -23.208  0.00  0.00     0.002 A 
ATOM      8  C   UNL d   1      32.790  20.649 -20.897  0.00  0.00     0.018 A 
ATOM      9  C   UNL d   1      33.213  20.821 -22.489  0.00  0.00     0.002 A 
ATOM     10  C   UNL d   1      33.150  23.040 -23.581  0.00  0.00     0.000 A 
ATOM     11  C   UNL d   1      32.919  23.698 -23.159  0.00  0.00     0.002 A 
ATOM     12  C   UNL d   1      33.240  20.074 -22.139  0.00  0.00     0.000 A 
ATOM     13  C   UNL d   1      33.030  19.993 -21.352  0.00  0.00     0.002 A 
ENDROOT
BRANCH   1  14
ATOM     14  C   UNL d   1      32.367  22.538 -20.527  0.00  0.00     0.086 C 
BRANCH  14  15
ATOM     15  C   UNL d   1      32.932  22.762 -19.950  0.00  0.00     0.089 C 
BRANCH  15  16
ATOM     16  C   UNL d   1      32.672  23.101 -19.238  0.00  0.00     0.213 C 
ATOM     17  O   UNL d   1      33.221  23.420 -18.721  0.00  0.00    -0.644 OA
ATOM     18  O   UNL d   1      32.216  23.381 -18.601  0.00  0.00    -0.644 OA
ENDBRANCH  15  16
ENDBRANCH  14  15
ENDBRANCH   1  14
TORSDOF 3
ENDMDL
MODEL 2
REMARK VINA RESULT:      -2.4      2.102      3.016
REMARK  3 active torsions:
REMARK  status: ('A' for Active; 'I' for Inactive)
REMARK    1  A    between atoms: C_6  and  N_1 
REMARK    2  A    between atoms: C_7  and  C_6 
REMARK    3  A    between atoms: C_8  and  C_7 
ROOT
ATOM      1  N   UNL d   1      33.110  22.364 -22.217  0.00  0.00    -0.305 N 
ATOM      2  C   UNL d   1      32.938  22.951 -21.402  0.00  0.00     0.064 A 
ATOM      3  C   UNL d   1      32.882  22.229 -21.015  0.00  0.00     0.018 A 
ATOM      4  C   UNL d   1      33.138  21.542 -22.252  0.00  0.00     0.064 A 
ATOM      5  C   UNL d   1      32.984  21.525 -21.449  0.00  0.00     0.018 A 
ATOM      6  C   UNL d   1      32.837  23.648 -20.972  0.00  0.00     0.018 A 
ATOM      7  C   UNL d   1      32.730  22.191 -20.217  0.00  0.00     0.002 A 
ATOM      8  C   UNL d   1      33.240  20.838 -22.686  0.00  0.00     0.018 A 
ATOM      9  C   UNL d   1      32.928  20.801 -21.058  0.00  0.00     0.002 A 
ATOM     10  C   UNL d   1      32.628  22.898 -19.781  0.00  0.00     0.000 A 
ATOM     11  C   UNL d   1      32.681  23.619 -20.158  0.00  0.00     0.002 A 
ATOM     12  C   UNL d   1      33.026  20.093 -21.471  0.00  0.00     0.000 A 
ATOM     13  C   UNL d   1      33.180  20.116 -22.274  0.00  0.00     0.002 A 
ENDROOT
BRANCH   1  14
ATOM     14  C   UNL d   1      33.232  22.796 -22.914  0.00  0.00     0.086 C 
BRANCH  14  15
ATOM     15  C   UNL d   1      32.570  23.084 -23.340  0.00  0.00     0.089 C 
BRANCH  15  16
ATOM     16  C   UNL d   1      32.682  23.400 -24.100  0.00  0.00     0.213 C 
ATOM     17  O   UNL d   1      32.031  23.572 -24.563  0.00  0.00    -0.644 OA
ATOM     18  O   UNL d   1      33.006  23.701 -24.805  0.00  0.00    -0.644 OA
ENDBRANCH  15  16
ENDBRANCH  14  15
ENDBRANCH   1  14
TORSDOF 3
ENDMDL
MODEL 3
REMARK VINA RESULT:      -2.4      2.044      2.938
REMARK  3 active torsions:
REMARK  status: ('A' for Active; 'I' for Inactive)
REMARK    1  A    between atoms: C_6  and  N_1 
REMARK    2  A    between atoms: C_7  and  C_6 
REMARK    3  A    between atoms: C_8  and  C_7 
ROOT
ATOM      1  N   UNL d   1      32.999  21.664 -21.872  0.00  0.00    -0.305 N 
ATOM      2  C   UNL d   1      33.074  22.182 -22.746  0.00  0.00     0.064 A 
ATOM      3  C   UNL d   1      32.782  22.800 -22.291  0.00  0.00     0.018 A 
ATOM      4  C   UNL d   1      32.736  21.937 -21.142  0.00  0.00     0.064 A 
ATOM      5  C   UNL d   1      32.615  22.670 -21.485  0.00  0.00     0.018 A 
ATOM      6  C   UNL d   1      33.240  22.312 -23.544  0.00  0.00     0.018 A 
ATOM      7  C   UNL d   1      32.655  23.536 -22.614  0.00  0.00     0.002 A 
ATOM      8  C   UNL d   1      32.568  21.807 -20.336  0.00  0.00     0.018 A 
ATOM      9  C   UNL d   1      32.322  23.291 -21.030  0.00  0.00     0.002 A 
ATOM     10  C   UNL d   1      32.823  23.667 -23.423  0.00  0.00     0.000 A 
ATOM     11  C   UNL d   1      33.113  23.059 -23.881  0.00  0.00     0.002 A 
ATOM     12  C   UNL d   1      32.150  23.182 -20.230  0.00  0.00     0.000 A 
ATOM     13  C   UNL d   1      32.273  22.446 -19.891  0.00  0.00     0.002 A 
ENDROOT
BRANCH   1  14
ATOM     14  C   UNL d   1      33.240  20.873 -21.937  0.00  0.00     0.086 C 
BRANCH  14  15
ATOM     15  C   UNL d   1      32.688  20.295 -22.191  0.00  0.00     0.089 C 
BRANCH  15  16
ATOM     16  C   UNL d   1      32.922  19.499 -22.225  0.00  0.00     0.213 C 
ATOM     17  O   UNL d   1      32.793  19.072 -22.911  0.00  0.00    -0.644 OA
ATOM     18  O   UNL d   1      33.221  18.741 -22.054  0.00  0.00    -0.644 OA
ENDBRANCH  15  16
ENDBRANCH  14  15
ENDBRANCH   1  14
TORSDOF 3
ENDMDL
MODEL 4
REMARK VINA RESULT:      -2.4      4.773      6.075
REMARK  3 active torsions:
REMARK  status: ('A' for Active; 'I' for Inactive)
REMARK    1  A    between atoms: C_6  and  N_1 
REMARK    2  A    between atoms: C_7  and  C_6 
REMARK    3  A    between atoms: C_8  and  C_7 
ROOT
ATOM      1  N   UNL d   1      31.825  17.503 -24.418  0.00  0.00    -0.305 N 
ATOM      2  C   UNL d   1      30.853  17.589 -24.713  0.00  0.00     0.064 A 
ATOM      3  C   UNL d   1      30.773  16.871 -24.322  0.00  0.00     0.018 A 
ATOM      4  C   UNL d   1      32.170  16.895 -23.983  0.00  0.00     0.064 A 
ATOM      5  C   UNL d   1      31.440  16.529 -23.958  0.00  0.00     0.018 A 
ATOM      6  C   UNL d   1      30.193  17.928 -25.073  0.00  0.00     0.018 A 
ATOM      7  C   UNL d   1      30.055  16.491 -24.286  0.00  0.00     0.002 A 
ATOM      8  C   UNL d   1      32.837  16.553 -23.619  0.00  0.00     0.018 A 
ATOM      9  C   UNL d   1      31.358  15.808 -23.566  0.00  0.00     0.002 A 
ATOM     10  C   UNL d   1      29.386  16.835 -24.652  0.00  0.00     0.000 A 
ATOM     11  C   UNL d   1      29.457  17.547 -25.041  0.00  0.00     0.002 A 
ATOM     12  C   UNL d   1      32.006  15.453 -23.199  0.00  0.00     0.000 A 
ATOM     13  C   UNL d   1      32.735  15.824 -23.228  0.00  0.00     0.002 A 
ENDROOT
BRANCH   1  14
ATOM     14  C   UNL d   1      32.300  18.137 -24.661  0.00  0.00     0.086 C 
BRANCH  14  15
ATOM     15  C   UNL d   1      32.387  18.802 -24.157  0.00  0.00     0.089 C 
BRANCH  15  16
ATOM     16  C   UNL d   1      32.842  19.448 -24.412  0.00  0.00     0.213 C 
ATOM     17  O   UNL d   1      33.196  19.934 -23.857  0.00  0.00    -0.644 OA
ATOM     18  O   UNL d   1      33.241  20.021 -24.866  0.00  0.00    -0.644 OA
ENDBRANCH  15  16
ENDBRANCH  14  15
ENDBRANCH   1  14
TORSDOF 3
ENDMDL
MODEL 5
REMARK VINA RESULT:      -2.3      2.097      3.364
REMARK  3 active torsions:
REMARK  status: ('A' for Active; 'I' for Inactive)
REMARK    1  A    between atoms: C_6  and  N_1 
REMARK    2  A    between atoms: C_7  and  C_6 
REMARK    3  A    between atoms: C_8  and  C_7 
ROOT
ATOM      1  N   UNL d   1      33.026  21.690 -22.368  0.00  0.00    -0.305 N 
ATOM      2  C   UNL d   1      32.733  22.055 -21.463  0.00  0.00     0.064 A 
ATOM      3  C   UNL d   1      32.632  22.751 -21.886  0.00  0.00     0.018 A 
ATOM      4  C   UNL d   1      33.069  22.090 -23.086  0.00  0.00     0.064 A 
ATOM      5  C   UNL d   1      32.803  22.761 -22.702  0.00  0.00     0.018 A 
ATOM      6  C   UNL d   1      32.563  22.045 -20.656  0.00  0.00     0.018 A 
ATOM      7  C   UNL d   1      32.368  23.429 -21.523  0.00  0.00     0.002 A 
ATOM      8  C   UNL d   1      33.241  22.100 -23.901  0.00  0.00     0.018 A 
ATOM      9  C   UNL d   1      32.702  23.461 -23.125  0.00  0.00     0.002 A 
ATOM     10  C   UNL d   1      32.196  23.419 -20.704  0.00  0.00     0.000 A 
ATOM     11  C   UNL d   1      32.294  22.732 -20.277  0.00  0.00     0.002 A 
ATOM     12  C   UNL d   1      32.866  23.491 -23.933  0.00  0.00     0.000 A 
ATOM     13  C   UNL d   1      33.132  22.816 -24.313  0.00  0.00     0.002 A 
ENDROOT
BRANCH   1  14
ATOM     14  C   UNL d   1      33.241  20.889 -22.346  0.00  0.00     0.086 C 
BRANCH  14  15
ATOM     15  C   UNL d   1      32.652  20.303 -22.458  0.00  0.00     0.089 C 
BRANCH  15  16
ATOM     16  C   UNL d   1      32.860  19.501 -22.394  0.00  0.00     0.213 C 
ATOM     17  O   UNL d   1      32.392  18.935 -22.755  0.00  0.00    -0.644 OA
ATOM     18  O   UNL d   1      33.234  18.780 -22.213  0.00  0.00    -0.644 OA
ENDBRANCH  15  16
ENDBRANCH  14  15
ENDBRANCH   1  14
TORSDOF 3
ENDMDL
MODEL 6
REMARK VINA RESULT:      -2.2      0.849      2.532
REMARK  3 active torsions:
REMARK  status: ('A' for Active; 'I' for Inactive)
REMARK    1  A    between atoms: C_6  and  N_1 
REMARK    2  A    between atoms: C_7  and  C_6 
REMARK    3  A    between atoms: C_8  and  C_7 
ROOT
ATOM      1  N   UNL d   1      33.206  21.767 -22.117  0.00  0.00    -0.305 N 
ATOM      2  C   UNL d   1      33.213  20.749 -22.061  0.00  0.00     0.064 A 
ATOM      3  C   UNL d   1      33.226  20.803 -22.881  0.00  0.00     0.018 A 
ATOM      4  C   UNL d   1      33.214  22.238 -22.792  0.00  0.00     0.064 A 
ATOM      5  C   UNL d   1      33.226  21.554 -23.241  0.00  0.00     0.018 A 
ATOM      6  C   UNL d   1      33.214  20.005 -21.705  0.00  0.00     0.018 A 
ATOM      7  C   UNL d   1      33.239  20.135 -23.344  0.00  0.00     0.002 A 
ATOM      8  C   UNL d   1      33.213  22.989 -23.152  0.00  0.00     0.018 A 
ATOM      9  C   UNL d   1      33.240  21.605 -24.063  0.00  0.00     0.002 A 
ATOM     10  C   UNL d   1      33.240  19.380 -22.983  0.00  0.00     0.000 A 
ATOM     11  C   UNL d   1      33.227  19.319 -22.170  0.00  0.00     0.002 A 
ATOM     12  C   UNL d   1      33.240  22.340 -24.439  0.00  0.00     0.000 A 
ATOM     13  C   UNL d   1      33.227  23.021 -23.985  0.00  0.00     0.002 A 
ENDROOT
BRANCH   1  14
ATOM     14  C   UNL d   1      33.191  22.137 -21.375  0.00  0.00     0.086 C 
BRANCH  14  15
ATOM     15  C   UNL d   1      32.453  22.338 -21.031  0.00  0.00     0.089 C 
BRANCH  15  16
ATOM     16  C   UNL d   1      32.437  22.689 -20.279  0.00  0.00     0.213 C 
ATOM     17  O   UNL d   1      31.855  23.237 -20.103  0.00  0.00    -0.644 OA
ATOM     18  O   UNL d   1      32.597  22.914 -19.494  0.00  0.00    -0.644 OA
ENDBRANCH  15  16
ENDBRANCH  14  15
ENDBRANCH   1  14
TORSDOF 3
ENDMDL
MODEL 7
REMARK VINA RESULT:      -2.1      1.927      3.506
REMARK  3 active torsions:
REMARK  status: ('A' for Active; 'I' for Inactive)
REMARK    1  A    between atoms: C_6  and  N_1 
REMARK    2  A    between atoms: C_7  and  C_6 
REMARK    3  A    between atoms: C_8  and  C_7 
ROOT
ATOM      1  N   UNL d   1      33.240  20.190 -22.798  0.00  0.00    -0.305 N 
ATOM      2  C   UNL d   1      33.240  19.171 -22.783  0.00  0.00     0.064 A 
ATOM      3  C   UNL d   1      33.240  19.256 -23.600  0.00  0.00     0.018 A 
ATOM      4  C   UNL d   1      33.240  20.687 -23.455  0.00  0.00     0.064 A 
ATOM      5  C   UNL d   1      33.240  20.021 -23.930  0.00  0.00     0.018 A 
ATOM      6  C   UNL d   1      33.239  18.413 -22.456  0.00  0.00     0.018 A 
ATOM      7  C   UNL d   1      33.239  18.607 -24.090  0.00  0.00     0.002 A 
ATOM      8  C   UNL d   1      33.241  21.452 -23.785  0.00  0.00     0.018 A 
ATOM      9  C   UNL d   1      33.240  20.105 -24.750  0.00  0.00     0.002 A 
ATOM     10  C   UNL d   1      33.239  17.838 -23.758  0.00  0.00     0.000 A 
ATOM     11  C   UNL d   1      33.239  17.746 -22.948  0.00  0.00     0.002 A 
ATOM     12  C   UNL d   1      33.241  20.854 -25.096  0.00  0.00     0.000 A 
ATOM     13  C   UNL d   1      33.241  21.517 -24.616  0.00  0.00     0.002 A 
ENDROOT
BRANCH   1  14
ATOM     14  C   UNL d   1      33.240  20.531 -22.042  0.00  0.00     0.086 C 
BRANCH  14  15
ATOM     15  C   UNL d   1      32.513  20.773 -21.701  0.00  0.00     0.089 C 
BRANCH  15  16
ATOM     16  C   UNL d   1      32.523  21.284 -21.047  0.00  0.00     0.213 C 
ATOM     17  O   UNL d   1      31.840  21.389 -20.609  0.00  0.00    -0.644 OA
ATOM     18  O   UNL d   1      32.741  21.823 -20.451  0.00  0.00    -0.644 OA
ENDBRANCH  15  16
ENDBRANCH  14  15
ENDBRANCH   1  14
TORSDOF 3
ENDMDL
MODEL 8
REMARK VINA RESULT:      -2.0      1.997      2.806
REMARK  3 active torsions:
REMARK  status: ('A' for Active; 'I' for Inactive)
REMARK    1  A    between atoms: C_6  and  N_1 
REMARK    2  A    between atoms: C_7  and  C_6 
REMARK    3  A    between atoms: C_8  and  C_7 
ROOT
ATOM      1  N   UNL d   1      33.214  19.885 -22.671  0.00  0.00    -0.305 N 
ATOM      2  C   UNL d   1      33.222  20.555 -23.440  0.00  0.00     0.064 A 
ATOM      3  C   UNL d   1      33.228  19.876 -23.902  0.00  0.00     0.018 A 
ATOM      4  C   UNL d   1      33.215  19.063 -22.716  0.00  0.00     0.064 A 
ATOM      5  C   UNL d   1      33.224  19.130 -23.531  0.00  0.00     0.018 A 
ATOM      6  C   UNL d   1      33.226  21.294 -23.807  0.00  0.00     0.018 A 
ATOM      7  C   UNL d   1      33.237  19.922 -24.714  0.00  0.00     0.002 A 
ATOM      8  C   UNL d   1      33.212  18.317 -22.346  0.00  0.00     0.018 A 
ATOM      9  C   UNL d   1      33.230  18.450 -23.997  0.00  0.00     0.002 A 
ATOM     10  C   UNL d   1      33.241  20.671 -25.087  0.00  0.00     0.000 A 
ATOM     11  C   UNL d   1      33.235  21.349 -24.634  0.00  0.00     0.002 A 
ATOM     12  C   UNL d   1      33.227  17.702 -23.649  0.00  0.00     0.000 A 
ATOM     13  C   UNL d   1      33.218  17.641 -22.832  0.00  0.00     0.002 A 
ENDROOT
BRANCH   1  14
ATOM     14  C   UNL d   1      33.205  20.242 -21.923  0.00  0.00     0.086 C 
BRANCH  14  15
ATOM     15  C   UNL d   1      32.472  20.474 -21.588  0.00  0.00     0.089 C 
BRANCH  15  16
ATOM     16  C   UNL d   1      32.469  20.998 -20.943  0.00  0.00     0.213 C 
ATOM     17  O   UNL d   1      31.809  21.462 -20.807  0.00  0.00    -0.644 OA
ATOM     18  O   UNL d   1      32.666  21.441 -20.267  0.00  0.00    -0.644 OA
ENDBRANCH  15  16
ENDBRANCH  14  15
ENDBRANCH   1  14
TORSDOF 3
ENDMDL
MODEL 9
REMARK VINA RESULT:      -2.0      3.107      4.394
REMARK  3 active torsions:
REMARK  status: ('A' for Active; 'I' for Inactive)
REMARK    1  A    between atoms: C_6  and  N_1 
REMARK    2  A    between atoms: C_7  and  C_6 
REMARK    3  A    between atoms: C_8  and  C_7 
ROOT
ATOM      1  N   UNL d   1      33.234  19.701 -23.255  0.00  0.00    -0.305 N 
ATOM      2  C   UNL d   1      33.234  19.973 -22.273  0.00  0.00     0.064 A 
ATOM      3  C   UNL d   1      33.237  20.733 -22.584  0.00  0.00     0.018 A 
ATOM      4  C   UNL d   1      33.236  20.192 -23.916  0.00  0.00     0.064 A 
ATOM      5  C   UNL d   1      33.237  20.835 -23.411  0.00  0.00     0.018 A 
ATOM      6  C   UNL d   1      33.233  19.872 -21.454  0.00  0.00     0.018 A 
ATOM      7  C   UNL d   1      33.238  21.385 -22.098  0.00  0.00     0.002 A 
ATOM      8  C   UNL d   1      33.237  20.294 -24.743  0.00  0.00     0.018 A 
ATOM      9  C   UNL d   1      33.240  21.599 -23.721  0.00  0.00     0.002 A 
ATOM     10  C   UNL d   1      33.237  21.283 -21.268  0.00  0.00     0.000 A 
ATOM     11  C   UNL d   1      33.235  20.531 -20.951  0.00  0.00     0.002 A 
ATOM     12  C   UNL d   1      33.241  21.721 -24.538  0.00  0.00     0.000 A 
ATOM     13  C   UNL d   1      33.240  21.073 -25.039  0.00  0.00     0.002 A 
ENDROOT
BRANCH   1  14
ATOM     14  C   UNL d   1      33.232  18.880 -23.370  0.00  0.00     0.086 C 
BRANCH  14  15
ATOM     15  C   UNL d   1      32.503  18.486 -23.498  0.00  0.00     0.089 C 
BRANCH  15  16
ATOM     16  C   UNL d   1      32.497  17.659 -23.577  0.00  0.00     0.213 C 
ATOM     17  O   UNL d   1      31.787  17.256 -23.528  0.00  0.00    -0.644 OA
ATOM     18  O   UNL d   1      32.707  16.860 -23.680  0.00  0.00    -0.644 OA
ENDBRANCH  15  16
ENDBRANCH  14  15
ENDBRANCH   1  14
TORSDOF 3
ENDMDL
