MODEL 1
REMARK VINA RESULT:     -10.1      0.000      0.000
REMARK  2 active torsions:
REMARK  status: ('A' for Active; 'I' for Inactive)
REMARK    1  A    between atoms: C_7  and  C_1 
REMARK    2  A    between atoms: S_13  and  C_5 
ROOT
ATOM      1  C   UNL d   1      53.231  33.057  53.724  0.00  0.00     0.025 A 
ATOM      2  C   UNL d   1      53.083  32.291  53.459  0.00  0.00     0.106 A 
ATOM      3  C   UNL d   1      52.759  33.681  53.456  0.00  0.00     0.092 A 
ATOM      4  N   UNL d   1      52.000  32.767  52.663  0.00  0.00    -0.218 NA
ATOM      5  C   UNL d   1      52.143  33.536  52.926  0.00  0.00     0.118 A 
ATOM      6  C   UNL d   1      52.468  32.146  52.928  0.00  0.00     0.194 A 
ATOM      7  C   UNL d   1      53.556  31.667  53.727  0.00  0.00     0.104 C 
ATOM      8  C   UNL d   1      52.907  34.443  53.721  0.00  0.00     0.103 C 
ATOM      9  N   UNL d   1      54.019  31.053  53.990  0.00  0.00    -0.191 NA
ATOM     10  N   UNL d   1      53.050  35.201  53.982  0.00  0.00    -0.191 NA
ATOM     11  N   UNL d   1      52.324  31.377  52.666  0.00  0.00    -0.126 N 
ENDROOT
BRANCH   1  12
ATOM     12  C   UNL d   1      53.841  33.201  54.250  0.00  0.00     0.012 A 
ATOM     13  C   UNL d   1      54.606  33.335  53.969  0.00  0.00     0.058 A 
ATOM     14 CL   UNL d   1      54.750  33.323  53.162  0.00  0.00    -0.082 Cl
ATOM     15  C   UNL d   1      55.230  33.482  54.507  0.00  0.00     0.011 A 
ATOM     16  C   UNL d   1      55.077  33.492  55.316  0.00  0.00     0.001 A 
ATOM     17  C   UNL d   1      54.319  33.359  55.598  0.00  0.00     0.000 A 
ATOM     18  C   UNL d   1      53.694  33.212  55.060  0.00  0.00     0.001 A 
ENDBRANCH   1  12
BRANCH   5  19
ATOM     19  S   UNL d   1      51.673  34.164  52.660  0.00  0.00    -0.093 SA
ATOM     20  C   UNL d   1      51.080  34.034  52.101  0.00  0.00     0.076 C 
ENDBRANCH   5  19
TORSDOF 2
ENDMDL
MODEL 2
REMARK VINA RESULT:      -9.8      1.201      2.801
REMARK  2 active torsions:
REMARK  status: ('A' for Active; 'I' for Inactive)
REMARK    1  A    between atoms: C_7  and  C_1 
REMARK    2  A    between atoms: S_13  and  C_5 
ROOT
ATOM      1  C   UNL d   1      52.907  33.292  53.696  0.00  0.00     0.025 A 
ATOM      2  C   UNL d   1      53.183  32.543  53.491  0.00  0.00     0.106 A 
ATOM      3  C   UNL d   1      53.335  33.753  54.232  0.00  0.00     0.092 A 
ATOM      4  N   UNL d   1      54.308  32.714  54.352  0.00  0.00    -0.218 NA
ATOM      5  C   UNL d   1      54.035  33.464  54.560  0.00  0.00     0.118 A 
ATOM      6  C   UNL d   1      53.883  32.254  53.819  0.00  0.00     0.194 A 
ATOM      7  C   UNL d   1      52.755  32.081  52.954  0.00  0.00     0.104 C 
ATOM      8  C   UNL d   1      53.058  34.498  54.435  0.00  0.00     0.103 C 
ATOM      9  N   UNL d   1      52.335  31.627  52.427  0.00  0.00    -0.191 NA
ATOM     10  N   UNL d   1      52.788  35.238  54.640  0.00  0.00    -0.191 NA
ATOM     11  N   UNL d   1      54.156  31.503  53.610  0.00  0.00    -0.126 N 
ENDROOT
BRANCH   1  12
ATOM     12  C   UNL d   1      52.213  33.578  53.371  0.00  0.00     0.012 A 
ATOM     13  C   UNL d   1      52.237  34.041  52.687  0.00  0.00     0.058 A 
ATOM     14 CL   UNL d   1      52.959  34.211  52.337  0.00  0.00    -0.082 Cl
ATOM     15  C   UNL d   1      51.527  34.334  52.354  0.00  0.00     0.011 A 
ATOM     16  C   UNL d   1      50.807  34.158  52.712  0.00  0.00     0.001 A 
ATOM     17  C   UNL d   1      50.779  33.699  53.391  0.00  0.00     0.000 A 
ATOM     18  C   UNL d   1      51.489  33.406  53.724  0.00  0.00     0.001 A 
ENDBRANCH   1  12
BRANCH   5  19
ATOM     19  S   UNL d   1      54.460  33.930  55.097  0.00  0.00    -0.093 SA
ATOM     20  C   UNL d   1      55.225  33.715  55.322  0.00  0.00     0.076 C 
ENDBRANCH   5  19
TORSDOF 2
ENDMDL
MODEL 3
REMARK VINA RESULT:      -8.7      1.342      3.111
REMARK  2 active torsions:
REMARK  status: ('A' for Active; 'I' for Inactive)
REMARK    1  A    between atoms: C_7  and  C_1 
REMARK    2  A    between atoms: S_13  and  C_5 
ROOT
ATOM      1  C   UNL d   1      52.967  33.078  53.846  0.00  0.00     0.025 A 
ATOM      2  C   UNL d   1      53.430  33.326  54.481  0.00  0.00     0.106 A 
ATOM      3  C   UNL d   1      53.074  32.320  53.533  0.00  0.00     0.092 A 
ATOM      4  N   UNL d   1      54.103  32.068  54.492  0.00  0.00    -0.218 NA
ATOM      5  C   UNL d   1      53.642  31.816  53.856  0.00  0.00     0.118 A 
ATOM      6  C   UNL d   1      53.997  32.821  54.804  0.00  0.00     0.194 A 
ATOM      7  C   UNL d   1      53.322  34.084  54.795  0.00  0.00     0.104 C 
ATOM      8  C   UNL d   1      52.613  32.075  52.901  0.00  0.00     0.103 C 
ATOM      9  N   UNL d   1      53.218  34.829  55.104  0.00  0.00    -0.191 NA
ATOM     10  N   UNL d   1      52.157  31.827  52.273  0.00  0.00    -0.191 NA
ATOM     11  N   UNL d   1      54.458  33.074  55.440  0.00  0.00    -0.126 N 
ENDROOT
BRANCH   1  12
ATOM     12  C   UNL d   1      52.404  33.578  53.526  0.00  0.00     0.012 A 
ATOM     13  C   UNL d   1      52.619  34.123  52.944  0.00  0.00     0.058 A 
ATOM     14 CL   UNL d   1      53.397  34.159  52.689  0.00  0.00    -0.082 Cl
ATOM     15  C   UNL d   1      52.043  34.635  52.616  0.00  0.00     0.011 A 
ATOM     16  C   UNL d   1      51.264  34.592  52.878  0.00  0.00     0.001 A 
ATOM     17  C   UNL d   1      51.047  34.052  53.456  0.00  0.00     0.000 A 
ATOM     18  C   UNL d   1      51.623  33.540  53.783  0.00  0.00     0.001 A 
ENDBRANCH   1  12
BRANCH   5  19
ATOM     19  S   UNL d   1      53.746  31.058  53.539  0.00  0.00    -0.093 SA
ATOM     20  C   UNL d   1      53.843  30.406  54.037  0.00  0.00     0.076 C 
ENDBRANCH   5  19
TORSDOF 2
ENDMDL
MODEL 4
REMARK VINA RESULT:      -8.3      0.945      2.154
REMARK  2 active torsions:
REMARK  status: ('A' for Active; 'I' for Inactive)
REMARK    1  A    between atoms: C_7  and  C_1 
REMARK    2  A    between atoms: S_13  and  C_5 
ROOT
ATOM      1  C   UNL d   1      53.359  32.787  53.723  0.00  0.00     0.025 A 
ATOM      2  C   UNL d   1      52.843  33.306  53.344  0.00  0.00     0.106 A 
ATOM      3  C   UNL d   1      53.296  31.975  53.584  0.00  0.00     0.092 A 
ATOM      4  N   UNL d   1      52.206  32.209  52.692  0.00  0.00    -0.218 NA
ATOM      5  C   UNL d   1      52.720  31.686  53.068  0.00  0.00     0.118 A 
ATOM      6  C   UNL d   1      52.267  33.018  52.829  0.00  0.00     0.194 A 
ATOM      7  C   UNL d   1      52.905  34.120  53.484  0.00  0.00     0.104 C 
ATOM      8  C   UNL d   1      53.811  31.459  53.962  0.00  0.00     0.103 C 
ATOM      9  N   UNL d   1      52.966  34.919  53.620  0.00  0.00    -0.191 NA
ATOM     10  N   UNL d   1      54.319  30.944  54.334  0.00  0.00    -0.191 NA
ATOM     11  N   UNL d   1      51.753  33.542  52.452  0.00  0.00    -0.126 N 
ENDROOT
BRANCH   1  12
ATOM     12  C   UNL d   1      53.930  33.073  54.234  0.00  0.00     0.012 A 
ATOM     13  C   UNL d   1      54.687  33.248  53.953  0.00  0.00     0.058 A 
ATOM     14 CL   UNL d   1      54.862  33.132  53.160  0.00  0.00    -0.082 Cl
ATOM     15  C   UNL d   1      55.271  33.540  54.476  0.00  0.00     0.011 A 
ATOM     16  C   UNL d   1      55.087  33.653  55.270  0.00  0.00     0.001 A 
ATOM     17  C   UNL d   1      54.337  33.482  55.553  0.00  0.00     0.000 A 
ATOM     18  C   UNL d   1      53.752  33.189  55.030  0.00  0.00     0.001 A 
ENDBRANCH   1  12
BRANCH   5  19
ATOM     19  S   UNL d   1      52.662  30.871  52.932  0.00  0.00    -0.093 SA
ATOM     20  C   UNL d   1      51.927  30.495  52.956  0.00  0.00     0.076 C 
ENDBRANCH   5  19
TORSDOF 2
ENDMDL
MODEL 5
REMARK VINA RESULT:      -8.1      1.131      2.216
REMARK  2 active torsions:
REMARK  status: ('A' for Active; 'I' for Inactive)
REMARK    1  A    between atoms: C_7  and  C_1 
REMARK    2  A    between atoms: S_13  and  C_5 
ROOT
ATOM      1  C   UNL d   1      52.896  33.661  53.780  0.00  0.00     0.025 A 
ATOM      2  C   UNL d   1      53.043  34.366  54.182  0.00  0.00     0.106 A 
ATOM      3  C   UNL d   1      52.238  33.604  53.282  0.00  0.00     0.092 A 
ATOM      4  N   UNL d   1      51.885  34.953  53.591  0.00  0.00    -0.218 NA
ATOM      5  C   UNL d   1      51.734  34.250  53.188  0.00  0.00     0.118 A 
ATOM      6  C   UNL d   1      52.539  35.011  54.087  0.00  0.00     0.194 A 
ATOM      7  C   UNL d   1      53.701  34.423  54.681  0.00  0.00     0.104 C 
ATOM      8  C   UNL d   1      52.093  32.902  52.884  0.00  0.00     0.103 C 
ATOM      9  N   UNL d   1      54.347  34.480  55.171  0.00  0.00    -0.191 NA
ATOM     10  N   UNL d   1      51.944  32.207  52.486  0.00  0.00    -0.191 NA
ATOM     11  N   UNL d   1      52.691  35.715  54.491  0.00  0.00    -0.126 N 
ENDROOT
BRANCH   1  12
ATOM     12  C   UNL d   1      53.396  33.021  53.874  0.00  0.00     0.012 A 
ATOM     13  C   UNL d   1      54.050  32.930  53.377  0.00  0.00     0.058 A 
ATOM     14 CL   UNL d   1      54.193  33.485  52.790  0.00  0.00    -0.082 Cl
ATOM     15  C   UNL d   1      54.562  32.275  53.473  0.00  0.00     0.011 A 
ATOM     16  C   UNL d   1      54.411  31.723  54.064  0.00  0.00     0.001 A 
ATOM     17  C   UNL d   1      53.763  31.810  54.560  0.00  0.00     0.000 A 
ATOM     18  C   UNL d   1      53.251  32.465  54.464  0.00  0.00     0.001 A 
ENDBRANCH   1  12
BRANCH   5  19
ATOM     19  S   UNL d   1      51.077  34.188  52.687  0.00  0.00    -0.093 SA
ATOM     20  C   UNL d   1      50.390  34.618  52.845  0.00  0.00     0.076 C 
ENDBRANCH   5  19
TORSDOF 2
ENDMDL
MODEL 6
REMARK VINA RESULT:      -7.6      1.243      2.279
REMARK  2 active torsions:
REMARK  status: ('A' for Active; 'I' for Inactive)
REMARK    1  A    between atoms: C_7  and  C_1 
REMARK    2  A    between atoms: S_13  and  C_5 
ROOT
ATOM      1  C   UNL d   1      53.088  33.305  53.825  0.00  0.00     0.025 A 
ATOM      2  C   UNL d   1      52.487  33.506  53.298  0.00  0.00     0.106 A 
ATOM      3  C   UNL d   1      53.381  33.874  54.348  0.00  0.00     0.092 A 
ATOM      4  N   UNL d   1      52.471  34.836  53.814  0.00  0.00    -0.218 NA
ATOM      5  C   UNL d   1      53.073  34.639  54.343  0.00  0.00     0.118 A 
ATOM      6  C   UNL d   1      52.179  34.271  53.293  0.00  0.00     0.194 A 
ATOM      7  C   UNL d   1      52.194  32.937  52.774  0.00  0.00     0.104 C 
ATOM      8  C   UNL d   1      53.980  33.672  54.871  0.00  0.00     0.103 C 
ATOM      9  N   UNL d   1      51.905  32.378  52.259  0.00  0.00    -0.191 NA
ATOM     10  N   UNL d   1      54.574  33.476  55.392  0.00  0.00    -0.191 NA
ATOM     11  N   UNL d   1      51.576  34.468  52.764  0.00  0.00    -0.126 N 
ENDROOT
BRANCH   1  12
ATOM     12  C   UNL d   1      53.394  32.546  53.830  0.00  0.00     0.012 A 
ATOM     13  C   UNL d   1      54.059  32.365  53.373  0.00  0.00     0.058 A 
ATOM     14 CL   UNL d   1      54.408  32.949  52.916  0.00  0.00    -0.082 Cl
ATOM     15  C   UNL d   1      54.372  31.588  53.379  0.00  0.00     0.011 A 
ATOM     16  C   UNL d   1      54.014  31.009  53.840  0.00  0.00     0.001 A 
ATOM     17  C   UNL d   1      53.355  31.185  54.295  0.00  0.00     0.000 A 
ATOM     18  C   UNL d   1      53.042  31.961  54.289  0.00  0.00     0.001 A 
ENDBRANCH   1  12
BRANCH   5  19
ATOM     19  S   UNL d   1      53.369  35.206  54.869  0.00  0.00    -0.093 SA
ATOM     20  C   UNL d   1      53.075  35.977  54.862  0.00  0.00     0.076 C 
ENDBRANCH   5  19
TORSDOF 2
ENDMDL
