MODEL 1
REMARK VINA RESULT:      70.3      0.000      0.000
REMARK  3 active torsions:
REMARK  status: ('A' for Active; 'I' for Inactive)
REMARK    1  A    between atoms: N_11  and  C_4 
REMARK    2  A    between atoms: C_18  and  N_15 
REMARK    3  A    between atoms: C_22  and  C_18 
ROOT
ATOM      1  N   UNL d   1      13.865  13.800  -3.334  0.00  0.00    -0.195 N 
ATOM      2  C   UNL d   1      13.862  13.130  -2.881  0.00  0.00     0.168 A 
ATOM      3  C   UNL d   1      14.214  13.121  -2.164  0.00  0.00     0.073 A 
ATOM      4  C   UNL d   1      13.508  13.790  -4.047  0.00  0.00     0.153 A 
ATOM      5  N   UNL d   1      14.574  14.457  -2.358  0.00  0.00    -0.143 NA
ATOM      6  C   UNL d   1      14.571  13.786  -1.904  0.00  0.00     0.185 A 
ATOM      7  N   UNL d   1      13.501  12.467  -3.151  0.00  0.00    -0.227 NA
ATOM      8  C   UNL d   1      14.211  12.457  -1.715  0.00  0.00     0.007 A 
ATOM      9  N   UNL d   1      14.932  13.793  -1.180  0.00  0.00    -0.225 NA
ATOM     10  C   UNL d   1      13.150  13.137  -4.319  0.00  0.00     0.057 A 
ATOM     11  C   UNL d   1      14.564  12.448  -0.999  0.00  0.00     0.019 A 
ATOM     12  C   UNL d   1      13.146  12.467  -3.866  0.00  0.00     0.086 A 
ATOM     13  C   UNL d   1      14.929  13.122  -0.727  0.00  0.00     0.083 A 
ATOM     14  C   UNL d   1      13.848  11.793  -1.989  0.00  0.00     0.000 C 
ATOM     15  C   UNL d   1      12.770  11.779  -4.150  0.00  0.00     0.021 C 
ATOM     16  C   UNL d   1      15.282  13.121  -0.015  0.00  0.00     0.021 C 
ENDROOT
BRANCH   4  17
ATOM     17  N   UNL d   1      13.516  14.486  -4.509  0.00  0.00    -0.286 N 
ATOM     18  C   UNL d   1      14.034  14.288  -5.118  0.00  0.00     0.101 A 
ATOM     19  C   UNL d   1      14.197  14.853  -5.717  0.00  0.00     0.100 A 
ATOM     20  N   UNL d   1      13.843  15.609  -5.703  0.00  0.00    -0.300 N 
ATOM     21  C   UNL d   1      13.317  15.801  -5.079  0.00  0.00     0.100 A 
ATOM     22  C   UNL d   1      13.151  15.241  -4.479  0.00  0.00     0.101 A 
BRANCH  20  23
ATOM     23  C   UNL d   1      14.009  16.162  -6.297  0.00  0.00     0.080 C 
BRANCH  23  24
ATOM     24  C   UNL d   1      13.801  16.966  -6.194  0.00  0.00     0.018 A 
ATOM     25  C   UNL d   1      13.036  17.214  -6.380  0.00  0.00     0.002 A 
ATOM     26  C   UNL d   1      12.815  18.013  -6.283  0.00  0.00     0.000 A 
ATOM     27  C   UNL d   1      13.373  18.564  -5.995  0.00  0.00     0.000 A 
ATOM     28  C   UNL d   1      14.148  18.310  -5.808  0.00  0.00     0.000 A 
ATOM     29  C   UNL d   1      14.355  17.510  -5.909  0.00  0.00     0.002 A 
ENDBRANCH  23  24
ENDBRANCH  20  23
ENDBRANCH   4  17
TORSDOF 3
ENDMDL
