MODEL 1
REMARK VINA RESULT:      -6.2      0.000      0.000
REMARK  2 active torsions:
REMARK  status: ('A' for Active; 'I' for Inactive)
REMARK       I    between atoms: N_2  and  C_1 
REMARK    1  A    between atoms: C_5  and  C_1 
REMARK    2  A    between atoms: C_7  and  N_2 
ROOT
ATOM      1  C   UNL d   1     -41.871-122.084 -54.058  0.00  0.00     0.125 A 
ATOM      2  C   UNL d   1     -41.871-121.854 -53.266  0.00  0.00     0.059 A 
ATOM      3  C   UNL d   1     -41.500-122.782 -54.294  0.00  0.00     0.123 A 
ATOM      4  C   UNL d   1     -41.496-122.327 -52.706  0.00  0.00     0.137 A 
ATOM      5  O   UNL d   1     -42.249-121.607 -54.622  0.00  0.00    -0.301 OA
ATOM      6  O   UNL d   1     -41.499-123.016 -55.088  0.00  0.00    -0.301 OA
ATOM      7  C   UNL d   1     -41.125-123.255 -53.729  0.00  0.00     0.029 A 
ATOM      8  C   UNL d   1     -41.123-123.029 -52.939  0.00  0.00     0.034 A 
ATOM      9  C   UNL d   1     -42.251-121.833 -55.414  0.00  0.00     0.149 A 
ATOM     10  C   UNL d   1     -41.877-122.536 -55.646  0.00  0.00     0.149 A 
ENDROOT
BRANCH   4  11
ATOM     11  N   UNL d   1     -41.492-122.102 -51.906  0.00  0.00    -0.365 NA
ATOM     12  C   UNL d   1     -41.490-121.884 -51.122  0.00  0.00     0.328 C 
ATOM     13  O   UNL d   1     -41.129-121.187 -50.892  0.00  0.00    -0.251 OA
BRANCH  12  14
ATOM     14  C   UNL d   1     -41.849-122.365 -50.567  0.00  0.00     0.070 A 
ATOM     15  C   UNL d   1     -41.426-122.971 -50.206  0.00  0.00     0.006 A 
ATOM     16  C   UNL d   1     -41.793-123.454 -49.646  0.00  0.00     0.000 A 
ATOM     17  C   UNL d   1     -42.586-123.335 -49.442  0.00  0.00     0.000 A 
ATOM     18  C   UNL d   1     -43.011-122.730 -49.801  0.00  0.00     0.000 A 
ATOM     19  C   UNL d   1     -42.953-123.817 -48.883  0.00  0.00     0.000 C 
ATOM     20  C   UNL d   1     -42.642-122.244 -50.364  0.00  0.00     0.006 A 
ENDBRANCH  12  14
ENDBRANCH   4  11
TORSDOF 2
ENDMDL
MODEL 2
REMARK VINA RESULT:      -4.2      1.167      4.428
REMARK  2 active torsions:
REMARK  status: ('A' for Active; 'I' for Inactive)
REMARK       I    between atoms: N_2  and  C_1 
REMARK    1  A    between atoms: C_5  and  C_1 
REMARK    2  A    between atoms: C_7  and  N_2 
ROOT
ATOM      1  C   UNL d   1     -42.546-122.786 -49.774  0.00  0.00     0.125 A 
ATOM      2  C   UNL d   1     -42.403-122.360 -50.466  0.00  0.00     0.059 A 
ATOM      3  C   UNL d   1     -41.983-123.313 -49.479  0.00  0.00     0.123 A 
ATOM      4  C   UNL d   1     -41.691-122.463 -50.866  0.00  0.00     0.137 A 
ATOM      5  O   UNL d   1     -43.264-122.681 -49.371  0.00  0.00    -0.301 OA
ATOM      6  O   UNL d   1     -42.124-123.741 -48.786  0.00  0.00    -0.301 OA
ATOM      7  C   UNL d   1     -41.269-123.414 -49.884  0.00  0.00     0.029 A 
ATOM      8  C   UNL d   1     -41.123-122.991 -50.574  0.00  0.00     0.034 A 
ATOM      9  C   UNL d   1     -43.410-123.105 -48.680  0.00  0.00     0.149 A 
ATOM     10  C   UNL d   1     -42.842-123.633 -48.388  0.00  0.00     0.149 A 
ENDROOT
BRANCH   4  11
ATOM     11  N   UNL d   1     -41.540-122.038 -51.563  0.00  0.00    -0.365 NA
ATOM     12  C   UNL d   1     -41.393-121.624 -52.249  0.00  0.00     0.328 C 
ATOM     13  O   UNL d   1     -41.123-120.853 -52.211  0.00  0.00    -0.251 OA
BRANCH  12  14
ATOM     14  C   UNL d   1     -41.515-121.982 -52.973  0.00  0.00     0.070 A 
ATOM     15  C   UNL d   1     -42.029-121.648 -53.522  0.00  0.00     0.006 A 
ATOM     16  C   UNL d   1     -42.150-122.013 -54.251  0.00  0.00     0.000 A 
ATOM     17  C   UNL d   1     -41.758-122.717 -54.439  0.00  0.00     0.000 A 
ATOM     18  C   UNL d   1     -41.245-123.054 -53.894  0.00  0.00     0.000 A 
ATOM     19  C   UNL d   1     -41.879-123.083 -55.169  0.00  0.00     0.000 C 
ATOM     20  C   UNL d   1     -41.123-122.686 -53.160  0.00  0.00     0.006 A 
ENDBRANCH  12  14
ENDBRANCH   4  11
TORSDOF 2
ENDMDL
