MODEL 1
REMARK VINA RESULT:     -10.3      0.000      0.000
REMARK  5 active torsions:
REMARK  status: ('A' for Active; 'I' for Inactive)
REMARK    1  A    between atoms: C_11  and  C_3 
REMARK    2  A    between atoms: C_14  and  C_7 
REMARK    3  A    between atoms: O_18  and  C_11 
REMARK    4  A    between atoms: C_16  and  C_20 
REMARK    5  A    between atoms: C_20  and  O_18 
ROOT
ATOM      1  C   UNL d   1     -46.426  12.741  23.218  0.00  0.00     0.172 A 
ATOM      2  C   UNL d   1     -47.175  12.410  23.170  0.00  0.00     0.094 A 
ATOM      3  C   UNL d   1     -47.734  13.682  22.866  0.00  0.00     0.081 A 
ATOM      4  C   UNL d   1     -47.271  11.596  23.299  0.00  0.00     0.286 A 
ATOM      5  N   UNL d   1     -45.774  12.276  23.393  0.00  0.00    -0.172 NA
ATOM      6  N   UNL d   1     -46.615  11.133  23.474  0.00  0.00    -0.152 NA
ATOM      7  C   UNL d   1     -47.829  12.878  22.994  0.00  0.00     0.014 A 
ATOM      8  C   UNL d   1     -46.980  14.024  22.914  0.00  0.00     0.088 A 
ATOM      9  N   UNL d   1     -46.324  13.548  23.091  0.00  0.00    -0.226 NA
ATOM     10  C   UNL d   1     -45.869  11.472  23.521  0.00  0.00     0.373 A 
ATOM     11  O   UNL d   1     -48.024  11.254  23.251  0.00  0.00    -0.265 OA
ATOM     12  O   UNL d   1     -45.209  11.007  23.697  0.00  0.00    -0.242 OA
ATOM     13  C   UNL d   1     -46.881  14.830  22.786  0.00  0.00     0.021 C 
ENDROOT
BRANCH   3  14
ATOM     14  C   UNL d   1     -48.382  14.157  22.690  0.00  0.00     0.302 C 
ATOM     15  O   UNL d   1     -48.668  14.188  21.913  0.00  0.00    -0.259 OA
BRANCH  14  16
ATOM     16  O   UNL d   1     -48.747  14.602  23.281  0.00  0.00    -0.271 OA
BRANCH  16  17
ATOM     17  C   UNL d   1     -49.350  15.134  23.087  0.00  0.00     0.126 C 
BRANCH  17  18
ATOM     18  C   UNL d   1     -49.665  15.630  23.668  0.00  0.00     0.027 C 
ATOM     19  C   UNL d   1     -50.451  15.867  23.631  0.00  0.00     0.002 C 
ENDBRANCH  17  18
ENDBRANCH  16  17
ENDBRANCH  14  16
ENDBRANCH   3  14
BRANCH   7  20
ATOM     20  C   UNL d   1     -48.579  12.538  22.947  0.00  0.00     0.001 A 
ATOM     21  C   UNL d   1     -48.878  12.304  22.213  0.00  0.00     0.000 A 
ATOM     22  C   UNL d   1     -49.632  11.961  22.161  0.00  0.00     0.000 A 
ATOM     23  C   UNL d   1     -50.078  11.856  22.844  0.00  0.00     0.000 A 
ATOM     24  C   UNL d   1     -49.780  12.090  23.578  0.00  0.00     0.000 A 
ATOM     25  C   UNL d   1     -49.025  12.433  23.625  0.00  0.00     0.000 A 
ENDBRANCH   7  20
TORSDOF 5
ENDMDL
MODEL 2
REMARK VINA RESULT:      -8.4      1.852      3.541
REMARK  5 active torsions:
REMARK  status: ('A' for Active; 'I' for Inactive)
REMARK    1  A    between atoms: C_11  and  C_3 
REMARK    2  A    between atoms: C_14  and  C_7 
REMARK    3  A    between atoms: O_18  and  C_11 
REMARK    4  A    between atoms: C_16  and  C_20 
REMARK    5  A    between atoms: C_20  and  O_18 
ROOT
ATOM      1  C   UNL d   1     -48.972  14.809  22.533  0.00  0.00     0.172 A 
ATOM      2  C   UNL d   1     -49.012  13.995  22.628  0.00  0.00     0.094 A 
ATOM      3  C   UNL d   1     -47.599  13.926  22.770  0.00  0.00     0.081 A 
ATOM      4  C   UNL d   1     -49.751  13.618  22.603  0.00  0.00     0.286 A 
ATOM      5  N   UNL d   1     -49.652  15.250  22.415  0.00  0.00    -0.172 NA
ATOM      6  N   UNL d   1     -50.430  14.064  22.484  0.00  0.00    -0.152 NA
ATOM      7  C   UNL d   1     -48.328  13.553  22.746  0.00  0.00     0.014 A 
ATOM      8  C   UNL d   1     -47.549  14.748  22.676  0.00  0.00     0.088 A 
ATOM      9  N   UNL d   1     -48.242  15.189  22.556  0.00  0.00    -0.226 NA
ATOM     10  C   UNL d   1     -50.381  14.878  22.391  0.00  0.00     0.373 A 
ATOM     11  O   UNL d   1     -49.800  12.796  22.697  0.00  0.00    -0.265 OA
ATOM     12  O   UNL d   1     -51.064  15.328  22.271  0.00  0.00    -0.242 OA
ATOM     13  C   UNL d   1     -46.820  15.125  22.699  0.00  0.00     0.021 C 
ENDROOT
BRANCH   3  14
ATOM     14  C   UNL d   1     -46.911  13.491  22.888  0.00  0.00     0.302 C 
ATOM     15  O   UNL d   1     -46.687  13.280  23.658  0.00  0.00    -0.259 OA
BRANCH  14  16
ATOM     16  O   UNL d   1     -46.444  13.265  22.247  0.00  0.00    -0.271 OA
BRANCH  16  17
ATOM     17  C   UNL d   1     -45.629  13.160  22.344  0.00  0.00     0.126 C 
BRANCH  17  18
ATOM     18  C   UNL d   1     -45.174  12.872  21.718  0.00  0.00     0.027 C 
ATOM     19  C   UNL d   1     -44.353  12.883  21.761  0.00  0.00     0.002 C 
ENDBRANCH  17  18
ENDBRANCH  16  17
ENDBRANCH  14  16
ENDBRANCH   3  14
BRANCH   7  20
ATOM     20  C   UNL d   1     -48.378  12.734  22.840  0.00  0.00     0.001 A 
ATOM     21  C   UNL d   1     -48.391  12.409  23.599  0.00  0.00     0.000 A 
ATOM     22  C   UNL d   1     -48.441  11.587  23.698  0.00  0.00     0.000 A 
ATOM     23  C   UNL d   1     -48.477  11.099  23.036  0.00  0.00     0.000 A 
ATOM     24  C   UNL d   1     -48.463  11.424  22.277  0.00  0.00     0.000 A 
ATOM     25  C   UNL d   1     -48.413  12.247  22.183  0.00  0.00     0.000 A 
ENDBRANCH   7  20
TORSDOF 5
ENDMDL
