MODEL 1
REMARK VINA RESULT:      -3.3      0.000      0.000
REMARK  7 active torsions:
REMARK  status: ('A' for Active; 'I' for Inactive)
REMARK    1  A    between atoms: N_2  and  S_1 
REMARK    2  A    between atoms: C_6  and  S_1 
REMARK    3  A    between atoms: C_3  and  N_2 
REMARK       I    between atoms: C_7  and  N_10 
REMARK    4  A    between atoms: C_17  and  C_7 
REMARK    5  A    between atoms: N_10  and  C_18 
REMARK    6  A    between atoms: C_19  and  C_17 
REMARK    7  A    between atoms: O_27  and  C_20 
ROOT
ATOM      1  C   UNL d   1      58.500  -0.706  29.535  0.00  0.00     0.106 A 
ATOM      2  C   UNL d   1      58.401  -0.940  30.328  0.00  0.00     0.015 A 
ATOM      3  C   UNL d   1      58.103  -0.060  29.231  0.00  0.00     0.015 A 
ATOM      4  C   UNL d   1      57.480   0.153  30.507  0.00  0.00     0.085 A 
ATOM      5  C   UNL d   1      57.890  -0.502  30.796  0.00  0.00     0.020 A 
ATOM      6  C   UNL d   1      57.592   0.369  29.721  0.00  0.00     0.020 A 
ENDROOT
BRANCH   1   7
ATOM      7  S   UNL d   1      59.023  -1.146  29.038  0.00  0.00     0.300 S 
ATOM      8  O   UNL d   1      59.678  -0.775  29.433  0.00  0.00    -0.198 OA
ATOM      9  O   UNL d   1      58.366  -1.496  28.666  0.00  0.00    -0.198 OA
BRANCH   7  10
ATOM     10  N   UNL d   1      59.554  -1.567  28.560  0.00  0.00     0.034 NA
BRANCH  10  11
ATOM     11  C   UNL d   1      59.674  -2.401  28.737  0.00  0.00     0.760 A 
ATOM     12  N   UNL d   1      59.090  -2.943  28.511  0.00  0.00    -0.059 NA
ATOM     13  C   UNL d   1      59.202  -3.748  28.680  0.00  0.00     0.101 A 
ATOM     14  C   UNL d   1      58.610  -4.330  28.456  0.00  0.00     0.021 C 
ATOM     15  C   UNL d   1      59.882  -3.993  29.063  0.00  0.00     0.040 A 
ATOM     16  C   UNL d   1      60.436  -3.439  29.271  0.00  0.00     0.101 A 
ATOM     17  N   UNL d   1      60.340  -2.643  29.112  0.00  0.00    -0.059 NA
ATOM     18  C   UNL d   1      61.130  -3.718  29.666  0.00  0.00     0.021 C 
ENDBRANCH  10  11
ENDBRANCH   7  10
ENDBRANCH   1   7
BRANCH   4  19
ATOM     19  N   UNL d   1      56.963   0.599  30.975  0.00  0.00    -0.208 NA
ATOM     20  C   UNL d   1      56.521   0.230  31.582  0.00  0.00     0.279 C 
ATOM     21  O   UNL d   1      56.599  -0.600  31.720  0.00  0.00    -0.265 OA
BRANCH  20  22
ATOM     22  C   UNL d   1      56.011   0.682  32.041  0.00  0.00     0.062 C 
BRANCH  22  23
ATOM     23  C   UNL d   1      55.966   0.560  32.891  0.00  0.00     0.005 A 
ATOM     24  C   UNL d   1      55.253   0.322  33.232  0.00  0.00     0.002 A 
ATOM     25  C   UNL d   1      55.212   0.206  34.044  0.00  0.00     0.024 A 
ATOM     26  C   UNL d   1      55.869   0.322  34.527  0.00  0.00     0.094 A 
ATOM     27  C   UNL d   1      56.571   0.555  34.202  0.00  0.00     0.024 A 
ATOM     28  C   UNL d   1      56.627   0.675  33.392  0.00  0.00     0.002 A 
BRANCH  26  29
ATOM     29  O   UNL d   1      55.785   0.191  35.363  0.00  0.00    -0.328 OA
ATOM     30  C   UNL d   1      56.142   0.681  35.925  0.00  0.00     0.181 C 
ENDBRANCH  26  29
ENDBRANCH  22  23
ENDBRANCH  20  22
ENDBRANCH   4  19
TORSDOF 7
ENDMDL
MODEL 2
REMARK VINA RESULT:      -0.5      1.775      6.085
REMARK  7 active torsions:
REMARK  status: ('A' for Active; 'I' for Inactive)
REMARK    1  A    between atoms: N_2  and  S_1 
REMARK    2  A    between atoms: C_6  and  S_1 
REMARK    3  A    between atoms: C_3  and  N_2 
REMARK       I    between atoms: C_7  and  N_10 
REMARK    4  A    between atoms: C_17  and  C_7 
REMARK    5  A    between atoms: N_10  and  C_18 
REMARK    6  A    between atoms: C_19  and  C_17 
REMARK    7  A    between atoms: O_27  and  C_20 
ROOT
ATOM      1  C   UNL d   1      57.372   0.411  32.069  0.00  0.00     0.106 A 
ATOM      2  C   UNL d   1      58.166   0.164  32.119  0.00  0.00     0.015 A 
ATOM      3  C   UNL d   1      57.007   0.522  31.347  0.00  0.00     0.015 A 
ATOM      4  C   UNL d   1      58.220   0.142  30.680  0.00  0.00     0.085 A 
ATOM      5  C   UNL d   1      58.572   0.035  31.418  0.00  0.00     0.020 A 
ATOM      6  C   UNL d   1      57.436   0.387  30.651  0.00  0.00     0.020 A 
ENDROOT
BRANCH   1   7
ATOM      7  S   UNL d   1      56.937   0.548  32.781  0.00  0.00     0.300 S 
ATOM      8  O   UNL d   1      57.652   0.409  33.220  0.00  0.00    -0.198 OA
ATOM      9  O   UNL d   1      56.251   0.681  32.329  0.00  0.00    -0.198 OA
BRANCH   7  10
ATOM     10  N   UNL d   1      56.530   0.680  33.491  0.00  0.00     0.034 NA
BRANCH  10  11
ATOM     11  C   UNL d   1      55.829   0.205  33.643  0.00  0.00     0.760 A 
ATOM     12  N   UNL d   1      55.843  -0.599  33.442  0.00  0.00    -0.059 NA
ATOM     13  C   UNL d   1      55.169  -1.061  33.586  0.00  0.00     0.101 A 
ATOM     14  C   UNL d   1      55.158  -1.897  33.386  0.00  0.00     0.021 C 
ATOM     15  C   UNL d   1      54.505  -0.720  33.922  0.00  0.00     0.040 A 
ATOM     16  C   UNL d   1      54.522   0.069  34.108  0.00  0.00     0.101 A 
ATOM     17  N   UNL d   1      55.178   0.538  33.972  0.00  0.00    -0.059 NA
ATOM     18  C   UNL d   1      53.824   0.398  34.454  0.00  0.00     0.021 C 
ENDBRANCH  10  11
ENDBRANCH   7  10
ENDBRANCH   1   7
BRANCH   4  19
ATOM     19  N   UNL d   1      58.627   0.014  29.970  0.00  0.00    -0.208 NA
ATOM     20  C   UNL d   1      58.681  -0.756  29.650  0.00  0.00     0.279 C 
ATOM     21  O   UNL d   1      58.321  -1.410  30.049  0.00  0.00    -0.265 OA
BRANCH  20  22
ATOM     22  C   UNL d   1      59.086  -0.874  28.944  0.00  0.00     0.062 C 
BRANCH  22  23
ATOM     23  C   UNL d   1      59.603  -1.554  28.846  0.00  0.00     0.005 A 
ATOM     24  C   UNL d   1      59.281  -2.314  28.849  0.00  0.00     0.002 A 
ATOM     25  C   UNL d   1      59.775  -2.963  28.754  0.00  0.00     0.024 A 
ATOM     26  C   UNL d   1      60.588  -2.872  28.657  0.00  0.00     0.094 A 
ATOM     27  C   UNL d   1      60.912  -2.131  28.652  0.00  0.00     0.024 A 
ATOM     28  C   UNL d   1      60.430  -1.473  28.745  0.00  0.00     0.002 A 
BRANCH  26  29
ATOM     29  O   UNL d   1      61.066  -3.568  28.562  0.00  0.00    -0.328 OA
ATOM     30  C   UNL d   1      61.133  -4.142  29.153  0.00  0.00     0.181 C 
ENDBRANCH  26  29
ENDBRANCH  22  23
ENDBRANCH  20  22
ENDBRANCH   4  19
TORSDOF 7
ENDMDL
