MODEL 1
REMARK VINA RESULT:      -1.5      0.000      0.000
REMARK  4 active torsions:
REMARK  status: ('A' for Active; 'I' for Inactive)
REMARK    1  A    between atoms: S_11  and  C_4 
REMARK       I    between atoms: N_8  and  C_10 
REMARK    2  A    between atoms: C_20  and  N_9 
REMARK    3  A    between atoms: C_10  and  C_15 
REMARK    4  A    between atoms: C_15  and  S_11 
ROOT
ATOM      1  N   UNL d   1     -41.666-122.161 -50.402  0.00  0.00    -0.269 N 
ATOM      2  N   UNL d   1     -42.054-122.814 -48.943  0.00  0.00    -0.301 N 
ATOM      3  C   UNL d   1     -41.472-121.834 -51.134  0.00  0.00     0.272 C 
ATOM      4  C   UNL d   1     -42.015-122.908 -50.365  0.00  0.00     0.102 A 
ATOM      5  C   UNL d   1     -41.512-121.741 -49.709  0.00  0.00     0.102 A 
ATOM      6  C   UNL d   1     -41.706-122.067 -48.981  0.00  0.00     0.100 A 
ATOM      7  C   UNL d   1     -42.208-123.234 -49.636  0.00  0.00     0.100 A 
ATOM      8  O   UNL d   1     -41.123-121.087 -51.173  0.00  0.00    -0.266 OA
ENDROOT
BRANCH   3   9
ATOM      9  C   UNL d   1     -41.625-122.254 -51.829  0.00  0.00     0.099 C 
BRANCH   9  10
ATOM     10  S   UNL d   1     -41.123-122.174 -52.479  0.00  0.00    -0.044 SA
BRANCH  10  11
ATOM     11  C   UNL d   1     -41.430-122.263 -53.249  0.00  0.00     0.182 A 
ATOM     12  N   UNL d   1     -41.477-121.604 -53.757  0.00  0.00    -0.222 NA
ATOM     13  C   UNL d   1     -41.776-121.692 -54.509  0.00  0.00     0.095 A 
ATOM     14  C   UNL d   1     -42.034-122.429 -54.773  0.00  0.00     0.104 A 
ATOM     15  C   UNL d   1     -41.886-121.148 -55.118  0.00  0.00     0.026 A 
ATOM     16  C   UNL d   1     -41.992-123.079 -54.284  0.00  0.00     0.274 A 
ATOM     17  S   UNL d   1     -42.303-122.341 -55.545  0.00  0.00    -0.081 SA
ATOM     18  N   UNL d   1     -41.688-123.001 -53.513  0.00  0.00    -0.251 N 
ATOM     19  O   UNL d   1     -42.250-123.817 -54.548  0.00  0.00    -0.266 OA
ATOM     20  C   UNL d   1     -41.643-123.662 -53.011  0.00  0.00     0.104 C 
ATOM     21  C   UNL d   1     -42.209-121.545 -55.755  0.00  0.00     0.031 A 
ATOM     22  C   UNL d   1     -42.406-121.202 -56.480  0.00  0.00     0.007 C 
ENDBRANCH  10  11
ENDBRANCH   9  10
ENDBRANCH   3   9
BRANCH   2  23
ATOM     23  C   UNL d   1     -42.249-123.141 -48.211  0.00  0.00     0.064 A 
ATOM     24  C   UNL d   1     -43.019-123.402 -48.067  0.00  0.00     0.018 A 
ATOM     25  C   UNL d   1     -43.214-123.729 -47.335  0.00  0.00     0.002 A 
ATOM     26  C   UNL d   1     -42.638-123.796 -46.748  0.00  0.00     0.000 A 
ATOM     27  C   UNL d   1     -41.868-123.536 -46.891  0.00  0.00     0.002 A 
ATOM     28  C   UNL d   1     -41.674-123.208 -47.623  0.00  0.00     0.018 A 
ENDBRANCH   2  23
TORSDOF 4
ENDMDL
MODEL 2
REMARK VINA RESULT:      -1.3      1.608      6.054
REMARK  4 active torsions:
REMARK  status: ('A' for Active; 'I' for Inactive)
REMARK    1  A    between atoms: S_11  and  C_4 
REMARK       I    between atoms: N_8  and  C_10 
REMARK    2  A    between atoms: C_20  and  N_9 
REMARK    3  A    between atoms: C_10  and  C_15 
REMARK    4  A    between atoms: C_15  and  S_11 
ROOT
ATOM      1  N   UNL d   1     -41.709-121.794 -52.388  0.00  0.00    -0.269 N 
ATOM      2  N   UNL d   1     -41.951-121.899 -54.012  0.00  0.00    -0.301 N 
ATOM      3  C   UNL d   1     -41.588-121.741 -51.574  0.00  0.00     0.272 C 
ATOM      4  C   UNL d   1     -42.169-122.405 -52.698  0.00  0.00     0.102 A 
ATOM      5  C   UNL d   1     -41.371-121.235 -52.892  0.00  0.00     0.102 A 
ATOM      6  C   UNL d   1     -41.491-121.287 -53.702  0.00  0.00     0.100 A 
ATOM      7  C   UNL d   1     -42.290-122.458 -53.508  0.00  0.00     0.100 A 
ATOM      8  O   UNL d   1     -41.128-121.130 -51.263  0.00  0.00    -0.266 OA
ENDROOT
BRANCH   3   9
ATOM      9  C   UNL d   1     -41.927-122.300 -51.069  0.00  0.00     0.099 C 
BRANCH   9  10
ATOM     10  S   UNL d   1     -42.413-122.055 -50.448  0.00  0.00    -0.044 SA
BRANCH  10  11
ATOM     11  C   UNL d   1     -42.423-122.489 -49.737  0.00  0.00     0.182 A 
ATOM     12  N   UNL d   1     -41.762-122.471 -49.229  0.00  0.00    -0.222 NA
ATOM     13  C   UNL d   1     -41.773-122.896 -48.535  0.00  0.00     0.095 A 
ATOM     14  C   UNL d   1     -42.434-123.345 -48.329  0.00  0.00     0.104 A 
ATOM     15  C   UNL d   1     -41.210-122.980 -47.939  0.00  0.00     0.026 A 
ATOM     16  C   UNL d   1     -43.084-123.369 -48.818  0.00  0.00     0.274 A 
ATOM     17  S   UNL d   1     -42.279-123.706 -47.606  0.00  0.00    -0.081 SA
ATOM     18  N   UNL d   1     -43.084-122.938 -49.531  0.00  0.00    -0.251 N 
ATOM     19  O   UNL d   1     -43.745-123.817 -48.613  0.00  0.00    -0.266 OA
ATOM     20  C   UNL d   1     -43.746-122.959 -50.033  0.00  0.00     0.104 C 
ATOM     21  C   UNL d   1     -41.519-123.477 -47.368  0.00  0.00     0.031 A 
ATOM     22  C   UNL d   1     -41.132-123.705 -46.676  0.00  0.00     0.007 C 
ENDBRANCH  10  11
ENDBRANCH   9  10
ENDBRANCH   3   9
BRANCH   2  23
ATOM     23  C   UNL d   1     -42.073-121.951 -54.826  0.00  0.00     0.064 A 
ATOM     24  C   UNL d   1     -42.835-122.060 -55.124  0.00  0.00     0.018 A 
ATOM     25  C   UNL d   1     -42.956-122.112 -55.938  0.00  0.00     0.002 A 
ATOM     26  C   UNL d   1     -42.315-122.056 -56.455  0.00  0.00     0.000 A 
ATOM     27  C   UNL d   1     -41.553-121.948 -56.158  0.00  0.00     0.002 A 
ATOM     28  C   UNL d   1     -41.432-121.895 -55.344  0.00  0.00     0.018 A 
ENDBRANCH   2  23
TORSDOF 4
ENDMDL
