MODEL 1
REMARK VINA RESULT:      25.6      0.000      0.000
REMARK  3 active torsions:
REMARK  status: ('A' for Active; 'I' for Inactive)
REMARK    1  A    between atoms: N_6  and  C_1 
REMARK    2  A    between atoms: C_14  and  N_4 
REMARK    3  A    between atoms: C_9  and  N_6 
ROOT
ATOM      1  C   UNL d   1      45.580 -15.662  44.728  0.00  0.00     0.157 A 
ATOM      2  C   UNL d   1      45.859 -14.931  44.476  0.00  0.00     0.298 A 
ATOM      3  N   UNL d   1      44.522 -14.901  44.484  0.00  0.00    -0.238 N 
ATOM      4  N   UNL d   1      45.195 -14.455  44.323  0.00  0.00    -0.209 N 
ATOM      5  C   UNL d   1      44.761 -15.657  44.737  0.00  0.00     0.104 A 
ATOM      6  O   UNL d   1      46.647 -14.701  44.388  0.00  0.00    -0.263 OA
ATOM      7  C   UNL d   1      43.740 -14.638  44.404  0.00  0.00     0.120 C 
ATOM      8  C   UNL d   1      44.268 -16.275  44.954  0.00  0.00     0.022 C 
ENDROOT
BRANCH   1   9
ATOM      9  N   UNL d   1      46.060 -16.309  44.942  0.00  0.00    -0.239 NA
BRANCH   9  10
ATOM     10  C   UNL d   1      46.094 -16.978  44.456  0.00  0.00     0.082 A 
ATOM     11  C   UNL d   1      46.197 -17.734  44.792  0.00  0.00     0.022 A 
ATOM     12  C   UNL d   1      46.230 -18.390  44.309  0.00  0.00     0.041 A 
ATOM     13  C   UNL d   1      46.332 -19.144  44.642  0.00  0.00     0.003 C 
ATOM     14  C   UNL d   1      46.164 -18.316  43.483  0.00  0.00     0.196 A 
ATOM     15  C   UNL d   1      46.062 -17.566  43.153  0.00  0.00     0.041 A 
ATOM     16  O   UNL d   1      46.198 -18.986  42.996  0.00  0.00    -0.287 OA
ATOM     17  C   UNL d   1      46.028 -16.902  43.641  0.00  0.00     0.022 A 
ATOM     18  C   UNL d   1      45.997 -17.499  42.337  0.00  0.00     0.003 C 
ENDBRANCH   9  10
ENDBRANCH   1   9
BRANCH   4  19
ATOM     19  C   UNL d   1      45.210 -13.674  44.057  0.00  0.00     0.085 A 
ATOM     20  C   UNL d   1      44.877 -13.477  43.335  0.00  0.00     0.019 A 
ATOM     21  C   UNL d   1      44.890 -12.694  43.064  0.00  0.00     0.002 A 
ATOM     22  C   UNL d   1      45.241 -12.107  43.527  0.00  0.00     0.000 A 
ATOM     23  C   UNL d   1      45.575 -12.303  44.252  0.00  0.00     0.002 A 
ATOM     24  C   UNL d   1      45.563 -13.089  44.525  0.00  0.00     0.019 A 
ENDBRANCH   4  19
TORSDOF 3
ENDMDL
