MODEL 1
REMARK VINA RESULT:      29.4      0.000      0.000
REMARK  4 active torsions:
REMARK  status: ('A' for Active; 'I' for Inactive)
REMARK    1  A    between atoms: C_6  and  C_2 
REMARK    2  A    between atoms: C_8  and  N_3 
REMARK       I    between atoms: N_7  and  C_6 
REMARK    3  A    between atoms: C_16  and  N_7 
REMARK    4  A    between atoms: C_9  and  C_16 
ROOT
ATOM      1  C   UNL d   1      14.215  13.363  -1.951  0.00  0.00     0.211 A 
ATOM      2  C   UNL d   1      13.868  12.649  -2.191  0.00  0.00     0.199 A 
ATOM      3  N   UNL d   1      14.670  13.223  -1.282  0.00  0.00    -0.191 N 
ATOM      4  N   UNL d   1      14.603  12.419  -1.107  0.00  0.00    -0.058 NA
ATOM      5  N   UNL d   1      14.108  12.073  -1.672  0.00  0.00    -0.122 NA
ATOM      6  N   UNL d   1      14.123  14.097  -2.320  0.00  0.00    -0.125 N 
ENDROOT
BRANCH   2   7
ATOM      7  C   UNL d   1      13.371  12.552  -2.841  0.00  0.00     0.302 C 
ATOM      8  N   UNL d   1      13.413  11.873  -3.298  0.00  0.00    -0.203 NA
ATOM      9  O   UNL d   1      12.829  13.147  -3.027  0.00  0.00    -0.263 OA
BRANCH   8  10
ATOM     10  C   UNL d   1      12.909  11.779  -3.952  0.00  0.00     0.127 C 
BRANCH  10  11
ATOM     11  C   UNL d   1      13.210  11.807  -4.714  0.00  0.00     0.119 A 
ATOM     12  O   UNL d   1      14.021  11.830  -4.919  0.00  0.00    -0.304 OA
ATOM     13  C   UNL d   1      14.070  11.854  -5.738  0.00  0.00     0.123 A 
ATOM     14  C   UNL d   1      13.287  11.846  -6.046  0.00  0.00     0.029 A 
ATOM     15  C   UNL d   1      12.777  11.817  -5.414  0.00  0.00     0.028 A 
ENDBRANCH  10  11
ENDBRANCH   8  10
ENDBRANCH   2   7
BRANCH   3  16
ATOM     16  C   UNL d   1      15.111  13.778  -0.859  0.00  0.00     0.086 A 
ATOM     17  C   UNL d   1      15.793  13.537  -0.459  0.00  0.00     0.019 A 
ATOM     18  C   UNL d   1      16.234  14.093  -0.037  0.00  0.00     0.002 A 
ATOM     19  C   UNL d   1      15.995  14.885  -0.014  0.00  0.00     0.000 A 
ATOM     20  C   UNL d   1      15.312  15.117  -0.417  0.00  0.00     0.002 A 
ATOM     21  C   UNL d   1      14.868  14.564  -0.841  0.00  0.00     0.019 A 
ENDBRANCH   3  16
TORSDOF 4
ENDMDL
MODEL 2
REMARK VINA RESULT:      31.0      1.994      2.509
REMARK  4 active torsions:
REMARK  status: ('A' for Active; 'I' for Inactive)
REMARK    1  A    between atoms: C_6  and  C_2 
REMARK    2  A    between atoms: C_8  and  N_3 
REMARK       I    between atoms: N_7  and  C_6 
REMARK    3  A    between atoms: C_16  and  N_7 
REMARK    4  A    between atoms: C_9  and  C_16 
ROOT
ATOM      1  C   UNL d   1      13.911  12.614  -2.726  0.00  0.00     0.211 A 
ATOM      2  C   UNL d   1      13.283  12.457  -3.245  0.00  0.00     0.199 A 
ATOM      3  N   UNL d   1      13.787  12.196  -2.030  0.00  0.00    -0.191 N 
ATOM      4  N   UNL d   1      13.080  11.779  -2.120  0.00  0.00    -0.058 NA
ATOM      5  N   UNL d   1      12.776  11.945  -2.870  0.00  0.00    -0.122 NA
ATOM      6  N   UNL d   1      14.556  13.108  -2.878  0.00  0.00    -0.125 N 
ENDROOT
BRANCH   2   7
ATOM      7  C   UNL d   1      13.199  12.769  -4.003  0.00  0.00     0.302 C 
ATOM      8  N   UNL d   1      12.998  13.557  -4.108  0.00  0.00    -0.203 NA
ATOM      9  O   UNL d   1      13.317  12.279  -4.657  0.00  0.00    -0.263 OA
BRANCH   8  10
ATOM     10  C   UNL d   1      12.914  13.868  -4.874  0.00  0.00     0.127 C 
BRANCH  10  11
ATOM     11  C   UNL d   1      13.148  14.636  -5.038  0.00  0.00     0.119 A 
ATOM     12  O   UNL d   1      12.966  15.311  -4.578  0.00  0.00    -0.304 OA
ATOM     13  C   UNL d   1      13.309  15.961  -4.944  0.00  0.00     0.123 A 
ATOM     14  C   UNL d   1      13.706  15.690  -5.635  0.00  0.00     0.029 A 
ATOM     15  C   UNL d   1      13.599  14.886  -5.678  0.00  0.00     0.028 A 
ENDBRANCH  10  11
ENDBRANCH   8  10
ENDBRANCH   2   7
BRANCH   3  16
ATOM     16  C   UNL d   1      14.274  12.191  -1.364  0.00  0.00     0.086 A 
ATOM     17  C   UNL d   1      14.038  12.593  -0.682  0.00  0.00     0.019 A 
ATOM     18  C   UNL d   1      14.525  12.587  -0.016  0.00  0.00     0.002 A 
ATOM     19  C   UNL d   1      15.247  12.180  -0.031  0.00  0.00     0.000 A 
ATOM     20  C   UNL d   1      15.475  11.781  -0.717  0.00  0.00     0.002 A 
ATOM     21  C   UNL d   1      14.990  11.784  -1.386  0.00  0.00     0.019 A 
ENDBRANCH   3  16
TORSDOF 4
ENDMDL
