MODEL 1
REMARK VINA RESULT:      26.3      0.000      0.000
REMARK  8 active torsions:
REMARK  status: ('A' for Active; 'I' for Inactive)
REMARK    1  A    between atoms: C_14  and  N_1 
REMARK    2  A    between atoms: S_10  and  C_2 
REMARK    3  A    between atoms: C_7  and  C_9 
REMARK       I    between atoms: N_8  and  C_7 
REMARK    4  A    between atoms: C_26  and  S_10 
REMARK    5  A    between atoms: C_13  and  C_18 
REMARK    6  A    between atoms: C_16  and  C_26 
REMARK    7  A    between atoms: O_28  and  C_16 
REMARK    8  A    between atoms: C_31  and  O_28 
ROOT
ATOM      1  N   UNL d   1     -42.712-122.493 -50.013  0.00  0.00    -0.254 N 
ATOM      2  C   UNL d   1     -43.274-121.998 -50.332  0.00  0.00     0.182 A 
ATOM      3  C   UNL d   1     -42.027-122.673 -50.443  0.00  0.00     0.268 A 
ATOM      4  N   UNL d   1     -43.166-121.675 -51.077  0.00  0.00    -0.222 NA
ATOM      5  C   UNL d   1     -41.913-122.355 -51.186  0.00  0.00     0.074 A 
ATOM      6  C   UNL d   1     -42.484-121.848 -51.516  0.00  0.00     0.088 A 
ATOM      7  C   UNL d   1     -41.688-121.701 -52.704  0.00  0.00     0.058 A 
ATOM      8  C   UNL d   1     -42.375-121.520 -52.272  0.00  0.00     0.024 A 
ATOM      9  C   UNL d   1     -41.229-122.528 -51.627  0.00  0.00     0.006 A 
ATOM     10  O   UNL d   1     -41.456-123.179 -50.114  0.00  0.00    -0.267 OA
ATOM     11  C   UNL d   1     -41.123-122.205 -52.371  0.00  0.00     0.005 A 
ENDROOT
BRANCH   7  12
ATOM     12  C   UNL d   1     -41.584-121.373 -53.452  0.00  0.00     0.265 C 
ATOM     13  N   UNL d   1     -41.909-121.713 -54.107  0.00  0.00    -0.272 N 
ATOM     14  C   UNL d   1     -42.360-122.416 -54.013  0.00  0.00     0.083 A 
ATOM     15  C   UNL d   1     -41.808-121.393 -54.847  0.00  0.00     0.083 A 
ATOM     16  C   UNL d   1     -42.689-122.760 -54.686  0.00  0.00     0.024 A 
ATOM     17  C   UNL d   1     -42.588-122.436 -55.435  0.00  0.00     0.062 A 
ATOM     18  C   UNL d   1     -42.136-121.733 -55.518  0.00  0.00     0.024 A 
ATOM     19  O   UNL d   1     -41.123-120.663 -53.517  0.00  0.00    -0.267 OA
BRANCH  17  20
ATOM     20  C   UNL d   1     -42.923-122.789 -56.100  0.00  0.00     0.297 C 
ATOM     21  O   UNL d   1     -42.451-123.240 -56.611  0.00  0.00    -0.264 OA
ATOM     22  N   UNL d   1     -43.734-122.698 -56.263  0.00  0.00    -0.102 N 
ENDBRANCH  17  20
ENDBRANCH   7  12
BRANCH   2  23
ATOM     23  S   UNL d   1     -43.966-121.816 -49.898  0.00  0.00    -0.044 SA
BRANCH  23  24
ATOM     24  C   UNL d   1     -44.588-121.439 -50.270  0.00  0.00     0.107 C 
BRANCH  24  25
ATOM     25  C   UNL d   1     -45.273-121.266 -49.828  0.00  0.00     0.307 C 
ATOM     26  O   UNL d   1     -45.750-121.871 -49.539  0.00  0.00    -0.258 OA
BRANCH  25  27
ATOM     27  O   UNL d   1     -45.466-120.471 -49.685  0.00  0.00    -0.271 OA
BRANCH  27  28
ATOM     28  C   UNL d   1     -46.181-120.301 -49.301  0.00  0.00     0.126 C 
ATOM     29  C   UNL d   1     -46.284-119.558 -49.010  0.00  0.00     0.029 C 
ENDBRANCH  27  28
ENDBRANCH  25  27
ENDBRANCH  24  25
ENDBRANCH  23  24
ENDBRANCH   2  23
BRANCH   1  30
ATOM     30  C   UNL d   1     -42.820-122.816 -49.268  0.00  0.00     0.069 A 
ATOM     31  C   UNL d   1     -42.466-122.478 -48.617  0.00  0.00     0.018 A 
ATOM     32  C   UNL d   1     -42.573-122.800 -47.869  0.00  0.00     0.002 A 
ATOM     33  C   UNL d   1     -43.051-123.481 -47.777  0.00  0.00     0.000 A 
ATOM     34  C   UNL d   1     -43.405-123.817 -48.436  0.00  0.00     0.002 A 
ATOM     35  C   UNL d   1     -43.300-123.497 -49.192  0.00  0.00     0.018 A 
ENDBRANCH   1  30
TORSDOF 8
ENDMDL
MODEL 2
REMARK VINA RESULT:      28.9      1.689      5.542
REMARK  8 active torsions:
REMARK  status: ('A' for Active; 'I' for Inactive)
REMARK    1  A    between atoms: C_14  and  N_1 
REMARK    2  A    between atoms: S_10  and  C_2 
REMARK    3  A    between atoms: C_7  and  C_9 
REMARK       I    between atoms: N_8  and  C_7 
REMARK    4  A    between atoms: C_26  and  S_10 
REMARK    5  A    between atoms: C_13  and  C_18 
REMARK    6  A    between atoms: C_16  and  C_26 
REMARK    7  A    between atoms: O_28  and  C_16 
REMARK    8  A    between atoms: C_31  and  O_28 
ROOT
ATOM      1  N   UNL d   1     -41.936-122.173 -54.027  0.00  0.00    -0.254 N 
ATOM      2  C   UNL d   1     -41.834-121.514 -53.560  0.00  0.00     0.182 A 
ATOM      3  C   UNL d   1     -41.995-122.922 -53.676  0.00  0.00     0.268 A 
ATOM      4  N   UNL d   1     -41.788-121.585 -52.746  0.00  0.00    -0.222 NA
ATOM      5  C   UNL d   1     -41.950-123.001 -52.864  0.00  0.00     0.074 A 
ATOM      6  C   UNL d   1     -41.846-122.329 -52.384  0.00  0.00     0.088 A 
ATOM      7  C   UNL d   1     -41.858-123.153 -51.206  0.00  0.00     0.058 A 
ATOM      8  C   UNL d   1     -41.799-122.401 -51.558  0.00  0.00     0.024 A 
ATOM      9  C   UNL d   1     -42.008-123.747 -52.501  0.00  0.00     0.006 A 
ATOM     10  O   UNL d   1     -42.100-123.593 -54.155  0.00  0.00    -0.267 OA
ATOM     11  C   UNL d   1     -41.962-123.816 -51.688  0.00  0.00     0.005 A 
ENDROOT
BRANCH   7  12
ATOM     12  C   UNL d   1     -41.812-123.219 -50.387  0.00  0.00     0.265 C 
ATOM     13  N   UNL d   1     -42.400-122.943 -49.909  0.00  0.00    -0.272 N 
ATOM     14  C   UNL d   1     -43.070-122.582 -50.266  0.00  0.00     0.083 A 
ATOM     15  C   UNL d   1     -42.357-123.007 -49.101  0.00  0.00     0.083 A 
ATOM     16  C   UNL d   1     -43.669-122.302 -49.773  0.00  0.00     0.024 A 
ATOM     17  C   UNL d   1     -43.626-122.366 -48.954  0.00  0.00     0.062 A 
ATOM     18  C   UNL d   1     -42.951-122.728 -48.609  0.00  0.00     0.024 A 
ATOM     19  O   UNL d   1     -41.123-123.588 -50.055  0.00  0.00    -0.267 OA
BRANCH  17  20
ATOM     20  C   UNL d   1     -44.231-122.081 -48.473  0.00  0.00     0.297 C 
ATOM     21  O   UNL d   1     -44.734-121.484 -48.751  0.00  0.00    -0.264 OA
ATOM     22  N   UNL d   1     -44.342-122.390 -47.709  0.00  0.00    -0.102 N 
ENDBRANCH  17  20
ENDBRANCH   7  12
BRANCH   2  23
ATOM     23  S   UNL d   1     -41.775-120.758 -53.914  0.00  0.00    -0.044 SA
BRANCH  23  24
ATOM     24  C   UNL d   1     -41.962-120.092 -53.477  0.00  0.00     0.107 C 
BRANCH  24  25
ATOM     25  C   UNL d   1     -41.871-119.343 -53.830  0.00  0.00     0.307 C 
ATOM     26  O   UNL d   1     -41.836-119.266 -54.649  0.00  0.00    -0.258 OA
BRANCH  25  27
ATOM     27  O   UNL d   1     -41.815-118.675 -53.341  0.00  0.00    -0.271 OA
BRANCH  27  28
ATOM     28  C   UNL d   1     -41.287-118.072 -53.552  0.00  0.00     0.126 C 
ATOM     29  C   UNL d   1     -41.125-117.504 -53.007  0.00  0.00     0.029 C 
ENDBRANCH  27  28
ENDBRANCH  25  27
ENDBRANCH  24  25
ENDBRANCH  23  24
ENDBRANCH   2  23
BRANCH   1  30
ATOM     30  C   UNL d   1     -41.982-122.102 -54.841  0.00  0.00     0.069 A 
ATOM     31  C   UNL d   1     -41.312-121.951 -55.279  0.00  0.00     0.018 A 
ATOM     32  C   UNL d   1     -41.356-121.878 -56.097  0.00  0.00     0.002 A 
ATOM     33  C   UNL d   1     -42.096-121.961 -56.480  0.00  0.00     0.000 A 
ATOM     34  C   UNL d   1     -42.767-122.113 -56.033  0.00  0.00     0.002 A 
ATOM     35  C   UNL d   1     -42.729-122.187 -55.210  0.00  0.00     0.018 A 
ENDBRANCH   1  30
TORSDOF 8
ENDMDL
