MODEL 1
REMARK VINA RESULT:      11.9      0.000      0.000
REMARK  5 active torsions:
REMARK  status: ('A' for Active; 'I' for Inactive)
REMARK    1  A    between atoms: S_2  and  C_1 
REMARK    2  A    between atoms: C_8  and  S_2 
REMARK    3  A    between atoms: C_23  and  N_7 
REMARK    4  A    between atoms: N_13  and  C_10 
REMARK    5  A    between atoms: C_31  and  C_23 
ROOT
ATOM      1  C   UNL d   1      56.769   0.162  32.583  0.00  0.00     0.144 A 
ATOM      2  C   UNL d   1      58.146   0.311  32.201  0.00  0.00     0.058 A 
ATOM      3  C   UNL d   1      57.551   0.383  32.767  0.00  0.00     0.209 A 
ATOM      4  C   UNL d   1      56.592  -0.130  31.830  0.00  0.00     0.095 A 
ATOM      5  C   UNL d   1      57.969   0.019  31.447  0.00  0.00     0.069 A 
ATOM      6  N   UNL d   1      57.196  -0.201  31.261  0.00  0.00    -0.303 N 
ATOM      7  C   UNL d   1      58.564  -0.053  30.881  0.00  0.00     0.037 A 
ATOM      8  C   UNL d   1      59.338   0.167  31.068  0.00  0.00     0.093 A 
ATOM      9  C   UNL d   1      58.919   0.531  32.387  0.00  0.00     0.036 A 
ATOM     10  C   UNL d   1      59.515   0.459  31.821  0.00  0.00     0.156 A 
ATOM     11  O   UNL d   1      57.728   0.675  33.519  0.00  0.00    -0.286 OA
ATOM     12  F   UNL d   1      60.299   0.681  32.003  0.00  0.00    -0.203 F 
ENDROOT
BRANCH   1  13
ATOM     13  S   UNL d   1      56.170   0.234  33.150  0.00  0.00     0.214 S 
ATOM     14  O   UNL d   1      55.597   0.205  32.542  0.00  0.00    -0.217 OA
ATOM     15  O   UNL d   1      56.743   0.263  33.757  0.00  0.00    -0.217 OA
BRANCH  13  16
ATOM     16  C   UNL d   1      55.563   0.306  33.719  0.00  0.00     0.088 A 
ATOM     17  C   UNL d   1      54.800   0.522  33.489  0.00  0.00     0.011 A 
ATOM     18  C   UNL d   1      54.205   0.592  34.056  0.00  0.00     0.001 A 
ATOM     19  C   UNL d   1      54.634   0.669  32.693  0.00  0.00     0.001 C 
ATOM     20  C   UNL d   1      54.372   0.444  34.856  0.00  0.00     0.000 A 
ATOM     21  C   UNL d   1      55.133   0.228  35.082  0.00  0.00     0.001 A 
ATOM     22  C   UNL d   1      55.730   0.158  34.519  0.00  0.00     0.011 A 
ATOM     23  C   UNL d   1      55.304   0.080  35.877  0.00  0.00     0.000 C 
ENDBRANCH  13  16
ENDBRANCH   1  13
BRANCH   6  24
ATOM     24  C   UNL d   1      57.019  -0.493  30.508  0.00  0.00     0.080 C 
BRANCH  24  25
ATOM     25  C   UNL d   1      56.636  -0.012  29.957  0.00  0.00     0.019 C 
ATOM     26  C   UNL d   1      57.070   0.362  29.362  0.00  0.00     0.002 C 
ENDBRANCH  24  25
ENDBRANCH   6  24
BRANCH   8  27
ATOM     27  N   UNL d   1      59.937   0.095  30.499  0.00  0.00    -0.298 N 
ATOM     28  C   UNL d   1      59.955   0.613  29.856  0.00  0.00     0.107 A 
ATOM     29  C   UNL d   1      60.551   0.543  29.290  0.00  0.00     0.142 A 
ATOM     30  O   UNL d   1      61.128  -0.053  29.377  0.00  0.00    -0.300 OA
ATOM     31  C   UNL d   1      61.104  -0.568  30.024  0.00  0.00     0.142 A 
ATOM     32  C   UNL d   1      60.508  -0.490  30.580  0.00  0.00     0.107 A 
ENDBRANCH   8  27
TORSDOF 5
ENDMDL
MODEL 2
REMARK VINA RESULT:      13.9      4.821      6.694
REMARK  5 active torsions:
REMARK  status: ('A' for Active; 'I' for Inactive)
REMARK    1  A    between atoms: S_2  and  C_1 
REMARK    2  A    between atoms: C_8  and  S_2 
REMARK    3  A    between atoms: C_23  and  N_7 
REMARK    4  A    between atoms: N_13  and  C_10 
REMARK    5  A    between atoms: C_31  and  C_23 
ROOT
ATOM      1  C   UNL d   1      59.201  -2.857  28.850  0.00  0.00     0.144 A 
ATOM      2  C   UNL d   1      58.422  -4.063  28.786  0.00  0.00     0.058 A 
ATOM      3  C   UNL d   1      58.463  -3.241  28.852  0.00  0.00     0.209 A 
ATOM      4  C   UNL d   1      59.895  -3.302  28.782  0.00  0.00     0.095 A 
ATOM      5  C   UNL d   1      59.115  -4.508  28.717  0.00  0.00     0.069 A 
ATOM      6  N   UNL d   1      59.850  -4.131  28.715  0.00  0.00    -0.303 N 
ATOM      7  C   UNL d   1      59.075  -5.329  28.651  0.00  0.00     0.037 A 
ATOM      8  C   UNL d   1      58.341  -5.705  28.653  0.00  0.00     0.093 A 
ATOM      9  C   UNL d   1      57.688  -4.439  28.788  0.00  0.00     0.036 A 
ATOM     10  C   UNL d   1      57.647  -5.260  28.722  0.00  0.00     0.156 A 
ATOM     11  O   UNL d   1      57.770  -2.797  28.921  0.00  0.00    -0.286 OA
ATOM     12  F   UNL d   1      56.907  -5.647  28.724  0.00  0.00    -0.203 F 
ENDROOT
BRANCH   1  13
ATOM     13  S   UNL d   1      59.244  -2.033  28.917  0.00  0.00     0.214 S 
ATOM     14  O   UNL d   1      60.011  -2.104  29.242  0.00  0.00    -0.217 OA
ATOM     15  O   UNL d   1      58.478  -1.963  28.591  0.00  0.00    -0.217 OA
BRANCH  13  16
ATOM     16  C   UNL d   1      59.292  -1.202  28.985  0.00  0.00     0.088 A 
ATOM     17  C   UNL d   1      59.996  -0.809  28.814  0.00  0.00     0.011 A 
ATOM     18  C   UNL d   1      60.037   0.012  28.883  0.00  0.00     0.001 A 
ATOM     19  C   UNL d   1      60.661  -1.238  28.573  0.00  0.00     0.001 C 
ATOM     20  C   UNL d   1      59.369   0.443  29.125  0.00  0.00     0.000 A 
ATOM     21  C   UNL d   1      58.668   0.048  29.296  0.00  0.00     0.001 A 
ATOM     22  C   UNL d   1      58.624  -0.771  29.227  0.00  0.00     0.011 A 
ATOM     23  C   UNL d   1      58.001   0.474  29.537  0.00  0.00     0.000 C 
ENDBRANCH  13  16
ENDBRANCH   1  13
BRANCH   6  24
ATOM     24  C   UNL d   1      60.543  -4.576  28.646  0.00  0.00     0.080 C 
BRANCH  24  25
ATOM     25  C   UNL d   1      60.901  -4.891  29.320  0.00  0.00     0.019 C 
ATOM     26  C   UNL d   1      61.090  -5.694  29.352  0.00  0.00     0.002 C 
ENDBRANCH  24  25
ENDBRANCH   6  24
BRANCH   8  27
ATOM     27  N   UNL d   1      58.298  -6.531  28.587  0.00  0.00    -0.298 N 
ATOM     28  C   UNL d   1      57.561  -6.901  28.557  0.00  0.00     0.107 A 
ATOM     29  C   UNL d   1      57.517  -7.723  28.491  0.00  0.00     0.142 A 
ATOM     30  O   UNL d   1      58.223  -8.167  28.455  0.00  0.00    -0.300 OA
ATOM     31  C   UNL d   1      58.957  -7.789  28.486  0.00  0.00     0.142 A 
ATOM     32  C   UNL d   1      58.990  -6.973  28.552  0.00  0.00     0.107 A 
ENDBRANCH   8  27
TORSDOF 5
ENDMDL
