MODEL 1
REMARK VINA RESULT:      -7.7      0.000      0.000
REMARK  5 active torsions:
REMARK  status: ('A' for Active; 'I' for Inactive)
REMARK    1  A    between atoms: C_10  and  N_3 
REMARK    2  A    between atoms: C_11  and  N_8 
REMARK    3  A    between atoms: C_14  and  C_10 
REMARK    4  A    between atoms: C_19  and  C_11 
REMARK    5  A    between atoms: C_20  and  C_19 
ROOT
ATOM      1  C   UNL d   1     -48.142  11.955  23.349  0.00  0.00     0.174 A 
ATOM      2  C   UNL d   1     -48.268  12.773  23.165  0.00  0.00     0.158 A 
ATOM      3  N   UNL d   1     -46.863  13.025  23.317  0.00  0.00    -0.219 N 
ATOM      4  N   UNL d   1     -48.855  11.591  23.320  0.00  0.00    -0.203 NA
ATOM      5  N   UNL d   1     -47.377  11.696  23.511  0.00  0.00    -0.240 N 
ATOM      6  C   UNL d   1     -46.736  12.206  23.500  0.00  0.00     0.343 A 
ATOM      7  C   UNL d   1     -47.626  13.312  23.149  0.00  0.00     0.287 A 
ATOM      8  N   UNL d   1     -49.057  12.896  23.027  0.00  0.00    -0.279 N 
ATOM      9  C   UNL d   1     -49.430  12.170  23.120  0.00  0.00     0.185 A 
ATOM     10  O   UNL d   1     -45.963  11.926  23.668  0.00  0.00    -0.245 OA
ATOM     11  O   UNL d   1     -47.750  14.113  22.969  0.00  0.00    -0.265 OA
ATOM     12 BR   UNL d   1     -50.269  12.081  23.017  0.00  0.00    -0.008 Br
ATOM     13  C   UNL d   1     -47.249  10.872  23.696  0.00  0.00     0.105 C 
ENDROOT
BRANCH   8  14
ATOM     14  C   UNL d   1     -49.469  13.614  22.822  0.00  0.00     0.082 C 
BRANCH  14  15
ATOM     15  C   UNL d   1     -50.094  13.926  23.253  0.00  0.00     0.019 C 
BRANCH  15  16
ATOM     16  C   UNL d   1     -50.426  14.646  23.087  0.00  0.00     0.002 C 
ATOM     17  C   UNL d   1     -50.714  14.812  22.342  0.00  0.00     0.000 C 
ATOM     18  C   UNL d   1     -50.467  15.213  23.698  0.00  0.00     0.000 C 
ENDBRANCH  15  16
ENDBRANCH  14  15
ENDBRANCH   8  14
BRANCH   3  19
ATOM     19  C   UNL d   1     -46.216  13.564  23.301  0.00  0.00     0.151 C 
BRANCH  19  20
ATOM     20  C   UNL d   1     -45.899  13.809  22.586  0.00  0.00     0.315 C 
ATOM     21  O   UNL d   1     -46.114  14.536  22.256  0.00  0.00    -0.262 OA
ATOM     22  N   UNL d   1     -45.363  13.321  22.199  0.00  0.00    -0.101 N 
ENDBRANCH  19  20
ENDBRANCH   3  19
TORSDOF 5
ENDMDL
MODEL 2
REMARK VINA RESULT:      -7.2      1.533      3.439
REMARK  5 active torsions:
REMARK  status: ('A' for Active; 'I' for Inactive)
REMARK    1  A    between atoms: C_10  and  N_3 
REMARK    2  A    between atoms: C_11  and  N_8 
REMARK    3  A    between atoms: C_14  and  C_10 
REMARK    4  A    between atoms: C_19  and  C_11 
REMARK    5  A    between atoms: C_20  and  C_19 
ROOT
ATOM      1  C   UNL d   1     -49.023  12.077  23.521  0.00  0.00     0.174 A 
ATOM      2  C   UNL d   1     -48.561  12.775  23.385  0.00  0.00     0.158 A 
ATOM      3  N   UNL d   1     -49.764  13.557  23.318  0.00  0.00    -0.219 N 
ATOM      4  N   UNL d   1     -48.513  11.463  23.595  0.00  0.00    -0.203 NA
ATOM      5  N   UNL d   1     -49.844  12.141  23.551  0.00  0.00    -0.240 N 
ATOM      6  C   UNL d   1     -50.225  12.859  23.453  0.00  0.00     0.343 A 
ATOM      7  C   UNL d   1     -48.932  13.519  23.283  0.00  0.00     0.287 A 
ATOM      8  N   UNL d   1     -47.776  12.577  23.378  0.00  0.00    -0.279 N 
ATOM      9  C   UNL d   1     -47.735  11.767  23.507  0.00  0.00     0.185 A 
ATOM     10  O   UNL d   1     -51.063  12.907  23.487  0.00  0.00    -0.245 OA
ATOM     11  O   UNL d   1     -48.480  14.203  23.150  0.00  0.00    -0.265 OA
ATOM     12 BR   UNL d   1     -46.991  11.355  23.537  0.00  0.00    -0.008 Br
ATOM     13  C   UNL d   1     -50.309  11.438  23.687  0.00  0.00     0.105 C 
ENDROOT
BRANCH   8  14
ATOM     14  C   UNL d   1     -47.091  13.071  23.265  0.00  0.00     0.082 C 
BRANCH  14  15
ATOM     15  C   UNL d   1     -46.660  13.110  22.567  0.00  0.00     0.019 C 
BRANCH  15  16
ATOM     16  C   UNL d   1     -45.989  13.556  22.489  0.00  0.00     0.002 C 
ATOM     17  C   UNL d   1     -45.975  14.337  22.726  0.00  0.00     0.000 C 
ATOM     18  C   UNL d   1     -45.311  13.196  22.160  0.00  0.00     0.000 C 
ENDBRANCH  15  16
ENDBRANCH  14  15
ENDBRANCH   8  14
BRANCH   3  19
ATOM     19  C   UNL d   1     -50.139  14.304  23.215  0.00  0.00     0.151 C 
BRANCH  19  20
ATOM     20  C   UNL d   1     -50.181  14.647  22.473  0.00  0.00     0.315 C 
ATOM     21  O   UNL d   1     -50.477  14.224  21.828  0.00  0.00    -0.262 OA
ATOM     22  N   UNL d   1     -49.925  15.423  22.377  0.00  0.00    -0.101 N 
ENDBRANCH  19  20
ENDBRANCH   3  19
TORSDOF 5
ENDMDL
MODEL 3
REMARK VINA RESULT:      -6.8      1.875      4.090
REMARK  5 active torsions:
REMARK  status: ('A' for Active; 'I' for Inactive)
REMARK    1  A    between atoms: C_10  and  N_3 
REMARK    2  A    between atoms: C_11  and  N_8 
REMARK    3  A    between atoms: C_14  and  C_10 
REMARK    4  A    between atoms: C_19  and  C_11 
REMARK    5  A    between atoms: C_20  and  C_19 
ROOT
ATOM      1  C   UNL d   1     -48.209  14.541  22.722  0.00  0.00     0.174 A 
ATOM      2  C   UNL d   1     -48.301  13.782  23.088  0.00  0.00     0.158 A 
ATOM      3  N   UNL d   1     -49.727  13.956  23.091  0.00  0.00    -0.219 N 
ATOM      4  N   UNL d   1     -47.424  14.662  22.617  0.00  0.00    -0.203 NA
ATOM      5  N   UNL d   1     -48.881  14.986  22.551  0.00  0.00    -0.240 N 
ATOM      6  C   UNL d   1     -49.634  14.716  22.725  0.00  0.00     0.343 A 
ATOM      7  C   UNL d   1     -49.063  13.487  23.274  0.00  0.00     0.287 A 
ATOM      8  N   UNL d   1     -47.571  13.450  23.201  0.00  0.00    -0.279 N 
ATOM      9  C   UNL d   1     -47.020  13.987  22.913  0.00  0.00     0.185 A 
ATOM     10  O   UNL d   1     -50.309  15.182  22.545  0.00  0.00    -0.245 OA
ATOM     11  O   UNL d   1     -49.154  12.743  23.632  0.00  0.00    -0.265 OA
ATOM     12 BR   UNL d   1     -46.185  13.829  22.937  0.00  0.00    -0.008 Br
ATOM     13  C   UNL d   1     -48.788  15.751  22.183  0.00  0.00     0.105 C 
ENDROOT
BRANCH   8  14
ATOM     14  C   UNL d   1     -47.361  12.699  23.545  0.00  0.00     0.082 C 
BRANCH  14  15
ATOM     15  C   UNL d   1     -46.812  12.181  23.222  0.00  0.00     0.019 C 
BRANCH  15  16
ATOM     16  C   UNL d   1     -46.666  11.447  23.531  0.00  0.00     0.002 C 
ATOM     17  C   UNL d   1     -47.276  10.924  23.676  0.00  0.00     0.000 C 
ATOM     18  C   UNL d   1     -45.875  11.238  23.698  0.00  0.00     0.000 C 
ENDBRANCH  15  16
ENDBRANCH  14  15
ENDBRANCH   8  14
BRANCH   3  19
ATOM     19  C   UNL d   1     -50.494  13.662  23.277  0.00  0.00     0.151 C 
BRANCH  19  20
ATOM     20  C   UNL d   1     -50.837  13.081  22.813  0.00  0.00     0.315 C 
ATOM     21  O   UNL d   1     -51.064  13.241  22.035  0.00  0.00    -0.262 OA
ATOM     22  N   UNL d   1     -50.954  12.333  23.133  0.00  0.00    -0.101 N 
ENDBRANCH  19  20
ENDBRANCH   3  19
TORSDOF 5
ENDMDL
MODEL 4
REMARK VINA RESULT:      -6.6      1.864      4.126
REMARK  5 active torsions:
REMARK  status: ('A' for Active; 'I' for Inactive)
REMARK    1  A    between atoms: C_10  and  N_3 
REMARK    2  A    between atoms: C_11  and  N_8 
REMARK    3  A    between atoms: C_14  and  C_10 
REMARK    4  A    between atoms: C_19  and  C_11 
REMARK    5  A    between atoms: C_20  and  C_19 
ROOT
ATOM      1  C   UNL d   1     -48.964  14.467  22.595  0.00  0.00     0.174 A 
ATOM      2  C   UNL d   1     -48.515  13.752  22.664  0.00  0.00     0.158 A 
ATOM      3  N   UNL d   1     -49.727  12.984  22.603  0.00  0.00    -0.219 N 
ATOM      4  N   UNL d   1     -48.445  15.078  22.609  0.00  0.00    -0.203 NA
ATOM      5  N   UNL d   1     -49.785  14.419  22.533  0.00  0.00    -0.240 N 
ATOM      6  C   UNL d   1     -50.177  13.700  22.534  0.00  0.00     0.343 A 
ATOM      7  C   UNL d   1     -48.897  13.006  22.668  0.00  0.00     0.287 A 
ATOM      8  N   UNL d   1     -47.728  13.936  22.718  0.00  0.00    -0.279 N 
ATOM      9  C   UNL d   1     -47.674  14.755  22.685  0.00  0.00     0.185 A 
ATOM     10  O   UNL d   1     -51.013  13.668  22.470  0.00  0.00    -0.245 OA
ATOM     11  O   UNL d   1     -48.456  12.305  22.735  0.00  0.00    -0.265 OA
ATOM     12 BR   UNL d   1     -46.926  15.157  22.726  0.00  0.00    -0.008 Br
ATOM     13  C   UNL d   1     -50.238  15.140  22.464  0.00  0.00     0.105 C 
ENDROOT
BRANCH   8  14
ATOM     14  C   UNL d   1     -47.052  13.423  22.795  0.00  0.00     0.082 C 
BRANCH  14  15
ATOM     15  C   UNL d   1     -46.391  13.453  22.309  0.00  0.00     0.019 C 
BRANCH  15  16
ATOM     16  C   UNL d   1     -45.753  12.964  22.405  0.00  0.00     0.002 C 
ATOM     17  C   UNL d   1     -45.732  12.415  23.008  0.00  0.00     0.000 C 
ATOM     18  C   UNL d   1     -45.116  13.036  21.869  0.00  0.00     0.000 C 
ENDBRANCH  15  16
ENDBRANCH  14  15
ENDBRANCH   8  14
BRANCH   3  19
ATOM     19  C   UNL d   1     -50.113  12.236  22.607  0.00  0.00     0.151 C 
BRANCH  19  20
ATOM     20  C   UNL d   1     -50.334  11.888  23.315  0.00  0.00     0.315 C 
ATOM     21  O   UNL d   1     -49.832  11.355  23.698  0.00  0.00    -0.262 OA
ATOM     22  N   UNL d   1     -51.064  12.076  23.641  0.00  0.00    -0.101 N 
ENDBRANCH  19  20
ENDBRANCH   3  19
TORSDOF 5
ENDMDL
MODEL 5
REMARK VINA RESULT:      -6.6      1.435      2.332
REMARK  5 active torsions:
REMARK  status: ('A' for Active; 'I' for Inactive)
REMARK    1  A    between atoms: C_10  and  N_3 
REMARK    2  A    between atoms: C_11  and  N_8 
REMARK    3  A    between atoms: C_14  and  C_10 
REMARK    4  A    between atoms: C_19  and  C_11 
REMARK    5  A    between atoms: C_20  and  C_19 
ROOT
ATOM      1  C   UNL d   1     -47.153  13.978  22.809  0.00  0.00     0.174 A 
ATOM      2  C   UNL d   1     -47.891  13.574  22.922  0.00  0.00     0.158 A 
ATOM      3  N   UNL d   1     -47.186  12.418  23.398  0.00  0.00    -0.219 N 
ATOM      4  N   UNL d   1     -47.321  14.707  22.523  0.00  0.00    -0.203 NA
ATOM      5  N   UNL d   1     -46.452  13.587  22.995  0.00  0.00    -0.240 N 
ATOM      6  C   UNL d   1     -46.448  12.821  23.286  0.00  0.00     0.343 A 
ATOM      7  C   UNL d   1     -47.908  12.791  23.218  0.00  0.00     0.287 A 
ATOM      8  N   UNL d   1     -48.498  14.064  22.704  0.00  0.00    -0.279 N 
ATOM      9  C   UNL d   1     -48.156  14.769  22.455  0.00  0.00     0.185 A 
ATOM     10  O   UNL d   1     -45.725  12.437  23.470  0.00  0.00    -0.245 OA
ATOM     11  O   UNL d   1     -48.631  12.396  23.329  0.00  0.00    -0.265 OA
ATOM     12 BR   UNL d   1     -48.626  15.423  22.182  0.00  0.00    -0.008 Br
ATOM     13  C   UNL d   1     -45.710  13.992  22.882  0.00  0.00     0.105 C 
ENDROOT
BRANCH   8  14
ATOM     14  C   UNL d   1     -49.339  13.926  22.711  0.00  0.00     0.082 C 
BRANCH  14  15
ATOM     15  C   UNL d   1     -49.842  14.107  22.087  0.00  0.00     0.019 C 
BRANCH  15  16
ATOM     16  C   UNL d   1     -50.629  13.917  22.089  0.00  0.00     0.002 C 
ATOM     17  C   UNL d   1     -50.992  13.640  22.765  0.00  0.00     0.000 C 
ATOM     18  C   UNL d   1     -51.060  14.013  21.380  0.00  0.00     0.000 C 
ENDBRANCH  15  16
ENDBRANCH  14  15
ENDBRANCH   8  14
BRANCH   3  19
ATOM     19  C   UNL d   1     -47.201  11.630  23.696  0.00  0.00     0.151 C 
BRANCH  19  20
ATOM     20  C   UNL d   1     -47.050  10.997  23.198  0.00  0.00     0.315 C 
ATOM     21  O   UNL d   1     -47.600  10.772  22.623  0.00  0.00    -0.262 OA
ATOM     22  N   UNL d   1     -46.343  10.586  23.279  0.00  0.00    -0.101 N 
ENDBRANCH  19  20
ENDBRANCH   3  19
TORSDOF 5
ENDMDL
MODEL 6
REMARK VINA RESULT:      -5.9      1.798      4.154
REMARK  5 active torsions:
REMARK  status: ('A' for Active; 'I' for Inactive)
REMARK    1  A    between atoms: C_10  and  N_3 
REMARK    2  A    between atoms: C_11  and  N_8 
REMARK    3  A    between atoms: C_14  and  C_10 
REMARK    4  A    between atoms: C_19  and  C_11 
REMARK    5  A    between atoms: C_20  and  C_19 
ROOT
ATOM      1  C   UNL d   1     -47.670  13.769  22.558  0.00  0.00     0.174 A 
ATOM      2  C   UNL d   1     -47.572  13.039  22.979  0.00  0.00     0.158 A 
ATOM      3  N   UNL d   1     -48.992  12.957  23.170  0.00  0.00    -0.219 N 
ATOM      4  N   UNL d   1     -46.941  14.019  22.338  0.00  0.00    -0.203 NA
ATOM      5  N   UNL d   1     -48.430  14.071  22.457  0.00  0.00    -0.240 N 
ATOM      6  C   UNL d   1     -49.091  13.687  22.750  0.00  0.00     0.343 A 
ATOM      7  C   UNL d   1     -48.235  12.630  23.286  0.00  0.00     0.287 A 
ATOM      8  N   UNL d   1     -46.784  12.854  23.008  0.00  0.00    -0.279 N 
ATOM      9  C   UNL d   1     -46.384  13.454  22.615  0.00  0.00     0.185 A 
ATOM     10  O   UNL d   1     -49.859  14.009  22.637  0.00  0.00    -0.245 OA
ATOM     11  O   UNL d   1     -48.138  11.915  23.698  0.00  0.00    -0.265 OA
ATOM     12 BR   UNL d   1     -45.538  13.450  22.532  0.00  0.00    -0.008 Br
ATOM     13  C   UNL d   1     -48.529  14.806  22.033  0.00  0.00     0.105 C 
ENDROOT
BRANCH   8  14
ATOM     14  C   UNL d   1     -46.395  12.184  23.364  0.00  0.00     0.082 C 
BRANCH  14  15
ATOM     15  C   UNL d   1     -45.917  11.656  22.954  0.00  0.00     0.019 C 
BRANCH  15  16
ATOM     16  C   UNL d   1     -45.516  11.054  23.318  0.00  0.00     0.002 C 
ATOM     17  C   UNL d   1     -45.916  10.453  23.698  0.00  0.00     0.000 C 
ATOM     18  C   UNL d   1     -44.681  11.065  23.293  0.00  0.00     0.000 C 
ENDBRANCH  15  16
ENDBRANCH  14  15
ENDBRANCH   8  14
BRANCH   3  19
ATOM     19  C   UNL d   1     -49.661  12.548  23.478  0.00  0.00     0.151 C 
BRANCH  19  20
ATOM     20  C   UNL d   1     -50.127  12.087  22.986  0.00  0.00     0.315 C 
ATOM     21  O   UNL d   1     -49.796  11.469  22.549  0.00  0.00    -0.262 OA
ATOM     22  N   UNL d   1     -50.931  12.248  22.933  0.00  0.00    -0.101 N 
ENDBRANCH  19  20
ENDBRANCH   3  19
TORSDOF 5
ENDMDL
MODEL 7
REMARK VINA RESULT:      -5.9      8.943      9.975
REMARK  5 active torsions:
REMARK  status: ('A' for Active; 'I' for Inactive)
REMARK    1  A    between atoms: C_10  and  N_3 
REMARK    2  A    between atoms: C_11  and  N_8 
REMARK    3  A    between atoms: C_14  and  C_10 
REMARK    4  A    between atoms: C_19  and  C_11 
REMARK    5  A    between atoms: C_20  and  C_19 
ROOT
ATOM      1  C   UNL d   1     -40.476  15.432  18.609  0.00  0.00     0.174 A 
ATOM      2  C   UNL d   1     -39.846  15.098  19.068  0.00  0.00     0.158 A 
ATOM      3  N   UNL d   1     -39.220  14.625  17.865  0.00  0.00    -0.219 N 
ATOM      4  N   UNL d   1     -40.986  15.779  19.120  0.00  0.00    -0.203 NA
ATOM      5  N   UNL d   1     -40.458  15.352  17.789  0.00  0.00    -0.240 N 
ATOM      6  C   UNL d   1     -39.850  14.959  17.406  0.00  0.00     0.343 A 
ATOM      7  C   UNL d   1     -39.214  14.692  18.695  0.00  0.00     0.287 A 
ATOM      8  N   UNL d   1     -39.981  15.245  19.853  0.00  0.00    -0.279 N 
ATOM      9  C   UNL d   1     -40.685  15.666  19.897  0.00  0.00     0.185 A 
ATOM     10  O   UNL d   1     -39.848  14.886  16.569  0.00  0.00    -0.245 OA
ATOM     11  O   UNL d   1     -38.597  14.365  19.144  0.00  0.00    -0.265 OA
ATOM     12 BR   UNL d   1     -41.009  15.922  20.640  0.00  0.00    -0.008 Br
ATOM     13  C   UNL d   1     -41.093  15.689  17.327  0.00  0.00     0.105 C 
ENDROOT
BRANCH   8  14
ATOM     14  C   UNL d   1     -39.518  15.029  20.535  0.00  0.00     0.082 C 
BRANCH  14  15
ATOM     15  C   UNL d   1     -39.825  14.667  21.205  0.00  0.00     0.019 C 
BRANCH  15  16
ATOM     16  C   UNL d   1     -39.364  14.436  21.829  0.00  0.00     0.002 C 
ATOM     17  C   UNL d   1     -38.867  14.965  22.202  0.00  0.00     0.000 C 
ATOM     18  C   UNL d   1     -39.411  13.641  22.082  0.00  0.00     0.000 C 
ENDBRANCH  15  16
ENDBRANCH  14  15
ENDBRANCH   8  14
BRANCH   3  19
ATOM     19  C   UNL d   1     -38.587  14.218  17.488  0.00  0.00     0.151 C 
BRANCH  19  20
ATOM     20  C   UNL d   1     -38.694  13.455  17.208  0.00  0.00     0.315 C 
ATOM     21  O   UNL d   1     -39.072  12.884  17.671  0.00  0.00    -0.262 OA
ATOM     22  N   UNL d   1     -38.420  13.264  16.457  0.00  0.00    -0.101 N 
ENDBRANCH  19  20
ENDBRANCH   3  19
TORSDOF 5
ENDMDL
MODEL 8
REMARK VINA RESULT:      -5.3      9.226     10.385
REMARK  5 active torsions:
REMARK  status: ('A' for Active; 'I' for Inactive)
REMARK    1  A    between atoms: C_10  and  N_3 
REMARK    2  A    between atoms: C_11  and  N_8 
REMARK    3  A    between atoms: C_14  and  C_10 
REMARK    4  A    between atoms: C_19  and  C_11 
REMARK    5  A    between atoms: C_20  and  C_19 
ROOT
ATOM      1  C   UNL d   1     -38.615  14.396  18.011  0.00  0.00     0.174 A 
ATOM      2  C   UNL d   1     -39.193  14.627  18.587  0.00  0.00     0.158 A 
ATOM      3  N   UNL d   1     -39.895  15.376  17.582  0.00  0.00    -0.219 N 
ATOM      4  N   UNL d   1     -38.079  13.931  18.383  0.00  0.00    -0.203 NA
ATOM      5  N   UNL d   1     -38.695  14.663  17.235  0.00  0.00    -0.240 N 
ATOM      6  C   UNL d   1     -39.317  15.145  17.006  0.00  0.00     0.343 A 
ATOM      7  C   UNL d   1     -39.836  15.119  18.372  0.00  0.00     0.287 A 
ATOM      8  N   UNL d   1     -39.001  14.300  19.302  0.00  0.00    -0.279 N 
ATOM      9  C   UNL d   1     -38.312  13.867  19.188  0.00  0.00     0.185 A 
ATOM     10  O   UNL d   1     -39.384  15.409  16.212  0.00  0.00    -0.245 OA
ATOM     11  O   UNL d   1     -40.403  15.346  18.937  0.00  0.00    -0.265 OA
ATOM     12 BR   UNL d   1     -37.940  13.441  19.822  0.00  0.00    -0.008 Br
ATOM     13  C   UNL d   1     -38.113  14.431  16.655  0.00  0.00     0.105 C 
ENDROOT
BRANCH   8  14
ATOM     14  C   UNL d   1     -39.399  14.361  20.053  0.00  0.00     0.082 C 
BRANCH  14  15
ATOM     15  C   UNL d   1     -39.025  14.550  20.760  0.00  0.00     0.019 C 
BRANCH  15  16
ATOM     16  C   UNL d   1     -39.429  14.687  21.448  0.00  0.00     0.002 C 
ATOM     17  C   UNL d   1     -39.460  15.435  21.774  0.00  0.00     0.000 C 
ATOM     18  C   UNL d   1     -39.814  14.044  21.815  0.00  0.00     0.000 C 
ENDBRANCH  15  16
ENDBRANCH  14  15
ENDBRANCH   8  14
BRANCH   3  19
ATOM     19  C   UNL d   1     -40.540  15.871  17.365  0.00  0.00     0.151 C 
BRANCH  19  20
ATOM     20  C   UNL d   1     -41.190  15.557  16.976  0.00  0.00     0.315 C 
ATOM     21  O   UNL d   1     -41.571  14.884  17.267  0.00  0.00    -0.262 OA
ATOM     22  N   UNL d   1     -41.459  15.922  16.290  0.00  0.00    -0.101 N 
ENDBRANCH  19  20
ENDBRANCH   3  19
TORSDOF 5
ENDMDL
