MODEL 1
REMARK VINA RESULT:      15.4      0.000      0.000
REMARK  6 active torsions:
REMARK  status: ('A' for Active; 'I' for Inactive)
REMARK    1  A    between atoms: C_6  and  C_1 
REMARK    2  A    between atoms: C_10  and  N_3 
REMARK    3  A    between atoms: O_7  and  C_6 
REMARK    4  A    between atoms: C_8  and  O_7 
REMARK    5  A    between atoms: O_11  and  C_9 
REMARK    6  A    between atoms: C_17  and  C_10 
ROOT
ATOM      1  C   UNL d   1      46.290 -17.630  43.578  0.00  0.00     0.173 A 
ATOM      2  N   UNL d   1      46.467 -17.911  44.345  0.00  0.00    -0.225 NA
ATOM      3  N   UNL d   1      46.201 -18.304  43.108  0.00  0.00    -0.287 N 
ATOM      4  C   UNL d   1      46.315 -18.975  43.556  0.00  0.00     0.083 A 
ATOM      5  C   UNL d   1      46.484 -18.726  44.338  0.00  0.00     0.099 A 
ATOM      6  C   UNL d   1      46.294 -19.792  43.378  0.00  0.00     0.019 A 
ATOM      7  C   UNL d   1      46.623 -19.305  44.906  0.00  0.00     0.021 A 
ATOM      8  C   UNL d   1      46.435 -20.330  43.961  0.00  0.00     0.002 A 
ATOM      9  C   UNL d   1      46.604 -20.081  44.744  0.00  0.00     0.002 A 
ENDROOT
BRANCH   1  10
ATOM     10  C   UNL d   1      46.269 -16.820  43.563  0.00  0.00     0.160 C 
BRANCH  10  11
ATOM     11  O   UNL d   1      45.800 -16.395  44.116  0.00  0.00    -0.300 OA
BRANCH  11  12
ATOM     12  C   UNL d   1      45.869 -15.563  44.195  0.00  0.00     0.122 A 
ATOM     13  C   UNL d   1      45.291 -15.141  44.608  0.00  0.00     0.117 A 
ATOM     14  C   UNL d   1      45.342 -14.314  44.698  0.00  0.00     0.026 A 
ATOM     15  C   UNL d   1      45.988 -13.935  44.362  0.00  0.00     0.002 A 
ATOM     16  C   UNL d   1      46.569 -14.357  43.948  0.00  0.00     0.002 A 
ATOM     17  C   UNL d   1      46.517 -15.179  43.859  0.00  0.00     0.027 A 
BRANCH  13  18
ATOM     18  O   UNL d   1      44.643 -15.549  44.941  0.00  0.00    -0.326 OA
ATOM     19  C   UNL d   1      43.871 -15.200  44.955  0.00  0.00     0.181 C 
ENDBRANCH  13  18
ENDBRANCH  11  12
ENDBRANCH  10  11
ENDBRANCH   1  10
BRANCH   3  20
ATOM     20  C   UNL d   1      46.028 -18.138  42.346  0.00  0.00     0.082 C 
BRANCH  20  21
ATOM     21  C   UNL d   1      46.596 -18.161  41.747  0.00  0.00     0.019 C 
ATOM     22  C   UNL d   1      46.481 -18.543  41.028  0.00  0.00     0.002 C 
ENDBRANCH  20  21
ENDBRANCH   3  20
TORSDOF 6
ENDMDL
