MODEL 1
REMARK VINA RESULT:      15.2      0.000      0.000
REMARK  1 active torsions:
REMARK  status: ('A' for Active; 'I' for Inactive)
REMARK    1  A    between atoms: C_6  and  C_1 
ROOT
ATOM      1  C   UNL d   1      58.646  49.698  50.746  0.00  0.00     0.162 A 
ATOM      2  N   UNL d   1      57.963  49.692  51.151  0.00  0.00    -0.225 NA
ATOM      3  N   UNL d   1      58.458  49.704  49.938  0.00  0.00    -0.225 NA
ATOM      4  C   UNL d   1      57.330  49.694  50.631  0.00  0.00     0.101 A 
ATOM      5  C   UNL d   1      57.643  49.701  49.866  0.00  0.00     0.101 A 
ATOM      6  C   UNL d   1      56.544  49.689  50.765  0.00  0.00     0.021 A 
ATOM      7  C   UNL d   1      57.164  49.705  49.248  0.00  0.00     0.021 A 
ATOM      8  C   UNL d   1      56.037  49.693  50.102  0.00  0.00     0.002 A 
ATOM      9  C   UNL d   1      56.350  49.701  49.338  0.00  0.00     0.002 A 
ENDROOT
BRANCH   1  10
ATOM     10  C   UNL d   1      59.380  49.699  50.985  0.00  0.00     0.036 A 
ATOM     11  C   UNL d   1      59.989  49.697  50.430  0.00  0.00     0.005 A 
ATOM     12  C   UNL d   1      60.786  49.698  50.695  0.00  0.00     0.021 A 
ATOM     13  C   UNL d   1      60.927  49.701  51.531  0.00  0.00     0.103 A 
ATOM     14  C   UNL d   1      60.330  49.702  52.057  0.00  0.00     0.021 A 
ATOM     15  N   UNL d   1      61.703  49.702  51.848  0.00  0.00    -0.148 N 
ATOM     16  C   UNL d   1      59.533  49.701  51.792  0.00  0.00     0.005 A 
ENDBRANCH   1  10
TORSDOF 1
ENDMDL
