MODEL 1
REMARK VINA RESULT:      47.6      0.000      0.000
REMARK  3 active torsions:
REMARK  status: ('A' for Active; 'I' for Inactive)
REMARK    1  A    between atoms: C_10  and  N_1 
REMARK    2  A    between atoms: C_11  and  C_14 
REMARK    3  A    between atoms: O_20  and  C_11 
ROOT
ATOM      1  N   UNL d   1     -54.738-101.384 -40.942  0.00  0.00    -0.242 N 
ATOM      2  C   UNL d   1     -54.727-100.823 -40.360  0.00  0.00     0.267 A 
ATOM      3  C   UNL d   1     -54.752-102.141 -40.617  0.00  0.00     0.267 A 
ATOM      4  C   UNL d   1     -54.735-101.236 -39.634  0.00  0.00     0.061 A 
ATOM      5  C   UNL d   1     -54.750-102.035 -39.790  0.00  0.00     0.061 A 
ATOM      6  C   UNL d   1     -54.761-102.587 -39.171  0.00  0.00     0.005 A 
ATOM      7  C   UNL d   1     -54.730-100.962 -38.854  0.00  0.00     0.005 A 
ATOM      8  C   UNL d   1     -54.755-102.307 -38.399  0.00  0.00     0.000 A 
ATOM      9  C   UNL d   1     -54.740-101.507 -38.243  0.00  0.00     0.000 A 
ATOM     10  O   UNL d   1     -54.712-100.008 -40.497  0.00  0.00    -0.267 OA
ATOM     11  O   UNL d   1     -54.766-102.877 -41.028  0.00  0.00    -0.267 OA
ATOM     12  C   UNL d   1     -54.766-102.879 -37.766  0.00  0.00     0.000 C 
ATOM     13  C   UNL d   1     -54.735-101.214 -37.441  0.00  0.00     0.000 C 
ENDROOT
BRANCH   1  14
ATOM     14  C   UNL d   1     -54.736-101.295 -41.759  0.00  0.00     0.070 A 
ATOM     15  C   UNL d   1     -54.713-101.963 -42.251  0.00  0.00     0.018 A 
ATOM     16  C   UNL d   1     -54.711-101.888 -43.066  0.00  0.00     0.007 A 
ATOM     17  C   UNL d   1     -54.732-101.132 -43.387  0.00  0.00     0.063 A 
ATOM     18  C   UNL d   1     -54.755-100.458 -42.900  0.00  0.00     0.007 A 
ATOM     19  C   UNL d   1     -54.756-100.556 -42.089  0.00  0.00     0.018 A 
BRANCH  17  20
ATOM     20  C   UNL d   1     -54.730-101.039 -44.227  0.00  0.00     0.296 C 
ATOM     21  O   UNL d   1     -54.734-100.299 -44.557  0.00  0.00    -0.259 OA
BRANCH  20  22
ATOM     22  O   UNL d   1     -54.724-101.711 -44.697  0.00  0.00    -0.296 OA
ATOM     23  C   UNL d   1     -54.728-101.637 -45.511  0.00  0.00     0.185 C 
ENDBRANCH  20  22
ENDBRANCH  17  20
ENDBRANCH   1  14
TORSDOF 3
ENDMDL
