MODEL 1
REMARK VINA RESULT:      99.1      0.000      0.000
REMARK  6 active torsions:
REMARK  status: ('A' for Active; 'I' for Inactive)
REMARK    1  A    between atoms: C_11  and  N_3 
REMARK    2  A    between atoms: C_10  and  C_7 
REMARK       I    between atoms: N_19  and  C_10 
REMARK    3  A    between atoms: C_21  and  C_11 
REMARK    4  A    between atoms: N_15  and  C_23 
REMARK    5  A    between atoms: C_22  and  N_19 
REMARK    6  A    between atoms: C_23  and  C_22 
ROOT
ATOM      1  C   UNL d   1     -56.260-100.086 -43.742  0.00  0.00     0.154 A 
ATOM      2  C   UNL d   1     -56.781 -99.827 -43.157  0.00  0.00     0.093 A 
ATOM      3  N   UNL d   1     -55.626-100.459 -43.365  0.00  0.00    -0.286 N 
ATOM      4  N   UNL d   1     -56.429 -99.949 -44.536  0.00  0.00    -0.210 NA
ATOM      5  C   UNL d   1     -57.471 -99.431 -43.366  0.00  0.00     0.269 A 
ATOM      6  N   UNL d   1     -57.642 -99.293 -44.160  0.00  0.00    -0.258 N 
ATOM      7  C   UNL d   1     -55.752-100.432 -42.556  0.00  0.00     0.124 A 
ATOM      8  C   UNL d   1     -57.121 -99.553 -44.745  0.00  0.00     0.152 A 
ATOM      9  C   UNL d   1     -56.465-100.042 -42.423  0.00  0.00     0.030 A 
ATOM     10  C   UNL d   1     -58.332 -98.897 -44.369  0.00  0.00     0.084 A 
ATOM     11  O   UNL d   1     -57.991 -99.171 -42.781  0.00  0.00    -0.266 OA
ATOM     12  C   UNL d   1     -57.290 -99.416 -45.539  0.00  0.00     0.038 A 
ATOM     13  C   UNL d   1     -58.505 -98.759 -45.165  0.00  0.00     0.019 A 
ATOM     14  C   UNL d   1     -57.984 -99.018 -45.750  0.00  0.00     0.005 A 
ENDROOT
BRANCH   7  15
ATOM     15  C   UNL d   1     -55.249-100.743 -41.981  0.00  0.00     0.295 C 
ATOM     16  O   UNL d   1     -54.712-100.259 -41.588  0.00  0.00    -0.264 OA
ATOM     17  N   UNL d   1     -55.290-101.553 -41.802  0.00  0.00    -0.204 NA
BRANCH  17  18
ATOM     18  C   UNL d   1     -54.786-101.873 -41.225  0.00  0.00     0.121 C 
BRANCH  18  19
ATOM     19  C   UNL d   1     -54.944-102.615 -40.907  0.00  0.00     0.101 C 
BRANCH  19  20
ATOM     20  N   UNL d   1     -55.327-102.679 -40.179  0.00  0.00    -0.298 N 
ATOM     21  C   UNL d   1     -54.882-102.716 -39.480  0.00  0.00     0.107 A 
ATOM     22  C   UNL d   1     -55.269-102.781 -38.745  0.00  0.00     0.142 A 
ATOM     23  O   UNL d   1     -56.097-102.808 -38.716  0.00  0.00    -0.300 OA
ATOM     24  C   UNL d   1     -56.537-102.772 -39.412  0.00  0.00     0.142 A 
ATOM     25  C   UNL d   1     -56.150-102.707 -40.146  0.00  0.00     0.107 A 
ENDBRANCH  19  20
ENDBRANCH  18  19
ENDBRANCH  17  18
ENDBRANCH   7  15
BRANCH   3  26
ATOM     26  C   UNL d   1     -54.978-100.801 -43.748  0.00  0.00     0.082 C 
BRANCH  26  27
ATOM     27  C   UNL d   1     -55.073-101.478 -44.205  0.00  0.00     0.018 A 
ATOM     28  C   UNL d   1     -55.490-102.122 -43.911  0.00  0.00     0.002 A 
ATOM     29  C   UNL d   1     -55.585-102.792 -44.362  0.00  0.00     0.000 A 
ATOM     30  C   UNL d   1     -55.262-102.833 -45.121  0.00  0.00     0.000 A 
ATOM     31  C   UNL d   1     -54.845-102.197 -45.423  0.00  0.00     0.000 A 
ATOM     32  C   UNL d   1     -54.750-101.519 -44.965  0.00  0.00     0.002 A 
ENDBRANCH  26  27
ENDBRANCH   3  26
TORSDOF 6
ENDMDL
