MODEL 1
REMARK VINA RESULT:      -6.4      0.000      0.000
REMARK  5 active torsions:
REMARK  status: ('A' for Active; 'I' for Inactive)
REMARK    1  A    between atoms: C_2  and  N_1 
REMARK    2  A    between atoms: O_4  and  N_1 
REMARK    3  A    between atoms: C_8  and  C_2 
REMARK    4  A    between atoms: C_3  and  O_4 
REMARK    5  A    between atoms: C_5  and  C_3 
ROOT
ATOM      1  O   UNL d   1     -47.872  13.846  22.461  0.00  0.00    -0.168 OA
ENDROOT
BRANCH   1   2
ATOM      2  C   UNL d   1     -47.023  13.836  22.794  0.00  0.00     0.319 C 
ATOM      3  O   UNL d   1     -46.576  14.605  22.930  0.00  0.00    -0.257 OA
BRANCH   2   4
ATOM      4  C   UNL d   1     -46.657  13.113  22.973  0.00  0.00     0.065 A 
ATOM      5  C   UNL d   1     -45.949  12.902  22.612  0.00  0.00     0.006 A 
ATOM      6  C   UNL d   1     -45.600  12.197  22.793  0.00  0.00     0.007 A 
ATOM      7  C   UNL d   1     -45.931  11.671  23.336  0.00  0.00     0.035 A 
ATOM      8  C   UNL d   1     -46.641  11.883  23.698  0.00  0.00     0.007 A 
ATOM      9 BR   UNL d   1     -45.572  10.950  23.519  0.00  0.00    -0.049 Br
ATOM     10  C   UNL d   1     -47.017  12.605  23.525  0.00  0.00     0.006 A 
ENDBRANCH   2   4
ENDBRANCH   1   2
BRANCH   1  11
ATOM     11  N   UNL d   1     -48.336  14.516  22.507  0.00  0.00    -0.102 NA
BRANCH  11  12
ATOM     12  C   UNL d   1     -49.122  14.510  22.271  0.00  0.00     0.210 C 
ATOM     13  N   UNL d   1     -49.323  14.166  21.549  0.00  0.00    -0.125 N 
BRANCH  12  14
ATOM     14  C   UNL d   1     -49.712  14.838  22.736  0.00  0.00     0.043 A 
ATOM     15  C   UNL d   1     -49.640  15.588  23.048  0.00  0.00     0.024 A 
ATOM     16  C   UNL d   1     -50.230  15.918  23.514  0.00  0.00     0.099 A 
ATOM     17  N   UNL d   1     -50.908  15.467  23.662  0.00  0.00    -0.242 NA
ATOM     18  C   UNL d   1     -50.999  14.713  23.357  0.00  0.00     0.099 A 
ATOM     19  C   UNL d   1     -50.395  14.398  22.891  0.00  0.00     0.024 A 
ENDBRANCH  12  14
ENDBRANCH  11  12
ENDBRANCH   1  11
TORSDOF 5
ENDMDL
MODEL 2
REMARK VINA RESULT:      -6.1      2.180      4.673
REMARK  5 active torsions:
REMARK  status: ('A' for Active; 'I' for Inactive)
REMARK    1  A    between atoms: C_2  and  N_1 
REMARK    2  A    between atoms: O_4  and  N_1 
REMARK    3  A    between atoms: C_8  and  C_2 
REMARK    4  A    between atoms: C_3  and  O_4 
REMARK    5  A    between atoms: C_5  and  C_3 
ROOT
ATOM      1  O   UNL d   1     -48.266  13.307  22.870  0.00  0.00    -0.168 OA
ENDROOT
BRANCH   1   2
ATOM      2  C   UNL d   1     -48.935  13.663  22.362  0.00  0.00     0.319 C 
ATOM      3  O   UNL d   1     -49.021  13.436  21.496  0.00  0.00    -0.257 OA
BRANCH   2   4
ATOM      4  C   UNL d   1     -49.470  14.201  22.698  0.00  0.00     0.065 A 
ATOM      5  C   UNL d   1     -50.064  13.940  23.203  0.00  0.00     0.006 A 
ATOM      6  C   UNL d   1     -50.580  14.470  23.525  0.00  0.00     0.007 A 
ATOM      7  C   UNL d   1     -50.533  15.278  23.366  0.00  0.00     0.035 A 
ATOM      8  C   UNL d   1     -49.937  15.541  22.860  0.00  0.00     0.007 A 
ATOM      9 BR   UNL d   1     -51.062  15.819  23.697  0.00  0.00    -0.049 Br
ATOM     10  C   UNL d   1     -49.396  15.010  22.517  0.00  0.00     0.006 A 
ENDBRANCH   2   4
ENDBRANCH   1   2
BRANCH   1  11
ATOM     11  N   UNL d   1     -47.529  13.158  22.553  0.00  0.00    -0.102 NA
BRANCH  11  12
ATOM     12  C   UNL d   1     -46.947  12.770  22.985  0.00  0.00     0.210 C 
ATOM     13  N   UNL d   1     -47.150  12.409  23.698  0.00  0.00    -0.125 N 
BRANCH  12  14
ATOM     14  C   UNL d   1     -46.172  12.735  22.724  0.00  0.00     0.043 A 
ATOM     15  C   UNL d   1     -45.842  13.338  22.284  0.00  0.00     0.024 A 
ATOM     16  C   UNL d   1     -45.065  13.302  22.022  0.00  0.00     0.099 A 
ATOM     17  N   UNL d   1     -44.617  12.635  22.216  0.00  0.00    -0.242 NA
ATOM     18  C   UNL d   1     -44.930  12.019  22.656  0.00  0.00     0.099 A 
ATOM     19  C   UNL d   1     -45.713  12.072  22.911  0.00  0.00     0.024 A 
ENDBRANCH  12  14
ENDBRANCH  11  12
ENDBRANCH   1  11
TORSDOF 5
ENDMDL
MODEL 3
REMARK VINA RESULT:      -6.0      2.608      4.377
REMARK  5 active torsions:
REMARK  status: ('A' for Active; 'I' for Inactive)
REMARK    1  A    between atoms: C_2  and  N_1 
REMARK    2  A    between atoms: O_4  and  N_1 
REMARK    3  A    between atoms: C_8  and  C_2 
REMARK    4  A    between atoms: C_3  and  O_4 
REMARK    5  A    between atoms: C_5  and  C_3 
ROOT
ATOM      1  O   UNL d   1     -48.116  11.699  22.952  0.00  0.00    -0.168 OA
ENDROOT
BRANCH   1   2
ATOM      2  C   UNL d   1     -49.015  11.650  23.097  0.00  0.00     0.319 C 
ATOM      3  O   UNL d   1     -49.352  11.060  23.686  0.00  0.00    -0.257 OA
BRANCH   2   4
ATOM      4  C   UNL d   1     -49.530  12.152  22.682  0.00  0.00     0.065 A 
ATOM      5  C   UNL d   1     -50.034  12.660  23.086  0.00  0.00     0.006 A 
ATOM      6  C   UNL d   1     -50.531  13.145  22.675  0.00  0.00     0.007 A 
ATOM      7  C   UNL d   1     -50.554  13.150  21.850  0.00  0.00     0.035 A 
ATOM      8  C   UNL d   1     -50.049  12.640  21.444  0.00  0.00     0.007 A 
ATOM      9 BR   UNL d   1     -51.064  13.647  21.431  0.00  0.00    -0.049 Br
ATOM     10  C   UNL d   1     -49.529  12.132  21.850  0.00  0.00     0.006 A 
ENDBRANCH   2   4
ENDBRANCH   1   2
BRANCH   1  11
ATOM     11  N   UNL d   1     -47.621  12.060  23.491  0.00  0.00    -0.102 NA
BRANCH  11  12
ATOM     12  C   UNL d   1     -46.805  12.043  23.403  0.00  0.00     0.210 C 
ATOM     13  N   UNL d   1     -46.395  11.352  23.589  0.00  0.00    -0.125 N 
BRANCH  12  14
ATOM     14  C   UNL d   1     -46.389  12.695  23.134  0.00  0.00     0.043 A 
ATOM     15  C   UNL d   1     -45.817  12.626  22.557  0.00  0.00     0.024 A 
ATOM     16  C   UNL d   1     -45.399  13.279  22.287  0.00  0.00     0.099 A 
ATOM     17  N   UNL d   1     -45.572  14.018  22.617  0.00  0.00    -0.242 NA
ATOM     18  C   UNL d   1     -46.142  14.107  23.197  0.00  0.00     0.099 A 
ATOM     19  C   UNL d   1     -46.552  13.440  23.456  0.00  0.00     0.024 A 
ENDBRANCH  12  14
ENDBRANCH  11  12
ENDBRANCH   1  11
TORSDOF 5
ENDMDL
MODEL 4
REMARK VINA RESULT:      -5.9      1.610      2.036
REMARK  5 active torsions:
REMARK  status: ('A' for Active; 'I' for Inactive)
REMARK    1  A    between atoms: C_2  and  N_1 
REMARK    2  A    between atoms: O_4  and  N_1 
REMARK    3  A    between atoms: C_8  and  C_2 
REMARK    4  A    between atoms: C_3  and  O_4 
REMARK    5  A    between atoms: C_5  and  C_3 
ROOT
ATOM      1  O   UNL d   1     -49.177  12.319  23.174  0.00  0.00    -0.168 OA
ENDROOT
BRANCH   1   2
ATOM      2  C   UNL d   1     -48.478  11.868  22.799  0.00  0.00     0.319 C 
ATOM      3  O   UNL d   1     -48.590  11.036  22.478  0.00  0.00    -0.257 OA
BRANCH   2   4
ATOM      4  C   UNL d   1     -47.731  12.227  22.751  0.00  0.00     0.065 A 
ATOM      5  C   UNL d   1     -47.508  12.641  22.076  0.00  0.00     0.006 A 
ATOM      6  C   UNL d   1     -46.780  12.986  22.039  0.00  0.00     0.007 A 
ATOM      7  C   UNL d   1     -46.241  12.940  22.662  0.00  0.00     0.035 A 
ATOM      8  C   UNL d   1     -46.464  12.526  23.339  0.00  0.00     0.007 A 
ATOM      9 BR   UNL d   1     -45.496  13.295  22.621  0.00  0.00    -0.049 Br
ATOM     10  C   UNL d   1     -47.211  12.162  23.397  0.00  0.00     0.006 A 
ENDBRANCH   2   4
ENDBRANCH   1   2
BRANCH   1  11
ATOM     11  N   UNL d   1     -49.863  12.458  22.755  0.00  0.00    -0.102 NA
BRANCH  11  12
ATOM     12  C   UNL d   1     -50.483  12.889  23.078  0.00  0.00     0.210 C 
ATOM     13  N   UNL d   1     -50.922  12.561  23.694  0.00  0.00    -0.125 N 
BRANCH  12  14
ATOM     14  C   UNL d   1     -50.674  13.637  22.804  0.00  0.00     0.043 A 
ATOM     15  C   UNL d   1     -50.678  14.284  23.301  0.00  0.00     0.024 A 
ATOM     16  C   UNL d   1     -50.870  15.034  23.027  0.00  0.00     0.099 A 
ATOM     17  N   UNL d   1     -51.062  15.120  22.227  0.00  0.00    -0.242 NA
ATOM     18  C   UNL d   1     -51.064  14.483  21.713  0.00  0.00     0.099 A 
ATOM     19  C   UNL d   1     -50.869  13.737  22.006  0.00  0.00     0.024 A 
ENDBRANCH  12  14
ENDBRANCH  11  12
ENDBRANCH   1  11
TORSDOF 5
ENDMDL
MODEL 5
REMARK VINA RESULT:      -5.7      8.715      9.789
REMARK  5 active torsions:
REMARK  status: ('A' for Active; 'I' for Inactive)
REMARK    1  A    between atoms: C_2  and  N_1 
REMARK    2  A    between atoms: O_4  and  N_1 
REMARK    3  A    between atoms: C_8  and  C_2 
REMARK    4  A    between atoms: C_3  and  O_4 
REMARK    5  A    between atoms: C_5  and  C_3 
ROOT
ATOM      1  O   UNL d   1     -40.265  14.907  18.961  0.00  0.00    -0.168 OA
ENDROOT
BRANCH   1   2
ATOM      2  C   UNL d   1     -40.356  14.288  18.297  0.00  0.00     0.319 C 
ATOM      3  O   UNL d   1     -41.038  13.702  18.308  0.00  0.00    -0.257 OA
BRANCH   2   4
ATOM      4  C   UNL d   1     -39.806  14.263  17.675  0.00  0.00     0.065 A 
ATOM      5  C   UNL d   1     -39.264  13.646  17.621  0.00  0.00     0.006 A 
ATOM      6  C   UNL d   1     -38.734  13.630  17.013  0.00  0.00     0.007 A 
ATOM      7  C   UNL d   1     -38.713  14.218  16.434  0.00  0.00     0.035 A 
ATOM      8  C   UNL d   1     -39.256  14.836  16.488  0.00  0.00     0.007 A 
ATOM      9 BR   UNL d   1     -38.168  14.199  15.813  0.00  0.00    -0.049 Br
ATOM     10  C   UNL d   1     -39.811  14.871  17.107  0.00  0.00     0.006 A 
ENDBRANCH   2   4
ENDBRANCH   1   2
BRANCH   1  11
ATOM     11  N   UNL d   1     -40.375  14.706  19.743  0.00  0.00    -0.102 NA
BRANCH  11  12
ATOM     12  C   UNL d   1     -40.402  15.276  20.333  0.00  0.00     0.210 C 
ATOM     13  N   UNL d   1     -40.909  15.921  20.245  0.00  0.00    -0.125 N 
BRANCH  12  14
ATOM     14  C   UNL d   1     -39.940  15.220  21.007  0.00  0.00     0.043 A 
ATOM     15  C   UNL d   1     -39.861  14.516  21.411  0.00  0.00     0.024 A 
ATOM     16  C   UNL d   1     -39.397  14.460  22.087  0.00  0.00     0.099 A 
ATOM     17  N   UNL d   1     -39.007  15.139  22.351  0.00  0.00    -0.242 NA
ATOM     18  C   UNL d   1     -39.074  15.855  21.959  0.00  0.00     0.099 A 
ATOM     19  C   UNL d   1     -39.544  15.893  21.282  0.00  0.00     0.024 A 
ENDBRANCH  12  14
ENDBRANCH  11  12
ENDBRANCH   1  11
TORSDOF 5
ENDMDL
MODEL 6
REMARK VINA RESULT:      -5.6      1.657      1.993
REMARK  5 active torsions:
REMARK  status: ('A' for Active; 'I' for Inactive)
REMARK    1  A    between atoms: C_2  and  N_1 
REMARK    2  A    between atoms: O_4  and  N_1 
REMARK    3  A    between atoms: C_8  and  C_2 
REMARK    4  A    between atoms: C_3  and  O_4 
REMARK    5  A    between atoms: C_5  and  C_3 
ROOT
ATOM      1  O   UNL d   1     -47.655  13.202  22.454  0.00  0.00    -0.168 OA
ENDROOT
BRANCH   1   2
ATOM      2  C   UNL d   1     -46.912  13.482  22.903  0.00  0.00     0.319 C 
ATOM      3  O   UNL d   1     -46.988  14.007  23.629  0.00  0.00    -0.257 OA
BRANCH   2   4
ATOM      4  C   UNL d   1     -46.158  13.252  22.643  0.00  0.00     0.065 A 
ATOM      5  C   UNL d   1     -45.719  13.742  22.150  0.00  0.00     0.006 A 
ATOM      6  C   UNL d   1     -44.987  13.510  21.902  0.00  0.00     0.007 A 
ATOM      7  C   UNL d   1     -44.657  12.787  22.127  0.00  0.00     0.035 A 
ATOM      8  C   UNL d   1     -45.097  12.296  22.620  0.00  0.00     0.007 A 
ATOM      9 BR   UNL d   1     -43.907  12.552  21.871  0.00  0.00    -0.049 Br
ATOM     10  C   UNL d   1     -45.854  12.517  22.887  0.00  0.00     0.006 A 
ENDBRANCH   2   4
ENDBRANCH   1   2
BRANCH   1  11
ATOM     11  N   UNL d   1     -48.394  13.236  22.797  0.00  0.00    -0.102 NA
BRANCH  11  12
ATOM     12  C   UNL d   1     -49.063  12.971  22.402  0.00  0.00     0.210 C 
ATOM     13  N   UNL d   1     -49.059  12.946  21.577  0.00  0.00    -0.125 N 
BRANCH  12  14
ATOM     14  C   UNL d   1     -49.734  12.732  22.806  0.00  0.00     0.043 A 
ATOM     15  C   UNL d   1     -50.368  13.234  22.913  0.00  0.00     0.024 A 
ATOM     16  C   UNL d   1     -51.041  12.995  23.318  0.00  0.00     0.099 A 
ATOM     17  N   UNL d   1     -51.063  12.225  23.619  0.00  0.00    -0.242 NA
ATOM     18  C   UNL d   1     -50.438  11.707  23.522  0.00  0.00     0.099 A 
ATOM     19  C   UNL d   1     -49.769  11.964  23.112  0.00  0.00     0.024 A 
ENDBRANCH  12  14
ENDBRANCH  11  12
ENDBRANCH   1  11
TORSDOF 5
ENDMDL
MODEL 7
REMARK VINA RESULT:      -5.6      8.472      9.357
REMARK  5 active torsions:
REMARK  status: ('A' for Active; 'I' for Inactive)
REMARK    1  A    between atoms: C_2  and  N_1 
REMARK    2  A    between atoms: O_4  and  N_1 
REMARK    3  A    between atoms: C_8  and  C_2 
REMARK    4  A    between atoms: C_3  and  O_4 
REMARK    5  A    between atoms: C_5  and  C_3 
ROOT
ATOM      1  O   UNL d   1     -39.995  14.382  19.859  0.00  0.00    -0.168 OA
ENDROOT
BRANCH   1   2
ATOM      2  C   UNL d   1     -40.390  14.534  20.667  0.00  0.00     0.319 C 
ATOM      3  O   UNL d   1     -41.265  14.365  20.787  0.00  0.00    -0.257 OA
BRANCH   2   4
ATOM      4  C   UNL d   1     -39.941  14.831  21.299  0.00  0.00     0.065 A 
ATOM      5  C   UNL d   1     -39.967  15.630  21.491  0.00  0.00     0.006 A 
ATOM      6  C   UNL d   1     -39.527  15.909  22.107  0.00  0.00     0.007 A 
ATOM      7  C   UNL d   1     -39.043  15.416  22.559  0.00  0.00     0.035 A 
ATOM      8  C   UNL d   1     -39.017  14.615  22.366  0.00  0.00     0.007 A 
ATOM      9 BR   UNL d   1     -38.594  15.705  23.189  0.00  0.00    -0.049 Br
ATOM     10  C   UNL d   1     -39.463  14.307  21.734  0.00  0.00     0.006 A 
ENDBRANCH   2   4
ENDBRANCH   1   2
BRANCH   1  11
ATOM     11  N   UNL d   1     -40.395  14.520  19.161  0.00  0.00    -0.102 NA
BRANCH  11  12
ATOM     12  C   UNL d   1     -40.038  14.402  18.431  0.00  0.00     0.210 C 
ATOM     13  N   UNL d   1     -39.537  13.754  18.329  0.00  0.00    -0.125 N 
BRANCH  12  14
ATOM     14  C   UNL d   1     -40.166  14.911  17.803  0.00  0.00     0.043 A 
ATOM     15  C   UNL d   1     -39.568  15.382  17.509  0.00  0.00     0.024 A 
ATOM     16  C   UNL d   1     -39.696  15.893  16.879  0.00  0.00     0.099 A 
ATOM     17  N   UNL d   1     -40.452  15.921  16.545  0.00  0.00    -0.242 NA
ATOM     18  C   UNL d   1     -41.064  15.456  16.826  0.00  0.00     0.099 A 
ATOM     19  C   UNL d   1     -40.918  14.948  17.460  0.00  0.00     0.024 A 
ENDBRANCH  12  14
ENDBRANCH  11  12
ENDBRANCH   1  11
TORSDOF 5
ENDMDL
MODEL 8
REMARK VINA RESULT:      -5.6      2.292      4.729
REMARK  5 active torsions:
REMARK  status: ('A' for Active; 'I' for Inactive)
REMARK    1  A    between atoms: C_2  and  N_1 
REMARK    2  A    between atoms: O_4  and  N_1 
REMARK    3  A    between atoms: C_8  and  C_2 
REMARK    4  A    between atoms: C_3  and  O_4 
REMARK    5  A    between atoms: C_5  and  C_3 
ROOT
ATOM      1  O   UNL d   1     -47.716  13.011  23.038  0.00  0.00    -0.168 OA
ENDROOT
BRANCH   1   2
ATOM      2  C   UNL d   1     -47.877  13.853  22.725  0.00  0.00     0.319 C 
ATOM      3  O   UNL d   1     -47.196  14.414  22.553  0.00  0.00    -0.257 OA
BRANCH   2   4
ATOM      4  C   UNL d   1     -48.657  14.105  22.596  0.00  0.00     0.065 A 
ATOM      5  C   UNL d   1     -49.134  13.726  22.044  0.00  0.00     0.006 A 
ATOM      6  C   UNL d   1     -49.891  13.979  21.926  0.00  0.00     0.007 A 
ATOM      7  C   UNL d   1     -50.211  14.614  22.344  0.00  0.00     0.035 A 
ATOM      8  C   UNL d   1     -49.733  14.994  22.898  0.00  0.00     0.007 A 
ATOM      9 BR   UNL d   1     -50.986  14.871  22.221  0.00  0.00    -0.049 Br
ATOM     10  C   UNL d   1     -48.949  14.749  23.035  0.00  0.00     0.006 A 
ENDBRANCH   2   4
ENDBRANCH   1   2
BRANCH   1  11
ATOM     11  N   UNL d   1     -46.957  12.756  23.194  0.00  0.00    -0.102 NA
BRANCH  11  12
ATOM     12  C   UNL d   1     -46.800  11.976  23.397  0.00  0.00     0.210 C 
ATOM     13  N   UNL d   1     -47.419  11.495  23.653  0.00  0.00    -0.125 N 
BRANCH  12  14
ATOM     14  C   UNL d   1     -46.043  11.665  23.351  0.00  0.00     0.043 A 
ATOM     15  C   UNL d   1     -45.441  12.064  22.972  0.00  0.00     0.024 A 
ATOM     16  C   UNL d   1     -44.683  11.753  22.925  0.00  0.00     0.099 A 
ATOM     17  N   UNL d   1     -44.541  11.018  23.275  0.00  0.00    -0.242 NA
ATOM     18  C   UNL d   1     -45.131  10.602  23.660  0.00  0.00     0.099 A 
ATOM     19  C   UNL d   1     -45.887  10.930  23.697  0.00  0.00     0.024 A 
ENDBRANCH  12  14
ENDBRANCH  11  12
ENDBRANCH   1  11
TORSDOF 5
ENDMDL
MODEL 9
REMARK VINA RESULT:      -5.3      8.623      9.766
REMARK  5 active torsions:
REMARK  status: ('A' for Active; 'I' for Inactive)
REMARK    1  A    between atoms: C_2  and  N_1 
REMARK    2  A    between atoms: O_4  and  N_1 
REMARK    3  A    between atoms: C_8  and  C_2 
REMARK    4  A    between atoms: C_3  and  O_4 
REMARK    5  A    between atoms: C_5  and  C_3 
ROOT
ATOM      1  O   UNL d   1     -39.730  15.192  20.694  0.00  0.00    -0.168 OA
ENDROOT
BRANCH   1   2
ATOM      2  C   UNL d   1     -40.526  15.133  20.253  0.00  0.00     0.319 C 
ATOM      3  O   UNL d   1     -41.296  15.042  20.710  0.00  0.00    -0.257 OA
BRANCH   2   4
ATOM      4  C   UNL d   1     -40.544  15.162  19.424  0.00  0.00     0.065 A 
ATOM      5  C   UNL d   1     -40.543  14.470  18.981  0.00  0.00     0.006 A 
ATOM      6  C   UNL d   1     -40.561  14.508  18.175  0.00  0.00     0.007 A 
ATOM      7  C   UNL d   1     -40.581  15.228  17.771  0.00  0.00     0.035 A 
ATOM      8  C   UNL d   1     -40.582  15.922  18.215  0.00  0.00     0.007 A 
ATOM      9 BR   UNL d   1     -40.599  15.264  16.946  0.00  0.00    -0.049 Br
ATOM     10  C   UNL d   1     -40.564  15.904  19.047  0.00  0.00     0.006 A 
ENDBRANCH   2   4
ENDBRANCH   1   2
BRANCH   1  11
ATOM     11  N   UNL d   1     -39.604  14.792  21.393  0.00  0.00    -0.102 NA
BRANCH  11  12
ATOM     12  C   UNL d   1     -38.881  14.823  21.781  0.00  0.00     0.210 C 
ATOM     13  N   UNL d   1     -38.422  15.506  21.722  0.00  0.00    -0.125 N 
BRANCH  12  14
ATOM     14  C   UNL d   1     -38.603  14.193  22.225  0.00  0.00     0.043 A 
ATOM     15  C   UNL d   1     -38.693  14.172  23.036  0.00  0.00     0.024 A 
ATOM     16  C   UNL d   1     -38.416  13.541  23.482  0.00  0.00     0.099 A 
ATOM     17  N   UNL d   1     -38.039  12.919  23.087  0.00  0.00    -0.242 NA
ATOM     18  C   UNL d   1     -37.940  12.922  22.275  0.00  0.00     0.099 A 
ATOM     19  C   UNL d   1     -38.225  13.565  21.843  0.00  0.00     0.024 A 
ENDBRANCH  12  14
ENDBRANCH  11  12
ENDBRANCH   1  11
TORSDOF 5
ENDMDL
