MODEL 1
REMARK VINA RESULT:      54.8      0.000      0.000
REMARK  5 active torsions:
REMARK  status: ('A' for Active; 'I' for Inactive)
REMARK    1  A    between atoms: N_7  and  C_1 
REMARK    2  A    between atoms: C_15  and  N_2 
REMARK    3  A    between atoms: C_5  and  C_10 
REMARK       I    between atoms: C_10  and  N_7 
REMARK    4  A    between atoms: C_13  and  C_11 
REMARK    5  A    between atoms: C_24  and  C_15 
ROOT
ATOM      1  N   UNL d   1      45.836 -14.236  38.512  0.00  0.00    -0.203 NA
ATOM      2  C   UNL d   1      45.416 -13.540  38.720  0.00  0.00     0.299 C 
ATOM      3  O   UNL d   1      44.895 -13.245  38.198  0.00  0.00    -0.263 OA
ENDROOT
BRANCH   1   4
ATOM      4  C   UNL d   1      45.699 -14.604  37.763  0.00  0.00     0.121 A 
ATOM      5  C   UNL d   1      45.176 -15.241  37.605  0.00  0.00     0.102 A 
ATOM      6  N   UNL d   1      45.227 -15.412  36.802  0.00  0.00    -0.227 N 
ATOM      7  C   UNL d   1      44.696 -15.626  38.164  0.00  0.00     0.022 C 
ATOM      8  N   UNL d   1      45.779 -14.885  36.453  0.00  0.00    -0.164 NA
ATOM      9  C   UNL d   1      46.070 -14.384  37.059  0.00  0.00     0.120 A 
ATOM     10  C   UNL d   1      46.634 -13.767  36.983  0.00  0.00     0.024 C 
BRANCH   6  11
ATOM     11  C   UNL d   1      44.755 -16.038  36.478  0.00  0.00     0.101 C 
BRANCH  11  12
ATOM     12  C   UNL d   1      43.925 -15.954  36.442  0.00  0.00     0.019 A 
ATOM     13  C   UNL d   1      43.578 -15.201  36.481  0.00  0.00     0.002 A 
ATOM     14  C   UNL d   1      42.749 -15.110  36.445  0.00  0.00     0.000 A 
ATOM     15  C   UNL d   1      42.260 -15.796  36.369  0.00  0.00     0.000 A 
ATOM     16  C   UNL d   1      42.599 -16.533  36.330  0.00  0.00     0.000 A 
ATOM     17  C   UNL d   1      41.427 -15.737  36.330  0.00  0.00     0.000 C 
ATOM     18  C   UNL d   1      43.435 -16.627  36.366  0.00  0.00     0.002 A 
ENDBRANCH  11  12
ENDBRANCH   6  11
ENDBRANCH   1   4
BRANCH   2  19
ATOM     19  C   UNL d   1      45.698 -12.888  40.119  0.00  0.00     0.168 A 
ATOM     20  N   UNL d   1      46.168 -12.271  40.297  0.00  0.00    -0.121 NA
ATOM     21  O   UNL d   1      46.133 -12.144  41.073  0.00  0.00    -0.211 OA
ATOM     22  C   UNL d   1      45.639 -12.680  41.396  0.00  0.00     0.127 A 
ATOM     23  C   UNL d   1      45.367 -13.143  40.806  0.00  0.00     0.053 A 
BRANCH  22  24
ATOM     24  C   UNL d   1      45.473 -12.716  42.164  0.00  0.00     0.027 A 
ATOM     25  C   UNL d   1      45.604 -13.392  42.570  0.00  0.00     0.028 A 
ATOM     26  C   UNL d   1      45.439 -13.426  43.332  0.00  0.00     0.119 A 
ATOM     27  O   UNL d   1      45.510 -14.010  43.865  0.00  0.00    -0.300 OA
ATOM     28  C   UNL d   1      45.141 -12.800  43.720  0.00  0.00     0.119 A 
ATOM     29  C   UNL d   1      45.259 -13.745  44.566  0.00  0.00     0.304 A 
ATOM     30  O   UNL d   1      45.030 -12.994  44.476  0.00  0.00    -0.300 OA
ATOM     31  C   UNL d   1      45.008 -12.121  43.319  0.00  0.00     0.026 A 
ATOM     32  C   UNL d   1      45.171 -12.080  42.555  0.00  0.00     0.004 A 
ENDBRANCH  22  24
ENDBRANCH   2  19
TORSDOF 5
ENDMDL
MODEL 2
REMARK VINA RESULT:      57.1      3.823      4.921
REMARK  5 active torsions:
REMARK  status: ('A' for Active; 'I' for Inactive)
REMARK    1  A    between atoms: N_7  and  C_1 
REMARK    2  A    between atoms: C_15  and  N_2 
REMARK    3  A    between atoms: C_5  and  C_10 
REMARK       I    between atoms: C_10  and  N_7 
REMARK    4  A    between atoms: C_13  and  C_11 
REMARK    5  A    between atoms: C_24  and  C_15 
ROOT
ATOM      1  N   UNL d   1      44.832 -17.508  39.129  0.00  0.00    -0.203 NA
ATOM      2  C   UNL d   1      45.655 -17.592  39.272  0.00  0.00     0.299 C 
ATOM      3  O   UNL d   1      46.158 -17.157  38.837  0.00  0.00    -0.263 OA
ENDROOT
BRANCH   1   4
ATOM      4  C   UNL d   1      44.559 -16.970  38.535  0.00  0.00     0.121 A 
ATOM      5  C   UNL d   1      44.973 -16.735  37.843  0.00  0.00     0.102 A 
ATOM      6  N   UNL d   1      44.493 -16.208  37.434  0.00  0.00    -0.227 N 
ATOM      7  C   UNL d   1      45.731 -16.992  37.619  0.00  0.00     0.022 C 
ATOM      8  N   UNL d   1      43.779 -16.109  37.864  0.00  0.00    -0.164 NA
ATOM      9  C   UNL d   1      43.828 -16.588  38.550  0.00  0.00     0.120 A 
ATOM     10  C   UNL d   1      43.249 -16.676  39.152  0.00  0.00     0.024 C 
BRANCH   6  11
ATOM     11  C   UNL d   1      44.768 -15.873  36.704  0.00  0.00     0.101 C 
BRANCH  11  12
ATOM     12  C   UNL d   1      45.239 -15.184  36.717  0.00  0.00     0.019 A 
ATOM     13  C   UNL d   1      45.982 -15.177  36.348  0.00  0.00     0.002 A 
ATOM     14  C   UNL d   1      46.458 -14.491  36.357  0.00  0.00     0.000 A 
ATOM     15  C   UNL d   1      46.177 -13.797  36.750  0.00  0.00     0.000 A 
ATOM     16  C   UNL d   1      45.449 -13.803  37.112  0.00  0.00     0.000 A 
ATOM     17  C   UNL d   1      46.630 -13.096  36.777  0.00  0.00     0.000 C 
ATOM     18  C   UNL d   1      44.968 -14.494  37.104  0.00  0.00     0.002 A 
ENDBRANCH  11  12
ENDBRANCH   6  11
ENDBRANCH   1   4
BRANCH   2  19
ATOM     19  C   UNL d   1      46.120 -18.599  40.381  0.00  0.00     0.168 A 
ATOM     20  N   UNL d   1      46.448 -19.319  40.297  0.00  0.00    -0.121 NA
ATOM     21  O   UNL d   1      46.588 -19.617  41.011  0.00  0.00    -0.211 OA
ATOM     22  C   UNL d   1      46.350 -19.088  41.558  0.00  0.00     0.127 A 
ATOM     23  C   UNL d   1      46.059 -18.454  41.170  0.00  0.00     0.053 A 
BRANCH  22  24
ATOM     24  C   UNL d   1      46.408 -19.204  42.334  0.00  0.00     0.027 A 
ATOM     25  C   UNL d   1      46.313 -18.590  42.838  0.00  0.00     0.028 A 
ATOM     26  C   UNL d   1      46.370 -18.706  43.608  0.00  0.00     0.119 A 
ATOM     27  O   UNL d   1      46.304 -18.212  44.225  0.00  0.00    -0.300 OA
ATOM     28  C   UNL d   1      46.522 -19.426  43.908  0.00  0.00     0.119 A 
ATOM     29  C   UNL d   1      46.413 -18.624  44.892  0.00  0.00     0.304 A 
ATOM     30  O   UNL d   1      46.548 -19.377  44.694  0.00  0.00    -0.300 OA
ATOM     31  C   UNL d   1      46.617 -20.044  43.408  0.00  0.00     0.026 A 
ATOM     32  C   UNL d   1      46.561 -19.934  42.636  0.00  0.00     0.004 A 
ENDBRANCH  22  24
ENDBRANCH   2  19
TORSDOF 5
ENDMDL
