MODEL 1
REMARK VINA RESULT:      -7.8      0.000      0.000
REMARK  4 active torsions:
REMARK  status: ('A' for Active; 'I' for Inactive)
REMARK    1  A    between atoms: C_5  and  C_1 
REMARK       I    between atoms: N_7  and  C_5 
REMARK    2  A    between atoms: C_9  and  N_7 
REMARK    3  A    between atoms: C_8  and  C_9 
REMARK    4  A    between atoms: O_13  and  C_11 
ROOT
ATOM      1  C   UNL d   1     -48.189  14.583  22.705  0.00  0.00     0.299 C 
ATOM      2  N   UNL d   1     -47.831  13.887  22.982  0.00  0.00    -0.205 NA
ATOM      3  O   UNL d   1     -47.741  15.147  22.308  0.00  0.00    -0.263 OA
ENDROOT
BRANCH   1   4
ATOM      4  C   UNL d   1     -49.000  14.707  22.828  0.00  0.00     0.162 A 
ATOM      5  N   UNL d   1     -49.329  15.170  23.424  0.00  0.00    -0.143 NA
ATOM      6  N   UNL d   1     -50.161  15.144  23.348  0.00  0.00    -0.148 NA
ATOM      7  C   UNL d   1     -50.332  14.654  22.690  0.00  0.00     0.105 A 
ATOM      8  C   UNL d   1     -49.614  14.387  22.372  0.00  0.00     0.044 A 
ATOM      9  C   UNL d   1     -51.044  14.429  22.355  0.00  0.00     0.021 A 
ATOM     10  C   UNL d   1     -49.624  13.889  21.713  0.00  0.00     0.003 A 
ATOM     11  C   UNL d   1     -50.332  13.665  21.380  0.00  0.00     0.000 A 
ATOM     12  C   UNL d   1     -51.041  13.932  21.697  0.00  0.00     0.002 A 
ENDBRANCH   1   4
BRANCH   2  13
ATOM     13  C   UNL d   1     -47.023  13.764  22.858  0.00  0.00     0.104 C 
BRANCH  13  14
ATOM     14  C   UNL d   1     -46.671  13.041  23.034  0.00  0.00     0.042 A 
ATOM     15  C   UNL d   1     -45.922  12.855  22.729  0.00  0.00     0.096 A 
ATOM     16  C   UNL d   1     -45.582  12.137  22.910  0.00  0.00     0.024 A 
ATOM     17  C   UNL d   1     -45.977  11.595  23.392  0.00  0.00     0.002 A 
ATOM     18  C   UNL d   1     -46.715  11.768  23.698  0.00  0.00     0.000 A 
ATOM     19  C   UNL d   1     -47.071  12.497  23.521  0.00  0.00     0.004 A 
BRANCH  15  20
ATOM     20  O   UNL d   1     -45.517  13.391  22.245  0.00  0.00    -0.328 OA
ATOM     21  C   UNL d   1     -44.804  13.194  21.892  0.00  0.00     0.181 C 
ENDBRANCH  15  20
ENDBRANCH  13  14
ENDBRANCH   2  13
TORSDOF 4
ENDMDL
MODEL 2
REMARK VINA RESULT:      -7.5      1.098      1.496
REMARK  4 active torsions:
REMARK  status: ('A' for Active; 'I' for Inactive)
REMARK    1  A    between atoms: C_5  and  C_1 
REMARK       I    between atoms: N_7  and  C_5 
REMARK    2  A    between atoms: C_9  and  N_7 
REMARK    3  A    between atoms: C_8  and  C_9 
REMARK    4  A    between atoms: O_13  and  C_11 
ROOT
ATOM      1  C   UNL d   1     -48.637  13.222  23.243  0.00  0.00     0.299 C 
ATOM      2  N   UNL d   1     -47.842  13.334  23.028  0.00  0.00    -0.205 NA
ATOM      3  O   UNL d   1     -48.854  12.570  23.696  0.00  0.00    -0.263 OA
ENDROOT
BRANCH   1   4
ATOM      4  C   UNL d   1     -49.212  13.769  23.000  0.00  0.00     0.162 A 
ATOM      5  N   UNL d   1     -49.291  14.539  23.281  0.00  0.00    -0.143 NA
ATOM      6  N   UNL d   1     -49.937  14.896  22.891  0.00  0.00    -0.148 NA
ATOM      7  C   UNL d   1     -50.251  14.326  22.364  0.00  0.00     0.105 A 
ATOM      8  C   UNL d   1     -49.801  13.632  22.434  0.00  0.00     0.044 A 
ATOM      9  C   UNL d   1     -50.881  14.361  21.842  0.00  0.00     0.021 A 
ATOM     10  C   UNL d   1     -49.995  12.976  21.971  0.00  0.00     0.003 A 
ATOM     11  C   UNL d   1     -50.621  13.011  21.452  0.00  0.00     0.000 A 
ATOM     12  C   UNL d   1     -51.064  13.699  21.385  0.00  0.00     0.002 A 
ENDBRANCH   1   4
BRANCH   2  13
ATOM     13  C   UNL d   1     -47.272  12.788  23.271  0.00  0.00     0.104 C 
BRANCH  13  14
ATOM     14  C   UNL d   1     -46.507  12.810  22.969  0.00  0.00     0.042 A 
ATOM     15  C   UNL d   1     -45.968  12.205  23.148  0.00  0.00     0.096 A 
ATOM     16  C   UNL d   1     -45.213  12.237  22.842  0.00  0.00     0.024 A 
ATOM     17  C   UNL d   1     -44.982  12.864  22.359  0.00  0.00     0.002 A 
ATOM     18  C   UNL d   1     -45.503  13.466  22.176  0.00  0.00     0.000 A 
ATOM     19  C   UNL d   1     -46.276  13.445  22.481  0.00  0.00     0.004 A 
BRANCH  15  20
ATOM     20  O   UNL d   1     -46.190  11.571  23.631  0.00  0.00    -0.328 OA
ATOM     21  C   UNL d   1     -45.732  10.892  23.683  0.00  0.00     0.181 C 
ENDBRANCH  15  20
ENDBRANCH  13  14
ENDBRANCH   2  13
TORSDOF 4
ENDMDL
MODEL 3
REMARK VINA RESULT:      -6.6      7.868     10.118
REMARK  4 active torsions:
REMARK  status: ('A' for Active; 'I' for Inactive)
REMARK    1  A    between atoms: C_5  and  C_1 
REMARK       I    between atoms: N_7  and  C_5 
REMARK    2  A    between atoms: C_9  and  N_7 
REMARK    3  A    between atoms: C_8  and  C_9 
REMARK    4  A    between atoms: O_13  and  C_11 
ROOT
ATOM      1  C   UNL d   1     -39.923  13.894  18.246  0.00  0.00     0.299 C 
ATOM      2  N   UNL d   1     -39.668  14.102  19.009  0.00  0.00    -0.205 NA
ATOM      3  O   UNL d   1     -40.714  13.984  18.038  0.00  0.00    -0.263 OA
ENDROOT
BRANCH   1   4
ATOM      4  C   UNL d   1     -39.379  13.594  17.695  0.00  0.00     0.162 A 
ATOM      5  N   UNL d   1     -39.106  12.819  17.663  0.00  0.00    -0.143 NA
ATOM      6  N   UNL d   1     -38.568  12.755  17.027  0.00  0.00    -0.148 NA
ATOM      7  C   UNL d   1     -38.519  13.512  16.671  0.00  0.00     0.105 A 
ATOM      8  C   UNL d   1     -39.021  14.027  17.086  0.00  0.00     0.044 A 
ATOM      9  C   UNL d   1     -38.084  13.781  16.032  0.00  0.00     0.021 A 
ATOM     10  C   UNL d   1     -39.077  14.815  16.847  0.00  0.00     0.003 A 
ATOM     11  C   UNL d   1     -38.644  15.083  16.211  0.00  0.00     0.000 A 
ATOM     12  C   UNL d   1     -38.149  14.571  15.804  0.00  0.00     0.002 A 
ENDBRANCH   1   4
BRANCH   2  13
ATOM     13  C   UNL d   1     -40.210  14.399  19.556  0.00  0.00     0.104 C 
BRANCH  13  14
ATOM     14  C   UNL d   1     -39.977  14.603  20.318  0.00  0.00     0.042 A 
ATOM     15  C   UNL d   1     -40.403  15.171  20.749  0.00  0.00     0.096 A 
ATOM     16  C   UNL d   1     -40.162  15.364  21.503  0.00  0.00     0.024 A 
ATOM     17  C   UNL d   1     -39.502  15.001  21.840  0.00  0.00     0.002 A 
ATOM     18  C   UNL d   1     -39.075  14.441  21.425  0.00  0.00     0.000 A 
ATOM     19  C   UNL d   1     -39.311  14.235  20.655  0.00  0.00     0.004 A 
BRANCH  15  20
ATOM     20  O   UNL d   1     -41.066  15.540  20.420  0.00  0.00    -0.328 OA
ATOM     21  C   UNL d   1     -41.619  15.922  20.891  0.00  0.00     0.181 C 
ENDBRANCH  15  20
ENDBRANCH  13  14
ENDBRANCH   2  13
TORSDOF 4
ENDMDL
MODEL 4
REMARK VINA RESULT:      -6.4      8.563      9.272
REMARK  4 active torsions:
REMARK  status: ('A' for Active; 'I' for Inactive)
REMARK    1  A    between atoms: C_5  and  C_1 
REMARK       I    between atoms: N_7  and  C_5 
REMARK    2  A    between atoms: C_9  and  N_7 
REMARK    3  A    between atoms: C_8  and  C_9 
REMARK    4  A    between atoms: O_13  and  C_11 
ROOT
ATOM      1  C   UNL d   1     -40.426  14.946  19.712  0.00  0.00     0.299 C 
ATOM      2  N   UNL d   1     -39.872  14.572  20.206  0.00  0.00    -0.205 NA
ATOM      3  O   UNL d   1     -40.894  15.556  20.004  0.00  0.00    -0.263 OA
ENDROOT
BRANCH   1   4
ATOM      4  C   UNL d   1     -40.505  14.703  18.922  0.00  0.00     0.162 A 
ATOM      5  N   UNL d   1     -40.960  14.070  18.658  0.00  0.00    -0.143 NA
ATOM      6  N   UNL d   1     -40.884  14.020  17.827  0.00  0.00    -0.148 NA
ATOM      7  C   UNL d   1     -40.370  14.638  17.591  0.00  0.00     0.105 A 
ATOM      8  C   UNL d   1     -40.138  15.057  18.268  0.00  0.00     0.044 A 
ATOM      9  C   UNL d   1     -40.095  14.859  16.852  0.00  0.00     0.021 A 
ATOM     10  C   UNL d   1     -39.627  15.700  18.190  0.00  0.00     0.003 A 
ATOM     11  C   UNL d   1     -39.353  15.921  17.455  0.00  0.00     0.000 A 
ATOM     12  C   UNL d   1     -39.585  15.503  16.787  0.00  0.00     0.002 A 
ENDBRANCH   1   4
BRANCH   2  13
ATOM     13  C   UNL d   1     -39.795  14.815  20.992  0.00  0.00     0.104 C 
BRANCH  13  14
ATOM     14  C   UNL d   1     -39.283  14.429  21.508  0.00  0.00     0.042 A 
ATOM     15  C   UNL d   1     -39.047  14.794  22.215  0.00  0.00     0.096 A 
ATOM     16  C   UNL d   1     -38.540  14.403  22.718  0.00  0.00     0.024 A 
ATOM     17  C   UNL d   1     -38.261  13.649  22.530  0.00  0.00     0.002 A 
ATOM     18  C   UNL d   1     -38.486  13.280  21.837  0.00  0.00     0.000 A 
ATOM     19  C   UNL d   1     -39.003  13.669  21.316  0.00  0.00     0.004 A 
BRANCH  15  20
ATOM     20  O   UNL d   1     -39.321  15.550  22.412  0.00  0.00    -0.328 OA
ATOM     21  C   UNL d   1     -39.087  15.922  23.105  0.00  0.00     0.181 C 
ENDBRANCH  15  20
ENDBRANCH  13  14
ENDBRANCH   2  13
TORSDOF 4
ENDMDL
MODEL 5
REMARK VINA RESULT:      -6.2      8.516      9.523
REMARK  4 active torsions:
REMARK  status: ('A' for Active; 'I' for Inactive)
REMARK    1  A    between atoms: C_5  and  C_1 
REMARK       I    between atoms: N_7  and  C_5 
REMARK    2  A    between atoms: C_9  and  N_7 
REMARK    3  A    between atoms: C_8  and  C_9 
REMARK    4  A    between atoms: O_13  and  C_11 
ROOT
ATOM      1  C   UNL d   1     -40.254  14.807  20.460  0.00  0.00     0.299 C 
ATOM      2  N   UNL d   1     -39.892  14.778  19.713  0.00  0.00    -0.205 NA
ATOM      3  O   UNL d   1     -41.032  14.554  20.551  0.00  0.00    -0.263 OA
ENDROOT
BRANCH   1   4
ATOM      4  C   UNL d   1     -39.829  15.091  21.114  0.00  0.00     0.162 A 
ATOM      5  N   UNL d   1     -39.680  15.882  21.282  0.00  0.00    -0.143 NA
ATOM      6  N   UNL d   1     -39.235  15.922  21.989  0.00  0.00    -0.148 NA
ATOM      7  C   UNL d   1     -39.117  15.134  22.248  0.00  0.00     0.105 A 
ATOM      8  C   UNL d   1     -39.484  14.624  21.706  0.00  0.00     0.044 A 
ATOM      9  C   UNL d   1     -38.725  14.833  22.901  0.00  0.00     0.021 A 
ATOM     10  C   UNL d   1     -39.451  13.809  21.832  0.00  0.00     0.003 A 
ATOM     11  C   UNL d   1     -39.061  13.509  22.482  0.00  0.00     0.000 A 
ATOM     12  C   UNL d   1     -38.699  14.017  23.016  0.00  0.00     0.002 A 
ENDBRANCH   1   4
BRANCH   2  13
ATOM     13  C   UNL d   1     -40.316  14.495  19.063  0.00  0.00     0.104 C 
BRANCH  13  14
ATOM     14  C   UNL d   1     -39.941  14.333  18.348  0.00  0.00     0.042 A 
ATOM     15  C   UNL d   1     -40.211  14.684  17.646  0.00  0.00     0.096 A 
ATOM     16  C   UNL d   1     -39.832  14.518  16.944  0.00  0.00     0.024 A 
ATOM     17  C   UNL d   1     -39.186  14.005  16.927  0.00  0.00     0.002 A 
ATOM     18  C   UNL d   1     -38.911  13.654  17.612  0.00  0.00     0.000 A 
ATOM     19  C   UNL d   1     -39.290  13.816  18.334  0.00  0.00     0.004 A 
BRANCH  15  20
ATOM     20  O   UNL d   1     -40.858  15.200  17.652  0.00  0.00    -0.328 OA
ATOM     21  C   UNL d   1     -41.150  15.528  16.959  0.00  0.00     0.181 C 
ENDBRANCH  15  20
ENDBRANCH  13  14
ENDBRANCH   2  13
TORSDOF 4
ENDMDL
