MODEL 1
REMARK VINA RESULT:      -3.1      0.000      0.000
REMARK  3 active torsions:
REMARK  status: ('A' for Active; 'I' for Inactive)
REMARK    1  A    between atoms: N_12  and  C_6 
REMARK    2  A    between atoms: C_18  and  N_12 
REMARK    3  A    between atoms: C_19  and  C_18 
ROOT
ATOM      1  N   UNL d   1      33.236  20.877 -21.768  0.00  0.00    -0.175 N 
ATOM      2  C   UNL d   1      33.237  21.159 -22.511  0.00  0.00     0.167 A 
ATOM      3  N   UNL d   1      33.234  21.403 -21.132  0.00  0.00    -0.142 NA
ATOM      4  C   UNL d   1      33.236  20.094 -21.630  0.00  0.00     0.283 A 
ATOM      5  N   UNL d   1      33.239  20.667 -23.134  0.00  0.00    -0.227 NA
ATOM      6  C   UNL d   1      33.234  22.218 -21.257  0.00  0.00     0.182 A 
ATOM      7  C   UNL d   1      33.238  19.568 -22.266  0.00  0.00     0.076 A 
ATOM      8  C   UNL d   1      33.237  21.975 -22.636  0.00  0.00     0.039 A 
ATOM      9  C   UNL d   1      33.239  19.851 -23.009  0.00  0.00     0.088 A 
ATOM     10  C   UNL d   1      33.235  22.500 -22.000  0.00  0.00     0.041 A 
ATOM     11  O   UNL d   1      33.235  19.798 -20.852  0.00  0.00    -0.265 OA
ATOM     12  C   UNL d   1      33.238  18.752 -22.141  0.00  0.00     0.006 A 
ATOM     13  C   UNL d   1      33.238  22.271 -23.412  0.00  0.00     0.003 A 
ATOM     14  C   UNL d   1      33.235  23.316 -22.125  0.00  0.00     0.003 A 
ATOM     15  C   UNL d   1      33.241  19.325 -23.644  0.00  0.00     0.019 A 
ATOM     16  C   UNL d   1      33.240  18.235 -22.798  0.00  0.00     0.000 A 
ATOM     17  C   UNL d   1      33.238  23.086 -23.538  0.00  0.00     0.000 A 
ATOM     18  C   UNL d   1      33.236  23.612 -22.902  0.00  0.00     0.000 A 
ATOM     19  C   UNL d   1      33.241  18.501 -23.497  0.00  0.00     0.002 A 
ENDROOT
BRANCH   6  20
ATOM     20  N   UNL d   1      33.233  22.788 -20.637  0.00  0.00    -0.220 NA
BRANCH  20  21
ATOM     21  C   UNL d   1      33.228  22.545 -19.846  0.00  0.00     0.146 C 
BRANCH  21  22
ATOM     22  C   UNL d   1      33.168  23.080 -19.240  0.00  0.00     0.255 C 
ATOM     23  O   UNL d   1      33.225  22.805 -18.450  0.00  0.00    -0.281 OA
ENDBRANCH  21  22
ENDBRANCH  20  21
ENDBRANCH   6  20
TORSDOF 3
ENDMDL
MODEL 2
REMARK VINA RESULT:      -2.7      0.788      3.651
REMARK  3 active torsions:
REMARK  status: ('A' for Active; 'I' for Inactive)
REMARK    1  A    between atoms: N_12  and  C_6 
REMARK    2  A    between atoms: C_18  and  N_12 
REMARK    3  A    between atoms: C_19  and  C_18 
ROOT
ATOM      1  N   UNL d   1      33.226  21.585 -20.997  0.00  0.00    -0.175 N 
ATOM      2  C   UNL d   1      33.224  22.283 -21.377  0.00  0.00     0.167 A 
ATOM      3  N   UNL d   1      33.231  20.884 -21.432  0.00  0.00    -0.142 NA
ATOM      4  C   UNL d   1      33.222  21.554 -20.203  0.00  0.00     0.283 A 
ATOM      5  N   UNL d   1      33.218  22.967 -20.973  0.00  0.00    -0.227 NA
ATOM      6  C   UNL d   1      33.235  20.898 -22.257  0.00  0.00     0.182 A 
ATOM      7  C   UNL d   1      33.217  22.255 -19.768  0.00  0.00     0.076 A 
ATOM      8  C   UNL d   1      33.227  22.297 -22.202  0.00  0.00     0.039 A 
ATOM      9  C   UNL d   1      33.215  22.953 -20.148  0.00  0.00     0.088 A 
ATOM     10  C   UNL d   1      33.233  21.596 -22.637  0.00  0.00     0.041 A 
ATOM     11  O   UNL d   1      33.225  20.823 -19.805  0.00  0.00    -0.265 OA
ATOM     12  C   UNL d   1      33.213  22.241 -18.942  0.00  0.00     0.006 A 
ATOM     13  C   UNL d   1      33.225  23.026 -22.600  0.00  0.00     0.003 A 
ATOM     14  C   UNL d   1      33.236  21.610 -23.462  0.00  0.00     0.003 A 
ATOM     15  C   UNL d   1      33.209  23.654 -19.712  0.00  0.00     0.019 A 
ATOM     16  C   UNL d   1      33.207  22.962 -18.519  0.00  0.00     0.000 A 
ATOM     17  C   UNL d   1      33.228  23.040 -23.424  0.00  0.00     0.000 A 
ATOM     18  C   UNL d   1      33.234  22.340 -23.860  0.00  0.00     0.000 A 
ATOM     19  C   UNL d   1      33.205  23.618 -18.877  0.00  0.00     0.002 A 
ENDROOT
BRANCH   6  20
ATOM     20  N   UNL d   1      33.241  20.206 -22.738  0.00  0.00    -0.220 NA
BRANCH  20  21
ATOM     21  C   UNL d   1      33.158  19.458 -22.395  0.00  0.00     0.146 C 
BRANCH  21  22
ATOM     22  C   UNL d   1      33.134  18.786 -22.848  0.00  0.00     0.255 C 
ATOM     23  O   UNL d   1      33.219  18.041 -22.473  0.00  0.00    -0.281 OA
ENDBRANCH  21  22
ENDBRANCH  20  21
ENDBRANCH   6  20
TORSDOF 3
ENDMDL
MODEL 3
REMARK VINA RESULT:      -2.6      1.730      2.634
REMARK  3 active torsions:
REMARK  status: ('A' for Active; 'I' for Inactive)
REMARK    1  A    between atoms: N_12  and  C_6 
REMARK    2  A    between atoms: C_18  and  N_12 
REMARK    3  A    between atoms: C_19  and  C_18 
ROOT
ATOM      1  N   UNL d   1      33.224  20.213 -22.983  0.00  0.00    -0.175 N 
ATOM      2  C   UNL d   1      33.223  19.973 -22.225  0.00  0.00     0.167 A 
ATOM      3  N   UNL d   1      33.230  21.021 -23.153  0.00  0.00    -0.142 NA
ATOM      4  C   UNL d   1      33.219  19.687 -23.577  0.00  0.00     0.283 A 
ATOM      5  N   UNL d   1      33.217  19.199 -22.044  0.00  0.00    -0.227 NA
ATOM      6  C   UNL d   1      33.235  21.581 -22.548  0.00  0.00     0.182 A 
ATOM      7  C   UNL d   1      33.213  18.879 -23.407  0.00  0.00     0.076 A 
ATOM      8  C   UNL d   1      33.228  20.534 -21.620  0.00  0.00     0.039 A 
ATOM      9  C   UNL d   1      33.212  18.638 -22.649  0.00  0.00     0.088 A 
ATOM     10  C   UNL d   1      33.234  21.340 -21.791  0.00  0.00     0.041 A 
ATOM     11  O   UNL d   1      33.219  19.939 -24.370  0.00  0.00    -0.265 OA
ATOM     12  C   UNL d   1      33.208  18.318 -24.012  0.00  0.00     0.006 A 
ATOM     13  C   UNL d   1      33.228  20.282 -20.828  0.00  0.00     0.003 A 
ATOM     14  C   UNL d   1      33.239  21.901 -21.185  0.00  0.00     0.003 A 
ATOM     15  C   UNL d   1      33.206  17.831 -22.479  0.00  0.00     0.019 A 
ATOM     16  C   UNL d   1      33.202  17.504 -23.819  0.00  0.00     0.000 A 
ATOM     17  C   UNL d   1      33.233  20.842 -20.223  0.00  0.00     0.000 A 
ATOM     18  C   UNL d   1      33.239  21.649 -20.393  0.00  0.00     0.000 A 
ATOM     19  C   UNL d   1      33.201  17.278 -23.107  0.00  0.00     0.002 A 
ENDROOT
BRANCH   6  20
ATOM     20  N   UNL d   1      33.241  22.414 -22.679  0.00  0.00    -0.220 NA
BRANCH  20  21
ATOM     21  C   UNL d   1      32.866  22.735 -23.344  0.00  0.00     0.146 C 
BRANCH  21  22
ATOM     22  C   UNL d   1      33.043  23.480 -23.610  0.00  0.00     0.255 C 
ATOM     23  O   UNL d   1      32.802  23.702 -24.381  0.00  0.00    -0.281 OA
ENDBRANCH  21  22
ENDBRANCH  20  21
ENDBRANCH   6  20
TORSDOF 3
ENDMDL
MODEL 4
REMARK VINA RESULT:      -2.5      0.759      1.031
REMARK  3 active torsions:
REMARK  status: ('A' for Active; 'I' for Inactive)
REMARK    1  A    between atoms: N_12  and  C_6 
REMARK    2  A    between atoms: C_18  and  N_12 
REMARK    3  A    between atoms: C_19  and  C_18 
ROOT
ATOM      1  N   UNL d   1      33.240  20.435 -22.495  0.00  0.00    -0.175 N 
ATOM      2  C   UNL d   1      33.240  20.564 -23.280  0.00  0.00     0.167 A 
ATOM      3  N   UNL d   1      33.240  21.077 -21.977  0.00  0.00    -0.142 NA
ATOM      4  C   UNL d   1      33.240  19.695 -22.205  0.00  0.00     0.283 A 
ATOM      5  N   UNL d   1      33.240  19.957 -23.792  0.00  0.00    -0.227 NA
ATOM      6  C   UNL d   1      33.240  21.850 -22.262  0.00  0.00     0.182 A 
ATOM      7  C   UNL d   1      33.240  19.053 -22.723  0.00  0.00     0.076 A 
ATOM      8  C   UNL d   1      33.241  21.339 -23.564  0.00  0.00     0.039 A 
ATOM      9  C   UNL d   1      33.240  19.183 -23.507  0.00  0.00     0.088 A 
ATOM     10  C   UNL d   1      33.241  21.980 -23.046  0.00  0.00     0.041 A 
ATOM     11  O   UNL d   1      33.240  19.560 -21.384  0.00  0.00    -0.265 OA
ATOM     12  C   UNL d   1      33.240  18.279 -22.438  0.00  0.00     0.006 A 
ATOM     13  C   UNL d   1      33.241  21.474 -24.384  0.00  0.00     0.003 A 
ATOM     14  C   UNL d   1      33.241  22.754 -23.331  0.00  0.00     0.003 A 
ATOM     15  C   UNL d   1      33.240  18.540 -24.026  0.00  0.00     0.019 A 
ATOM     16  C   UNL d   1      33.240  17.641 -22.980  0.00  0.00     0.000 A 
ATOM     17  C   UNL d   1      33.241  22.248 -24.669  0.00  0.00     0.000 A 
ATOM     18  C   UNL d   1      33.241  22.890 -24.151  0.00  0.00     0.000 A 
ATOM     19  C   UNL d   1      33.240  17.763 -23.717  0.00  0.00     0.002 A 
ENDROOT
BRANCH   6  20
ATOM     20  N   UNL d   1      33.240  22.533 -21.767  0.00  0.00    -0.220 NA
BRANCH  20  21
ATOM     21  C   UNL d   1      33.093  22.461 -20.956  0.00  0.00     0.146 C 
BRANCH  21  22
ATOM     22  C   UNL d   1      33.089  23.108 -20.468  0.00  0.00     0.255 C 
ATOM     23  O   UNL d   1      32.848  23.014 -19.671  0.00  0.00    -0.281 OA
ENDBRANCH  21  22
ENDBRANCH  20  21
ENDBRANCH   6  20
TORSDOF 3
ENDMDL
MODEL 5
REMARK VINA RESULT:      -2.4      1.329      3.796
REMARK  3 active torsions:
REMARK  status: ('A' for Active; 'I' for Inactive)
REMARK    1  A    between atoms: N_12  and  C_6 
REMARK    2  A    between atoms: C_18  and  N_12 
REMARK    3  A    between atoms: C_19  and  C_18 
ROOT
ATOM      1  N   UNL d   1      33.225  20.301 -22.133  0.00  0.00    -0.175 N 
ATOM      2  C   UNL d   1      33.223  20.875 -22.683  0.00  0.00     0.167 A 
ATOM      3  N   UNL d   1      33.230  19.511 -22.369  0.00  0.00    -0.142 NA
ATOM      4  C   UNL d   1      33.221  20.480 -21.359  0.00  0.00     0.283 A 
ATOM      5  N   UNL d   1      33.218  21.641 -22.473  0.00  0.00    -0.227 NA
ATOM      6  C   UNL d   1      33.234  19.308 -23.168  0.00  0.00     0.182 A 
ATOM      7  C   UNL d   1      33.215  21.271 -21.123  0.00  0.00     0.076 A 
ATOM      8  C   UNL d   1      33.228  20.671 -23.483  0.00  0.00     0.039 A 
ATOM      9  C   UNL d   1      33.214  21.844 -21.673  0.00  0.00     0.088 A 
ATOM     10  C   UNL d   1      33.233  19.881 -23.719  0.00  0.00     0.041 A 
ATOM     11  O   UNL d   1      33.222  19.880 -20.783  0.00  0.00    -0.265 OA
ATOM     12  C   UNL d   1      33.211  21.474 -20.323  0.00  0.00     0.006 A 
ATOM     13  C   UNL d   1      33.226  21.271 -24.059  0.00  0.00     0.003 A 
ATOM     14  C   UNL d   1      33.237  19.678 -24.519  0.00  0.00     0.003 A 
ATOM     15  C   UNL d   1      33.209  22.635 -21.437  0.00  0.00     0.019 A 
ATOM     16  C   UNL d   1      33.206  22.282 -20.104  0.00  0.00     0.000 A 
ATOM     17  C   UNL d   1      33.231  21.068 -24.858  0.00  0.00     0.000 A 
ATOM     18  C   UNL d   1      33.236  20.277 -25.094  0.00  0.00     0.000 A 
ATOM     19  C   UNL d   1      33.205  22.821 -20.622  0.00  0.00     0.002 A 
ENDROOT
BRANCH   6  20
ATOM     20  N   UNL d   1      33.240  18.514 -23.451  0.00  0.00    -0.220 NA
BRANCH  20  21
ATOM     21  C   UNL d   1      32.918  17.905 -22.992  0.00  0.00     0.146 C 
BRANCH  21  22
ATOM     22  C   UNL d   1      32.987  17.128 -23.213  0.00  0.00     0.255 C 
ATOM     23  O   UNL d   1      32.300  16.649 -23.229  0.00  0.00    -0.281 OA
ENDBRANCH  21  22
ENDBRANCH  20  21
ENDBRANCH   6  20
TORSDOF 3
ENDMDL
MODEL 6
REMARK VINA RESULT:      -1.3      1.477      2.800
REMARK  3 active torsions:
REMARK  status: ('A' for Active; 'I' for Inactive)
REMARK    1  A    between atoms: N_12  and  C_6 
REMARK    2  A    between atoms: C_18  and  N_12 
REMARK    3  A    between atoms: C_19  and  C_18 
ROOT
ATOM      1  N   UNL d   1      33.222  22.364 -21.808  0.00  0.00    -0.175 N 
ATOM      2  C   UNL d   1      33.223  21.581 -21.946  0.00  0.00     0.167 A 
ATOM      3  N   UNL d   1      33.226  22.640 -21.030  0.00  0.00    -0.142 NA
ATOM      4  C   UNL d   1      33.217  22.883 -22.409  0.00  0.00     0.283 A 
ATOM      5  N   UNL d   1      33.220  21.298 -22.689  0.00  0.00    -0.227 NA
ATOM      6  C   UNL d   1      33.232  22.114 -20.395  0.00  0.00     0.182 A 
ATOM      7  C   UNL d   1      33.212  22.607 -23.187  0.00  0.00     0.076 A 
ATOM      8  C   UNL d   1      33.229  21.055 -21.310  0.00  0.00     0.039 A 
ATOM      9  C   UNL d   1      33.214  21.824 -23.325  0.00  0.00     0.088 A 
ATOM     10  C   UNL d   1      33.233  21.331 -20.533  0.00  0.00     0.041 A 
ATOM     11  O   UNL d   1      33.215  23.702 -22.264  0.00  0.00    -0.265 OA
ATOM     12  C   UNL d   1      33.207  23.133 -23.823  0.00  0.00     0.006 A 
ATOM     13  C   UNL d   1      33.231  20.237 -21.455  0.00  0.00     0.003 A 
ATOM     14  C   UNL d   1      33.239  20.806 -19.897  0.00  0.00     0.003 A 
ATOM     15  C   UNL d   1      33.210  21.548 -24.103  0.00  0.00     0.019 A 
ATOM     16  C   UNL d   1      33.203  22.833 -24.604  0.00  0.00     0.000 A 
ATOM     17  C   UNL d   1      33.236  19.711 -20.819  0.00  0.00     0.000 A 
ATOM     18  C   UNL d   1      33.240  19.987 -20.042  0.00  0.00     0.000 A 
ATOM     19  C   UNL d   1      33.204  22.097 -24.734  0.00  0.00     0.002 A 
ENDROOT
BRANCH   6  20
ATOM     20  N   UNL d   1      33.236  22.354 -19.587  0.00  0.00    -0.220 NA
BRANCH  20  21
ATOM     21  C   UNL d   1      32.812  23.024 -19.348  0.00  0.00     0.146 C 
BRANCH  21  22
ATOM     22  C   UNL d   1      33.095  23.519 -18.772  0.00  0.00     0.255 C 
ATOM     23  O   UNL d   1      32.620  23.669 -18.098  0.00  0.00    -0.281 OA
ENDBRANCH  21  22
ENDBRANCH  20  21
ENDBRANCH   6  20
TORSDOF 3
ENDMDL
