MODEL 1
REMARK VINA RESULT:      -6.9      0.000      0.000
REMARK  9 active torsions:
REMARK  status: ('A' for Active; 'I' for Inactive)
REMARK    1  A    between atoms: N_6  and  C_1 
REMARK    2  A    between atoms: N_2  and  C_10 
REMARK    3  A    between atoms: C_3  and  N_6 
REMARK    4  A    between atoms: N_4  and  C_3 
REMARK       I    between atoms: C_7  and  N_4 
REMARK    5  A    between atoms: C_12  and  C_7 
REMARK    6  A    between atoms: C_11  and  C_8 
REMARK    7  A    between atoms: C_15  and  C_11 
REMARK    8  A    between atoms: O_21  and  C_15 
REMARK    9  A    between atoms: C_25  and  O_21 
ROOT
ATOM      1  C   UNL d   1      50.302  34.391  52.591  0.00  0.00     0.277 C 
ATOM      2  S   UNL d   1      50.370  33.908  51.918  0.00  0.00    -0.023 SA
ENDROOT
BRANCH   1   3
ATOM      3  N   UNL d   1      49.623  34.845  52.699  0.00  0.00    -0.347 NA
BRANCH   3   4
ATOM      4  C   UNL d   1      48.938  35.294  52.801  0.00  0.00     0.248 A 
ATOM      5  N   UNL d   1      48.354  35.447  52.222  0.00  0.00    -0.210 NA
ATOM      6  C   UNL d   1      47.771  35.920  52.570  0.00  0.00     0.096 A 
ATOM      7  C   UNL d   1      47.990  36.059  53.352  0.00  0.00     0.059 A 
ATOM      8  S   UNL d   1      48.705  35.676  53.497  0.00  0.00    -0.033 SA
BRANCH   6   9
ATOM      9  C   UNL d   1      47.091  36.201  52.193  0.00  0.00     0.088 C 
BRANCH   9  10
ATOM     10  C   UNL d   1      46.511  35.675  51.939  0.00  0.00     0.302 C 
ATOM     11  O   UNL d   1      46.627  35.247  51.242  0.00  0.00    -0.259 OA
BRANCH  10  12
ATOM     12  O   UNL d   1      45.819  35.575  52.379  0.00  0.00    -0.271 OA
BRANCH  12  13
ATOM     13  C   UNL d   1      45.113  35.386  52.001  0.00  0.00     0.126 C 
ATOM     14  C   UNL d   1      44.442  35.204  52.445  0.00  0.00     0.029 C 
ENDBRANCH  12  13
ENDBRANCH  10  12
ENDBRANCH   9  10
ENDBRANCH   6   9
ENDBRANCH   3   4
ENDBRANCH   1   3
BRANCH   1  15
ATOM     15  N   UNL d   1      50.916  34.412  53.142  0.00  0.00    -0.168 NA
ATOM     16  C   UNL d   1      51.704  34.387  52.893  0.00  0.00     0.282 C 
ATOM     17  O   UNL d   1      51.881  34.341  52.087  0.00  0.00    -0.265 OA
BRANCH  16  18
ATOM     18  C   UNL d   1      52.318  34.407  53.444  0.00  0.00     0.060 A 
ATOM     19  C   UNL d   1      52.763  33.725  53.599  0.00  0.00     0.028 A 
ATOM     20  C   UNL d   1      53.374  33.748  54.148  0.00  0.00     0.127 A 
ATOM     21  C   UNL d   1      53.549  34.445  54.549  0.00  0.00     0.024 A 
ATOM     22  C   UNL d   1      53.106  35.125  54.396  0.00  0.00     0.002 A 
ATOM     23  C   UNL d   1      52.486  35.108  53.841  0.00  0.00     0.005 A 
BRANCH  20  24
ATOM     24  N   UNL d   1      53.811  33.060  54.292  0.00  0.00    -0.114 N 
ATOM     25  O   UNL d   1      53.677  32.609  54.968  0.00  0.00    -0.532 OA
ATOM     26  O   UNL d   1      54.387  32.826  53.750  0.00  0.00    -0.532 OA
ENDBRANCH  20  24
ENDBRANCH  16  18
ENDBRANCH   1  15
TORSDOF 9
ENDMDL
MODEL 2
REMARK VINA RESULT:      -6.8      1.915      2.526
REMARK  9 active torsions:
REMARK  status: ('A' for Active; 'I' for Inactive)
REMARK    1  A    between atoms: N_6  and  C_1 
REMARK    2  A    between atoms: N_2  and  C_10 
REMARK    3  A    between atoms: C_3  and  N_6 
REMARK    4  A    between atoms: N_4  and  C_3 
REMARK       I    between atoms: C_7  and  N_4 
REMARK    5  A    between atoms: C_12  and  C_7 
REMARK    6  A    between atoms: C_11  and  C_8 
REMARK    7  A    between atoms: C_15  and  C_11 
REMARK    8  A    between atoms: O_21  and  C_15 
REMARK    9  A    between atoms: C_25  and  O_21 
ROOT
ATOM      1  C   UNL d   1      51.993  34.212  53.273  0.00  0.00     0.277 C 
ATOM      2  S   UNL d   1      52.547  34.831  53.294  0.00  0.00    -0.023 SA
ENDROOT
BRANCH   1   3
ATOM      3  N   UNL d   1      51.218  34.368  53.039  0.00  0.00    -0.347 NA
BRANCH   3   4
ATOM      4  C   UNL d   1      50.443  34.533  52.811  0.00  0.00     0.248 A 
ATOM      5  N   UNL d   1      49.828  34.815  53.303  0.00  0.00    -0.210 NA
ATOM      6  C   UNL d   1      49.150  34.899  52.838  0.00  0.00     0.096 A 
ATOM      7  C   UNL d   1      49.339  34.673  52.069  0.00  0.00     0.059 A 
ATOM      8  S   UNL d   1      50.131  34.447  52.049  0.00  0.00    -0.033 SA
BRANCH   6   9
ATOM      9  C   UNL d   1      48.413  35.164  53.104  0.00  0.00     0.088 C 
BRANCH   9  10
ATOM     10  C   UNL d   1      48.204  35.956  53.020  0.00  0.00     0.302 C 
ATOM     11  O   UNL d   1      48.590  36.530  53.471  0.00  0.00    -0.259 OA
BRANCH  10  12
ATOM     12  O   UNL d   1      47.611  36.174  52.488  0.00  0.00    -0.271 OA
BRANCH  12  13
ATOM     13  C   UNL d   1      46.961  36.607  52.749  0.00  0.00     0.126 C 
ATOM     14  C   UNL d   1      46.305  36.706  52.257  0.00  0.00     0.029 C 
ENDBRANCH  12  13
ENDBRANCH  10  12
ENDBRANCH   9  10
ENDBRANCH   6   9
ENDBRANCH   3   4
ENDBRANCH   1   3
BRANCH   1  15
ATOM     15  N   UNL d   1      52.225  33.449  53.485  0.00  0.00    -0.168 NA
ATOM     16  C   UNL d   1      52.965  33.157  53.260  0.00  0.00     0.282 C 
ATOM     17  O   UNL d   1      53.478  33.632  52.818  0.00  0.00    -0.265 OA
BRANCH  16  18
ATOM     18  C   UNL d   1      53.196  32.394  53.472  0.00  0.00     0.060 A 
ATOM     19  C   UNL d   1      52.880  31.737  53.079  0.00  0.00     0.028 A 
ATOM     20  C   UNL d   1      53.112  30.978  53.292  0.00  0.00     0.127 A 
ATOM     21  C   UNL d   1      53.659  30.864  53.897  0.00  0.00     0.024 A 
ATOM     22  C   UNL d   1      53.975  31.518  54.290  0.00  0.00     0.002 A 
ATOM     23  C   UNL d   1      53.744  32.289  54.078  0.00  0.00     0.005 A 
BRANCH  20  24
ATOM     24  N   UNL d   1      52.788  30.331  52.891  0.00  0.00    -0.114 N 
ATOM     25  O   UNL d   1      52.336  29.770  53.290  0.00  0.00    -0.532 OA
ATOM     26  O   UNL d   1      52.922  30.250  52.081  0.00  0.00    -0.532 OA
ENDBRANCH  20  24
ENDBRANCH  16  18
ENDBRANCH   1  15
TORSDOF 9
ENDMDL
MODEL 3
REMARK VINA RESULT:      -6.8      2.871      4.340
REMARK  9 active torsions:
REMARK  status: ('A' for Active; 'I' for Inactive)
REMARK    1  A    between atoms: N_6  and  C_1 
REMARK    2  A    between atoms: N_2  and  C_10 
REMARK    3  A    between atoms: C_3  and  N_6 
REMARK    4  A    between atoms: N_4  and  C_3 
REMARK       I    between atoms: C_7  and  N_4 
REMARK    5  A    between atoms: C_12  and  C_7 
REMARK    6  A    between atoms: C_11  and  C_8 
REMARK    7  A    between atoms: C_15  and  C_11 
REMARK    8  A    between atoms: O_21  and  C_15 
REMARK    9  A    between atoms: C_25  and  O_21 
ROOT
ATOM      1  C   UNL d   1      53.591  32.624  54.170  0.00  0.00     0.277 C 
ATOM      2  S   UNL d   1      54.354  32.762  54.469  0.00  0.00    -0.023 SA
ENDROOT
BRANCH   1   3
ATOM      3  N   UNL d   1      53.132  33.260  53.920  0.00  0.00    -0.347 NA
BRANCH   3   4
ATOM      4  C   UNL d   1      52.663  33.892  53.668  0.00  0.00     0.248 A 
ATOM      5  N   UNL d   1      51.979  33.844  53.190  0.00  0.00    -0.210 NA
ATOM      6  C   UNL d   1      51.693  34.612  53.080  0.00  0.00     0.096 A 
ATOM      7  C   UNL d   1      52.192  35.129  53.484  0.00  0.00     0.059 A 
ATOM      8  S   UNL d   1      52.788  34.691  53.845  0.00  0.00    -0.033 SA
BRANCH   6   9
ATOM      9  C   UNL d   1      51.023  34.819  52.642  0.00  0.00     0.088 C 
BRANCH   9  10
ATOM     10  C   UNL d   1      50.273  34.606  52.907  0.00  0.00     0.302 C 
ATOM     11  O   UNL d   1      50.037  33.815  52.868  0.00  0.00    -0.259 OA
BRANCH  10  12
ATOM     12  O   UNL d   1      49.762  35.179  53.210  0.00  0.00    -0.271 OA
BRANCH  12  13
ATOM     13  C   UNL d   1      49.001  35.256  52.904  0.00  0.00     0.126 C 
ATOM     14  C   UNL d   1      48.470  35.789  53.245  0.00  0.00     0.029 C 
ENDBRANCH  12  13
ENDBRANCH  10  12
ENDBRANCH   9  10
ENDBRANCH   6   9
ENDBRANCH   3   4
ENDBRANCH   1   3
BRANCH   1  15
ATOM     15  N   UNL d   1      53.303  31.852  54.127  0.00  0.00    -0.168 NA
ATOM     16  C   UNL d   1      53.693  31.283  53.672  0.00  0.00     0.282 C 
ATOM     17  O   UNL d   1      54.378  31.486  53.256  0.00  0.00    -0.265 OA
BRANCH  16  18
ATOM     18  C   UNL d   1      53.404  30.511  53.630  0.00  0.00     0.060 A 
ATOM     19  C   UNL d   1      53.536  29.981  54.253  0.00  0.00     0.028 A 
ATOM     20  C   UNL d   1      53.248  29.213  54.209  0.00  0.00     0.127 A 
ATOM     21  C   UNL d   1      52.827  28.963  53.547  0.00  0.00     0.024 A 
ATOM     22  C   UNL d   1      52.695  29.490  52.925  0.00  0.00     0.002 A 
ATOM     23  C   UNL d   1      52.985  30.269  52.964  0.00  0.00     0.005 A 
BRANCH  20  24
ATOM     24  N   UNL d   1      53.386  28.694  54.839  0.00  0.00    -0.114 N 
ATOM     25  O   UNL d   1      53.801  27.993  54.724  0.00  0.00    -0.532 OA
ATOM     26  O   UNL d   1      53.103  28.886  55.589  0.00  0.00    -0.532 OA
ENDBRANCH  20  24
ENDBRANCH  16  18
ENDBRANCH   1  15
TORSDOF 9
ENDMDL
MODEL 4
REMARK VINA RESULT:      -6.7      2.434      6.314
REMARK  9 active torsions:
REMARK  status: ('A' for Active; 'I' for Inactive)
REMARK    1  A    between atoms: N_6  and  C_1 
REMARK    2  A    between atoms: N_2  and  C_10 
REMARK    3  A    between atoms: C_3  and  N_6 
REMARK    4  A    between atoms: N_4  and  C_3 
REMARK       I    between atoms: C_7  and  N_4 
REMARK    5  A    between atoms: C_12  and  C_7 
REMARK    6  A    between atoms: C_11  and  C_8 
REMARK    7  A    between atoms: C_15  and  C_11 
REMARK    8  A    between atoms: O_21  and  C_15 
REMARK    9  A    between atoms: C_25  and  O_21 
ROOT
ATOM      1  C   UNL d   1      51.730  34.085  52.946  0.00  0.00     0.277 C 
ATOM      2  S   UNL d   1      51.866  34.716  53.468  0.00  0.00    -0.023 SA
ENDROOT
BRANCH   1   3
ATOM      3  N   UNL d   1      52.186  33.401  53.007  0.00  0.00    -0.347 NA
BRANCH   3   4
ATOM      4  C   UNL d   1      52.650  32.720  53.062  0.00  0.00     0.248 A 
ATOM      5  N   UNL d   1      52.421  31.944  52.850  0.00  0.00    -0.210 NA
ATOM      6  C   UNL d   1      53.061  31.442  53.000  0.00  0.00     0.096 A 
ATOM      7  C   UNL d   1      53.678  31.899  53.301  0.00  0.00     0.059 A 
ATOM      8  S   UNL d   1      53.429  32.684  53.340  0.00  0.00    -0.033 SA
BRANCH   6   9
ATOM      9  C   UNL d   1      53.074  30.626  52.869  0.00  0.00     0.088 C 
BRANCH   9  10
ATOM     10  C   UNL d   1      52.747  30.113  53.424  0.00  0.00     0.302 C 
ATOM     11  O   UNL d   1      51.941  29.935  53.389  0.00  0.00    -0.259 OA
BRANCH  10  12
ATOM     12  O   UNL d   1      53.222  29.779  54.011  0.00  0.00    -0.271 OA
BRANCH  12  13
ATOM     13  C   UNL d   1      53.089  29.006  54.259  0.00  0.00     0.126 C 
ATOM     14  C   UNL d   1      53.522  28.693  54.889  0.00  0.00     0.029 C 
ENDBRANCH  12  13
ENDBRANCH  10  12
ENDBRANCH   9  10
ENDBRANCH   6   9
ENDBRANCH   3   4
ENDBRANCH   1   3
BRANCH   1  15
ATOM     15  N   UNL d   1      51.140  34.149  52.372  0.00  0.00    -0.168 NA
ATOM     16  C   UNL d   1      50.395  34.447  52.569  0.00  0.00     0.282 C 
ATOM     17  O   UNL d   1      50.236  34.682  53.346  0.00  0.00    -0.265 OA
BRANCH  16  18
ATOM     18  C   UNL d   1      49.805  34.511  51.995  0.00  0.00     0.060 A 
ATOM     19  C   UNL d   1      49.093  34.898  52.170  0.00  0.00     0.028 A 
ATOM     20  C   UNL d   1      48.507  34.961  51.597  0.00  0.00     0.127 A 
ATOM     21  C   UNL d   1      48.621  34.642  50.847  0.00  0.00     0.024 A 
ATOM     22  C   UNL d   1      49.330  34.257  50.672  0.00  0.00     0.002 A 
ATOM     23  C   UNL d   1      49.927  34.190  51.247  0.00  0.00     0.005 A 
BRANCH  20  24
ATOM     24  N   UNL d   1      47.801  35.350  51.785  0.00  0.00    -0.114 N 
ATOM     25  O   UNL d   1      47.808  36.059  52.202  0.00  0.00    -0.532 OA
ATOM     26  O   UNL d   1      47.083  35.019  51.550  0.00  0.00    -0.532 OA
ENDBRANCH  20  24
ENDBRANCH  16  18
ENDBRANCH   1  15
TORSDOF 9
ENDMDL
MODEL 5
REMARK VINA RESULT:      -6.2      1.412      6.209
REMARK  9 active torsions:
REMARK  status: ('A' for Active; 'I' for Inactive)
REMARK    1  A    between atoms: N_6  and  C_1 
REMARK    2  A    between atoms: N_2  and  C_10 
REMARK    3  A    between atoms: C_3  and  N_6 
REMARK    4  A    between atoms: N_4  and  C_3 
REMARK       I    between atoms: C_7  and  N_4 
REMARK    5  A    between atoms: C_12  and  C_7 
REMARK    6  A    between atoms: C_11  and  C_8 
REMARK    7  A    between atoms: C_15  and  C_11 
REMARK    8  A    between atoms: O_21  and  C_15 
REMARK    9  A    between atoms: C_25  and  O_21 
ROOT
ATOM      1  C   UNL d   1      50.201  34.413  52.539  0.00  0.00     0.277 C 
ATOM      2  S   UNL d   1      50.030  34.099  51.788  0.00  0.00    -0.023 SA
ENDROOT
BRANCH   1   3
ATOM      3  N   UNL d   1      50.931  34.255  52.889  0.00  0.00    -0.347 NA
BRANCH   3   4
ATOM      4  C   UNL d   1      51.665  34.104  53.233  0.00  0.00     0.248 A 
ATOM      5  N   UNL d   1      51.942  33.364  53.509  0.00  0.00    -0.210 NA
ATOM      6  C   UNL d   1      52.705  33.476  53.809  0.00  0.00     0.096 A 
ATOM      7  C   UNL d   1      52.899  34.272  53.721  0.00  0.00     0.059 A 
ATOM      8  S   UNL d   1      52.263  34.660  53.368  0.00  0.00    -0.033 SA
BRANCH   6   9
ATOM      9  C   UNL d   1      53.183  32.888  54.139  0.00  0.00     0.088 C 
BRANCH   9  10
ATOM     10  C   UNL d   1      53.583  32.358  53.651  0.00  0.00     0.302 C 
ATOM     11  O   UNL d   1      54.307  32.577  53.318  0.00  0.00    -0.259 OA
BRANCH  10  12
ATOM     12  O   UNL d   1      53.262  31.614  53.496  0.00  0.00    -0.271 OA
BRANCH  12  13
ATOM     13  C   UNL d   1      53.691  30.934  53.672  0.00  0.00     0.126 C 
ATOM     14  C   UNL d   1      53.380  30.190  53.495  0.00  0.00     0.029 C 
ENDBRANCH  12  13
ENDBRANCH  10  12
ENDBRANCH   9  10
ENDBRANCH   6   9
ENDBRANCH   3   4
ENDBRANCH   1   3
BRANCH   1  15
ATOM     15  N   UNL d   1      49.639  34.877  52.925  0.00  0.00    -0.168 NA
ATOM     16  C   UNL d   1      48.951  35.114  52.534  0.00  0.00     0.282 C 
ATOM     17  O   UNL d   1      48.822  34.885  51.750  0.00  0.00    -0.265 OA
BRANCH  16  18
ATOM     18  C   UNL d   1      48.389  35.579  52.920  0.00  0.00     0.060 A 
ATOM     19  C   UNL d   1      47.627  35.662  52.604  0.00  0.00     0.028 A 
ATOM     20  C   UNL d   1      47.069  36.125  52.990  0.00  0.00     0.127 A 
ATOM     21  C   UNL d   1      47.260  36.511  53.692  0.00  0.00     0.024 A 
ATOM     22  C   UNL d   1      48.019  36.429  54.008  0.00  0.00     0.002 A 
ATOM     23  C   UNL d   1      48.589  35.961  53.621  0.00  0.00     0.005 A 
BRANCH  20  24
ATOM     24  N   UNL d   1      46.312  36.199  52.664  0.00  0.00    -0.114 N 
ATOM     25  O   UNL d   1      46.173  36.709  52.034  0.00  0.00    -0.532 OA
ATOM     26  O   UNL d   1      45.692  35.754  52.978  0.00  0.00    -0.532 OA
ENDBRANCH  20  24
ENDBRANCH  16  18
ENDBRANCH   1  15
TORSDOF 9
ENDMDL
MODEL 6
REMARK VINA RESULT:      -5.6      1.276      6.496
REMARK  9 active torsions:
REMARK  status: ('A' for Active; 'I' for Inactive)
REMARK    1  A    between atoms: N_6  and  C_1 
REMARK    2  A    between atoms: N_2  and  C_10 
REMARK    3  A    between atoms: C_3  and  N_6 
REMARK    4  A    between atoms: N_4  and  C_3 
REMARK       I    between atoms: C_7  and  N_4 
REMARK    5  A    between atoms: C_12  and  C_7 
REMARK    6  A    between atoms: C_11  and  C_8 
REMARK    7  A    between atoms: C_15  and  C_11 
REMARK    8  A    between atoms: O_21  and  C_15 
REMARK    9  A    between atoms: C_25  and  O_21 
ROOT
ATOM      1  C   UNL d   1      48.757  35.567  53.267  0.00  0.00     0.277 C 
ATOM      2  S   UNL d   1      48.697  36.134  53.872  0.00  0.00    -0.023 SA
ENDROOT
BRANCH   1   3
ATOM      3  N   UNL d   1      49.470  35.170  53.152  0.00  0.00    -0.347 NA
BRANCH   3   4
ATOM      4  C   UNL d   1      50.183  34.774  53.026  0.00  0.00     0.248 A 
ATOM      5  N   UNL d   1      50.948  35.053  53.219  0.00  0.00    -0.210 NA
ATOM      6  C   UNL d   1      51.493  34.473  52.994  0.00  0.00     0.096 A 
ATOM      7  C   UNL d   1      51.074  33.843  52.667  0.00  0.00     0.059 A 
ATOM      8  S   UNL d   1      50.270  34.025  52.685  0.00  0.00    -0.033 SA
BRANCH   6   9
ATOM      9  C   UNL d   1      52.313  34.522  53.084  0.00  0.00     0.088 C 
BRANCH   9  10
ATOM     10  C   UNL d   1      52.644  34.587  53.835  0.00  0.00     0.302 C 
ATOM     11  O   UNL d   1      52.644  35.319  54.219  0.00  0.00    -0.259 OA
BRANCH  10  12
ATOM     12  O   UNL d   1      52.972  33.925  54.203  0.00  0.00    -0.271 OA
BRANCH  12  13
ATOM     13  C   UNL d   1      53.679  33.992  54.619  0.00  0.00     0.126 C 
ATOM     14  C   UNL d   1      54.031  33.322  54.949  0.00  0.00     0.029 C 
ENDBRANCH  12  13
ENDBRANCH  10  12
ENDBRANCH   9  10
ENDBRANCH   6   9
ENDBRANCH   3   4
ENDBRANCH   1   3
BRANCH   1  15
ATOM     15  N   UNL d   1      48.103  35.408  52.790  0.00  0.00    -0.168 NA
ATOM     16  C   UNL d   1      47.511  35.976  52.687  0.00  0.00     0.282 C 
ATOM     17  O   UNL d   1      47.572  36.709  53.065  0.00  0.00    -0.265 OA
BRANCH  16  18
ATOM     18  C   UNL d   1      46.857  35.817  52.210  0.00  0.00     0.060 A 
ATOM     19  C   UNL d   1      46.129  35.618  52.552  0.00  0.00     0.028 A 
ATOM     20  C   UNL d   1      45.479  35.460  52.075  0.00  0.00     0.127 A 
ATOM     21  C   UNL d   1      45.544  35.497  51.255  0.00  0.00     0.024 A 
ATOM     22  C   UNL d   1      46.270  35.695  50.913  0.00  0.00     0.002 A 
ATOM     23  C   UNL d   1      46.931  35.856  51.391  0.00  0.00     0.005 A 
BRANCH  20  24
ATOM     24  N   UNL d   1      44.757  35.263  52.430  0.00  0.00    -0.114 N 
ATOM     25  O   UNL d   1      44.470  34.492  52.401  0.00  0.00    -0.532 OA
ATOM     26  O   UNL d   1      44.324  35.849  52.816  0.00  0.00    -0.532 OA
ENDBRANCH  20  24
ENDBRANCH  16  18
ENDBRANCH   1  15
TORSDOF 9
ENDMDL
MODEL 7
REMARK VINA RESULT:      -5.3      1.656      6.474
REMARK  9 active torsions:
REMARK  status: ('A' for Active; 'I' for Inactive)
REMARK    1  A    between atoms: N_6  and  C_1 
REMARK    2  A    between atoms: N_2  and  C_10 
REMARK    3  A    between atoms: C_3  and  N_6 
REMARK    4  A    between atoms: N_4  and  C_3 
REMARK       I    between atoms: C_7  and  N_4 
REMARK    5  A    between atoms: C_12  and  C_7 
REMARK    6  A    between atoms: C_11  and  C_8 
REMARK    7  A    between atoms: C_15  and  C_11 
REMARK    8  A    between atoms: O_21  and  C_15 
REMARK    9  A    between atoms: C_25  and  O_21 
ROOT
ATOM      1  C   UNL d   1      50.754  34.276  53.119  0.00  0.00     0.277 C 
ATOM      2  S   UNL d   1      50.748  34.845  53.725  0.00  0.00    -0.023 SA
ENDROOT
BRANCH   1   3
ATOM      3  N   UNL d   1      51.346  33.703  53.107  0.00  0.00    -0.347 NA
BRANCH   3   4
ATOM      4  C   UNL d   1      51.934  33.125  53.102  0.00  0.00     0.248 A 
ATOM      5  N   UNL d   1      52.720  33.213  53.374  0.00  0.00    -0.210 NA
ATOM      6  C   UNL d   1      53.110  32.492  53.261  0.00  0.00     0.096 A 
ATOM      7  C   UNL d   1      52.574  31.964  52.924  0.00  0.00     0.059 A 
ATOM      8  S   UNL d   1      51.852  32.349  52.825  0.00  0.00    -0.033 SA
BRANCH   6   9
ATOM      9  C   UNL d   1      53.898  32.334  53.455  0.00  0.00     0.088 C 
BRANCH   9  10
ATOM     10  C   UNL d   1      54.170  32.466  54.221  0.00  0.00     0.302 C 
ATOM     11  O   UNL d   1      53.806  32.080  54.854  0.00  0.00    -0.259 OA
BRANCH  10  12
ATOM     12  O   UNL d   1      54.802  32.980  54.354  0.00  0.00    -0.271 OA
BRANCH  12  13
ATOM     13  C   UNL d   1      54.903  33.326  55.094  0.00  0.00     0.126 C 
ATOM     14  C   UNL d   1      55.377  33.997  55.176  0.00  0.00     0.029 C 
ENDBRANCH  12  13
ENDBRANCH  10  12
ENDBRANCH   9  10
ENDBRANCH   6   9
ENDBRANCH   3   4
ENDBRANCH   1   3
BRANCH   1  15
ATOM     15  N   UNL d   1      50.168  34.292  52.538  0.00  0.00    -0.168 NA
ATOM     16  C   UNL d   1      49.561  34.851  52.570  0.00  0.00     0.282 C 
ATOM     17  O   UNL d   1      49.538  35.401  53.188  0.00  0.00    -0.265 OA
BRANCH  16  18
ATOM     18  C   UNL d   1      48.975  34.867  51.989  0.00  0.00     0.060 A 
ATOM     19  C   UNL d   1      48.255  35.252  52.132  0.00  0.00     0.028 A 
ATOM     20  C   UNL d   1      47.673  35.266  51.552  0.00  0.00     0.127 A 
ATOM     21  C   UNL d   1      47.799  34.899  50.826  0.00  0.00     0.024 A 
ATOM     22  C   UNL d   1      48.516  34.515  50.682  0.00  0.00     0.002 A 
ATOM     23  C   UNL d   1      49.109  34.497  51.266  0.00  0.00     0.005 A 
BRANCH  20  24
ATOM     24  N   UNL d   1      46.959  35.655  51.707  0.00  0.00    -0.114 N 
ATOM     25  O   UNL d   1      46.953  36.413  52.029  0.00  0.00    -0.532 OA
ATOM     26  O   UNL d   1      46.247  35.275  51.537  0.00  0.00    -0.532 OA
ENDBRANCH  20  24
ENDBRANCH  16  18
ENDBRANCH   1  15
TORSDOF 9
ENDMDL
MODEL 8
REMARK VINA RESULT:      -4.0     11.320     12.358
REMARK  9 active torsions:
REMARK  status: ('A' for Active; 'I' for Inactive)
REMARK    1  A    between atoms: N_6  and  C_1 
REMARK    2  A    between atoms: N_2  and  C_10 
REMARK    3  A    between atoms: C_3  and  N_6 
REMARK    4  A    between atoms: N_4  and  C_3 
REMARK       I    between atoms: C_7  and  N_4 
REMARK    5  A    between atoms: C_12  and  C_7 
REMARK    6  A    between atoms: C_11  and  C_8 
REMARK    7  A    between atoms: C_15  and  C_11 
REMARK    8  A    between atoms: O_21  and  C_15 
REMARK    9  A    between atoms: C_25  and  O_21 
ROOT
ATOM      1  C   UNL d   1      44.658  26.796  57.116  0.00  0.00     0.277 C 
ATOM      2  S   UNL d   1      44.956  27.293  56.521  0.00  0.00    -0.023 SA
ENDROOT
BRANCH   1   3
ATOM      3  N   UNL d   1      44.569  25.990  56.967  0.00  0.00    -0.347 NA
BRANCH   3   4
ATOM      4  C   UNL d   1      44.481  25.182  56.826  0.00  0.00     0.248 A 
ATOM      5  N   UNL d   1      44.474  24.575  57.402  0.00  0.00    -0.210 NA
ATOM      6  C   UNL d   1      44.372  23.855  57.009  0.00  0.00     0.096 A 
ATOM      7  C   UNL d   1      44.316  24.011  56.201  0.00  0.00     0.059 A 
ATOM      8  S   UNL d   1      44.382  24.824  56.086  0.00  0.00    -0.033 SA
BRANCH   6   9
ATOM      9  C   UNL d   1      44.333  23.111  57.368  0.00  0.00     0.088 C 
BRANCH   9  10
ATOM     10  C   UNL d   1      45.024  22.721  57.585  0.00  0.00     0.302 C 
ATOM     11  O   UNL d   1      45.540  22.448  57.000  0.00  0.00    -0.259 OA
BRANCH  10  12
ATOM     12  O   UNL d   1      45.201  22.602  58.383  0.00  0.00    -0.271 OA
BRANCH  12  13
ATOM     13  C   UNL d   1      45.319  21.841  58.671  0.00  0.00     0.126 C 
ATOM     14  C   UNL d   1      45.851  21.710  59.289  0.00  0.00     0.029 C 
ENDBRANCH  12  13
ENDBRANCH  10  12
ENDBRANCH   9  10
ENDBRANCH   6   9
ENDBRANCH   3   4
ENDBRANCH   1   3
BRANCH   1  15
ATOM     15  N   UNL d   1      44.454  27.114  57.850  0.00  0.00    -0.168 NA
ATOM     16  C   UNL d   1      44.946  27.666  58.219  0.00  0.00     0.282 C 
ATOM     17  O   UNL d   1      45.648  27.903  57.852  0.00  0.00    -0.265 OA
BRANCH  16  18
ATOM     18  C   UNL d   1      44.742  27.984  58.953  0.00  0.00     0.060 A 
ATOM     19  C   UNL d   1      44.712  28.806  59.058  0.00  0.00     0.028 A 
ATOM     20  C   UNL d   1      44.508  29.121  59.789  0.00  0.00     0.127 A 
ATOM     21  C   UNL d   1      44.333  28.625  60.422  0.00  0.00     0.024 A 
ATOM     22  C   UNL d   1      44.363  27.806  60.319  0.00  0.00     0.002 A 
ATOM     23  C   UNL d   1      44.568  27.482  59.581  0.00  0.00     0.005 A 
BRANCH  20  24
ATOM     24  N   UNL d   1      44.482  29.943  59.880  0.00  0.00    -0.114 N 
ATOM     25  O   UNL d   1      44.438  30.439  59.224  0.00  0.00    -0.532 OA
ATOM     26  O   UNL d   1      44.500  30.266  60.639  0.00  0.00    -0.532 OA
ENDBRANCH  20  24
ENDBRANCH  16  18
ENDBRANCH   1  15
TORSDOF 9
ENDMDL
MODEL 9
REMARK VINA RESULT:      -4.0     10.464     11.477
REMARK  9 active torsions:
REMARK  status: ('A' for Active; 'I' for Inactive)
REMARK    1  A    between atoms: N_6  and  C_1 
REMARK    2  A    between atoms: N_2  and  C_10 
REMARK    3  A    between atoms: C_3  and  N_6 
REMARK    4  A    between atoms: N_4  and  C_3 
REMARK       I    between atoms: C_7  and  N_4 
REMARK    5  A    between atoms: C_12  and  C_7 
REMARK    6  A    between atoms: C_11  and  C_8 
REMARK    7  A    between atoms: C_15  and  C_11 
REMARK    8  A    between atoms: O_21  and  C_15 
REMARK    9  A    between atoms: C_25  and  O_21 
ROOT
ATOM      1  C   UNL d   1      45.137  27.718  57.546  0.00  0.00     0.277 C 
ATOM      2  S   UNL d   1      45.369  27.796  56.751  0.00  0.00    -0.023 SA
ENDROOT
BRANCH   1   3
ATOM      3  N   UNL d   1      44.966  26.971  57.848  0.00  0.00    -0.347 NA
BRANCH   3   4
ATOM      4  C   UNL d   1      44.802  26.224  58.158  0.00  0.00     0.248 A 
ATOM      5  N   UNL d   1      44.628  25.532  57.721  0.00  0.00    -0.210 NA
ATOM      6  C   UNL d   1      44.502  24.918  58.260  0.00  0.00     0.096 A 
ATOM      7  C   UNL d   1      44.595  25.223  59.020  0.00  0.00     0.059 A 
ATOM      8  S   UNL d   1      44.779  26.024  58.961  0.00  0.00    -0.033 SA
BRANCH   6   9
ATOM      9  C   UNL d   1      44.315  24.136  58.065  0.00  0.00     0.088 C 
BRANCH   9  10
ATOM     10  C   UNL d   1      44.915  23.588  57.933  0.00  0.00     0.302 C 
ATOM     11  O   UNL d   1      45.329  23.274  58.575  0.00  0.00    -0.259 OA
BRANCH  10  12
ATOM     12  O   UNL d   1      45.101  23.355  57.163  0.00  0.00    -0.271 OA
BRANCH  12  13
ATOM     13  C   UNL d   1      45.324  22.577  57.010  0.00  0.00     0.126 C 
ATOM     14  C   UNL d   1      45.191  22.247  56.265  0.00  0.00     0.029 C 
ENDBRANCH  12  13
ENDBRANCH  10  12
ENDBRANCH   9  10
ENDBRANCH   6   9
ENDBRANCH   3   4
ENDBRANCH   1   3
BRANCH   1  15
ATOM     15  N   UNL d   1      45.081  28.390  58.022  0.00  0.00    -0.168 NA
ATOM     16  C   UNL d   1      44.991  29.138  57.682  0.00  0.00     0.282 C 
ATOM     17  O   UNL d   1      44.957  29.217  56.860  0.00  0.00    -0.265 OA
BRANCH  16  18
ATOM     18  C   UNL d   1      44.935  29.810  58.159  0.00  0.00     0.060 A 
ATOM     19  C   UNL d   1      44.972  29.741  58.984  0.00  0.00     0.028 A 
ATOM     20  C   UNL d   1      44.915  30.410  59.456  0.00  0.00     0.127 A 
ATOM     21  C   UNL d   1      44.822  31.154  59.116  0.00  0.00     0.024 A 
ATOM     22  C   UNL d   1      44.785  31.225  58.294  0.00  0.00     0.002 A 
ATOM     23  C   UNL d   1      44.842  30.550  57.811  0.00  0.00     0.005 A 
BRANCH  20  24
ATOM     24  N   UNL d   1      44.954  30.327  60.279  0.00  0.00    -0.114 N 
ATOM     25  O   UNL d   1      44.912  29.584  60.630  0.00  0.00    -0.532 OA
ATOM     26  O   UNL d   1      45.035  30.999  60.750  0.00  0.00    -0.532 OA
ENDBRANCH  20  24
ENDBRANCH  16  18
ENDBRANCH   1  15
TORSDOF 9
ENDMDL
