MODEL 1
REMARK VINA RESULT:      -1.4      0.000      0.000
REMARK  4 active torsions:
REMARK  status: ('A' for Active; 'I' for Inactive)
REMARK    1  A    between atoms: C_7  and  C_2 
REMARK    2  A    between atoms: C_12  and  C_4 
REMARK    3  A    between atoms: C_11  and  C_7 
REMARK    4  A    between atoms: N_18  and  C_12 
ROOT
ATOM      1  C   UNL d   1     -41.245-122.694 -52.454  0.00  0.00     0.108 A 
ATOM      2  C   UNL d   1     -41.313-122.859 -51.126  0.00  0.00     0.141 A 
ATOM      3  C   UNL d   1     -41.233-121.947 -52.104  0.00  0.00     0.064 A 
ATOM      4  C   UNL d   1     -41.209-122.765 -53.273  0.00  0.00     0.079 A 
ATOM      5  O   UNL d   1     -41.295-123.261 -51.851  0.00  0.00    -0.304 OA
ATOM      6  C   UNL d   1     -41.275-122.050 -51.283  0.00  0.00     0.220 A 
ATOM      7  C   UNL d   1     -41.185-121.268 -52.570  0.00  0.00     0.008 A 
ATOM      8  C   UNL d   1     -41.161-122.091 -53.742  0.00  0.00     0.199 A 
ATOM      9  C   UNL d   1     -41.149-121.340 -53.390  0.00  0.00     0.042 A 
ATOM     10  O   UNL d   1     -41.278-121.446 -50.715  0.00  0.00    -0.284 OA
ATOM     11  O   UNL d   1     -41.126-122.159 -54.559  0.00  0.00    -0.286 OA
ATOM     12  C   UNL d   1     -41.173-120.521 -52.220  0.00  0.00     0.000 C 
ENDROOT
BRANCH   2  13
ATOM     13  C   UNL d   1     -41.362-123.208 -50.380  0.00  0.00     0.053 C 
BRANCH  13  14
ATOM     14  C   UNL d   1     -42.105-123.381 -50.052  0.00  0.00     0.102 A 
ATOM     15  O   UNL d   1     -42.724-123.765 -50.434  0.00  0.00    -0.305 OA
ATOM     16  C   UNL d   1     -43.352-123.817 -49.903  0.00  0.00     0.123 A 
ATOM     17  C   UNL d   1     -43.118-123.466 -49.197  0.00  0.00     0.029 A 
ATOM     18  C   UNL d   1     -42.342-123.195 -49.293  0.00  0.00     0.027 A 
ENDBRANCH  13  14
ENDBRANCH   2  13
BRANCH   4  19
ATOM     19  C   UNL d   1     -41.221-123.512 -53.627  0.00  0.00     0.086 C 
BRANCH  19  20
ATOM     20  N   UNL d   1     -41.765-123.677 -54.220  0.00  0.00    -0.300 N 
ATOM     21  C   UNL d   1     -41.526-123.705 -55.009  0.00  0.00     0.100 C 
ATOM     22  C   UNL d   1     -42.562-123.817 -54.032  0.00  0.00     0.100 C 
ENDBRANCH  19  20
ENDBRANCH   4  19
TORSDOF 4
ENDMDL
MODEL 2
REMARK VINA RESULT:      -0.9      1.321      3.571
REMARK  4 active torsions:
REMARK  status: ('A' for Active; 'I' for Inactive)
REMARK    1  A    between atoms: C_7  and  C_2 
REMARK    2  A    between atoms: C_12  and  C_4 
REMARK    3  A    between atoms: C_11  and  C_7 
REMARK    4  A    between atoms: N_18  and  C_12 
ROOT
ATOM      1  C   UNL d   1     -41.528-122.614 -51.654  0.00  0.00     0.108 A 
ATOM      2  C   UNL d   1     -41.262-122.627 -52.967  0.00  0.00     0.141 A 
ATOM      3  C   UNL d   1     -41.427-121.834 -51.900  0.00  0.00     0.064 A 
ATOM      4  C   UNL d   1     -41.699-122.779 -50.866  0.00  0.00     0.079 A 
ATOM      5  O   UNL d   1     -41.426-123.108 -52.312  0.00  0.00    -0.304 OA
ATOM      6  C   UNL d   1     -41.263-121.843 -52.712  0.00  0.00     0.220 A 
ATOM      7  C   UNL d   1     -41.496-121.213 -51.361  0.00  0.00     0.008 A 
ATOM      8  C   UNL d   1     -41.769-122.163 -50.324  0.00  0.00     0.199 A 
ATOM      9  C   UNL d   1     -41.667-121.378 -50.572  0.00  0.00     0.042 A 
ATOM     10  O   UNL d   1     -41.123-121.179 -53.188  0.00  0.00    -0.284 OA
ATOM     11  O   UNL d   1     -41.939-122.324 -49.537  0.00  0.00    -0.286 OA
ATOM     12  C   UNL d   1     -41.395-120.433 -51.607  0.00  0.00     0.000 C 
ENDROOT
BRANCH   2  13
ATOM     13  C   UNL d   1     -41.123-122.888 -53.737  0.00  0.00     0.053 C 
BRANCH  13  14
ATOM     14  C   UNL d   1     -41.764-123.057 -54.239  0.00  0.00     0.102 A 
ATOM     15  O   UNL d   1     -42.300-123.673 -54.146  0.00  0.00    -0.305 OA
ATOM     16  C   UNL d   1     -42.840-123.631 -54.767  0.00  0.00     0.123 A 
ATOM     17  C   UNL d   1     -42.634-122.989 -55.239  0.00  0.00     0.029 A 
ATOM     18  C   UNL d   1     -41.964-122.634 -54.907  0.00  0.00     0.027 A 
ENDBRANCH  13  14
ENDBRANCH   2  13
BRANCH   4  19
ATOM     19  C   UNL d   1     -41.800-123.559 -50.615  0.00  0.00     0.086 C 
BRANCH  19  20
ATOM     20  N   UNL d   1     -42.284-123.725 -49.972  0.00  0.00    -0.300 N 
ATOM     21  C   UNL d   1     -41.960-123.811 -49.219  0.00  0.00     0.100 C 
ATOM     22  C   UNL d   1     -43.105-123.808 -50.074  0.00  0.00     0.100 C 
ENDBRANCH  19  20
ENDBRANCH   4  19
TORSDOF 4
ENDMDL
