MODEL 1
REMARK VINA RESULT:      68.7      0.000      0.000
REMARK  5 active torsions:
REMARK  status: ('A' for Active; 'I' for Inactive)
REMARK    1  A    between atoms: C_6  and  S_1 
REMARK    2  A    between atoms: C_9  and  S_1 
REMARK    3  A    between atoms: C_2  and  S_11 
REMARK    4  A    between atoms: N_4  and  C_3 
REMARK    5  A    between atoms: S_11  and  C_10 
ROOT
ATOM      1  C   UNL d   1     -47.532  30.227  35.650  0.00  0.00     0.133 A 
ATOM      2  C   UNL d   1     -47.419  31.032  35.511  0.00  0.00     0.035 A 
ATOM      3  C   UNL d   1     -47.650  31.363  34.790  0.00  0.00     0.094 A 
ATOM      4  C   UNL d   1     -47.877  29.751  35.065  0.00  0.00     0.054 A 
ATOM      5  C   UNL d   1     -47.993  30.885  34.209  0.00  0.00     0.012 A 
ATOM      6  C   UNL d   1     -48.106  30.082  34.348  0.00  0.00     0.009 A 
ENDROOT
BRANCH   4   7
ATOM      7  S   UNL d   1     -47.991  28.945  35.203  0.00  0.00    -0.047 SA
BRANCH   7   8
ATOM      8  C   UNL d   1     -48.558  28.530  34.770  0.00  0.00     0.194 A 
ATOM      9  N   UNL d   1     -49.242  28.849  34.445  0.00  0.00    -0.220 NA
ATOM     10  C   UNL d   1     -49.647  28.239  34.061  0.00  0.00     0.101 A 
ATOM     11  C   UNL d   1     -50.351  28.226  33.645  0.00  0.00     0.021 A 
ATOM     12  C   UNL d   1     -49.203  27.548  34.156  0.00  0.00     0.101 A 
ATOM     13  C   UNL d   1     -50.622  27.524  33.318  0.00  0.00     0.002 A 
ATOM     14  C   UNL d   1     -50.182  26.828  33.409  0.00  0.00     0.002 A 
ATOM     15  C   UNL d   1     -49.472  26.843  33.829  0.00  0.00     0.021 A 
ATOM     16  N   UNL d   1     -48.534  27.729  34.592  0.00  0.00    -0.220 NA
ENDBRANCH   7   8
ENDBRANCH   4   7
BRANCH   1  17
ATOM     17  N   UNL d   1     -47.303  29.894  36.371  0.00  0.00    -0.113 N 
ATOM     18  O   UNL d   1     -47.818  29.909  37.015  0.00  0.00    -0.532 OA
ATOM     19  O   UNL d   1     -46.559  29.547  36.447  0.00  0.00    -0.532 OA
ENDBRANCH   1  17
BRANCH   3  20
ATOM     20  S   UNL d   1     -47.537  32.163  34.652  0.00  0.00     0.278 S 
ATOM     21  O   UNL d   1     -46.886  32.166  35.151  0.00  0.00    -0.213 OA
ATOM     22  O   UNL d   1     -47.423  32.967  34.514  0.00  0.00    -0.213 OA
BRANCH  20  23
ATOM     23  C   UNL d   1     -48.193  32.167  34.148  0.00  0.00     0.503 C 
ATOM     24  F   UNL d   1     -48.787  32.172  33.688  0.00  0.00    -0.157 F 
ATOM     25  F   UNL d   1     -48.233  32.371  33.309  0.00  0.00    -0.157 F 
ATOM     26  F   UNL d   1     -49.017  31.970  34.319  0.00  0.00    -0.157 F 
ENDBRANCH  20  23
ENDBRANCH   3  20
TORSDOF 5
ENDMDL
MODEL 2
REMARK VINA RESULT:      70.7      4.311      5.753
REMARK  5 active torsions:
REMARK  status: ('A' for Active; 'I' for Inactive)
REMARK    1  A    between atoms: C_6  and  S_1 
REMARK    2  A    between atoms: C_9  and  S_1 
REMARK    3  A    between atoms: C_2  and  S_11 
REMARK    4  A    between atoms: N_4  and  C_3 
REMARK    5  A    between atoms: S_11  and  C_10 
ROOT
ATOM      1  C   UNL d   1     -50.063  24.878  34.045  0.00  0.00     0.133 A 
ATOM      2  C   UNL d   1     -49.687  25.520  34.402  0.00  0.00     0.035 A 
ATOM      3  C   UNL d   1     -50.071  26.251  34.447  0.00  0.00     0.094 A 
ATOM      4  C   UNL d   1     -50.826  24.969  33.732  0.00  0.00     0.054 A 
ATOM      5  C   UNL d   1     -50.831  26.336  34.134  0.00  0.00     0.012 A 
ATOM      6  C   UNL d   1     -51.206  25.696  33.779  0.00  0.00     0.009 A 
ENDROOT
BRANCH   4   7
ATOM      7  S   UNL d   1     -51.204  24.328  33.375  0.00  0.00    -0.047 SA
BRANCH   7   8
ATOM      8  C   UNL d   1     -52.016  24.219  33.477  0.00  0.00     0.194 A 
ATOM      9  N   UNL d   1     -52.599  24.772  33.307  0.00  0.00    -0.220 NA
ATOM     10  C   UNL d   1     -53.330  24.433  33.493  0.00  0.00     0.101 A 
ATOM     11  C   UNL d   1     -54.095  24.718  33.440  0.00  0.00     0.021 A 
ATOM     12  C   UNL d   1     -53.185  23.671  33.776  0.00  0.00     0.101 A 
ATOM     13  C   UNL d   1     -54.726  24.246  33.669  0.00  0.00     0.002 A 
ATOM     14  C   UNL d   1     -54.587  23.480  33.955  0.00  0.00     0.002 A 
ATOM     15  C   UNL d   1     -53.815  23.195  34.007  0.00  0.00     0.021 A 
ATOM     16  N   UNL d   1     -52.377  23.541  33.766  0.00  0.00    -0.220 NA
ENDBRANCH   7   8
ENDBRANCH   4   7
BRANCH   1  17
ATOM     17  N   UNL d   1     -49.682  24.147  33.998  0.00  0.00    -0.113 N 
ATOM     18  O   UNL d   1     -49.720  23.621  34.633  0.00  0.00    -0.532 OA
ATOM     19  O   UNL d   1     -49.263  23.942  33.318  0.00  0.00    -0.532 OA
ENDBRANCH   1  17
BRANCH   3  20
ATOM     20  S   UNL d   1     -49.697  26.888  34.802  0.00  0.00     0.278 S 
ATOM     21  O   UNL d   1     -50.180  26.816  35.460  0.00  0.00    -0.213 OA
ATOM     22  O   UNL d   1     -49.321  27.528  35.159  0.00  0.00    -0.213 OA
BRANCH  20  23
ATOM     23  C   UNL d   1     -49.206  26.966  34.141  0.00  0.00     0.503 C 
ATOM     24  F   UNL d   1     -48.758  27.037  33.542  0.00  0.00    -0.157 F 
ATOM     25  F   UNL d   1     -48.376  27.202  34.104  0.00  0.00    -0.157 F 
ATOM     26  F   UNL d   1     -49.386  26.833  33.306  0.00  0.00    -0.157 F 
ENDBRANCH  20  23
ENDBRANCH   3  20
TORSDOF 5
ENDMDL
MODEL 3
REMARK VINA RESULT:      71.1      2.288      4.120
REMARK  5 active torsions:
REMARK  status: ('A' for Active; 'I' for Inactive)
REMARK    1  A    between atoms: C_6  and  S_1 
REMARK    2  A    between atoms: C_9  and  S_1 
REMARK    3  A    between atoms: C_2  and  S_11 
REMARK    4  A    between atoms: N_4  and  C_3 
REMARK    5  A    between atoms: S_11  and  C_10 
ROOT
ATOM      1  C   UNL d   1     -47.394  29.826  36.229  0.00  0.00     0.133 A 
ATOM      2  C   UNL d   1     -47.845  29.138  36.279  0.00  0.00     0.035 A 
ATOM      3  C   UNL d   1     -48.367  28.939  35.669  0.00  0.00     0.094 A 
ATOM      4  C   UNL d   1     -47.466  30.318  35.565  0.00  0.00     0.054 A 
ATOM      5  C   UNL d   1     -48.434  29.433  35.010  0.00  0.00     0.012 A 
ATOM      6  C   UNL d   1     -47.984  30.120  34.959  0.00  0.00     0.009 A 
ENDROOT
BRANCH   4   7
ATOM      7  S   UNL d   1     -47.015  31.008  35.513  0.00  0.00    -0.047 SA
BRANCH   7   8
ATOM      8  C   UNL d   1     -47.275  31.635  35.043  0.00  0.00     0.194 A 
ATOM      9  N   UNL d   1     -46.845  31.996  34.443  0.00  0.00    -0.220 NA
ATOM     10  C   UNL d   1     -47.316  32.595  34.121  0.00  0.00     0.101 A 
ATOM     11  C   UNL d   1     -47.183  33.130  33.518  0.00  0.00     0.021 A 
ATOM     12  C   UNL d   1     -48.034  32.593  34.530  0.00  0.00     0.101 A 
ATOM     13  C   UNL d   1     -47.765  33.672  33.314  0.00  0.00     0.002 A 
ATOM     14  C   UNL d   1     -48.487  33.676  33.721  0.00  0.00     0.002 A 
ATOM     15  C   UNL d   1     -48.619  33.135  34.329  0.00  0.00     0.021 A 
ATOM     16  N   UNL d   1     -48.007  32.003  35.097  0.00  0.00    -0.220 NA
ENDBRANCH   7   8
ENDBRANCH   4   7
BRANCH   1  17
ATOM     17  N   UNL d   1     -46.873  30.026  36.838  0.00  0.00    -0.113 N 
ATOM     18  O   UNL d   1     -47.167  30.266  37.570  0.00  0.00    -0.532 OA
ATOM     19  O   UNL d   1     -46.059  29.986  36.714  0.00  0.00    -0.532 OA
ENDBRANCH   1  17
BRANCH   3  20
ATOM     20  S   UNL d   1     -48.814  28.255  35.720  0.00  0.00     0.278 S 
ATOM     21  O   UNL d   1     -49.102  28.487  36.452  0.00  0.00    -0.213 OA
ATOM     22  O   UNL d   1     -49.265  27.567  35.772  0.00  0.00    -0.213 OA
BRANCH  20  23
ATOM     23  C   UNL d   1     -48.528  28.014  34.982  0.00  0.00     0.503 C 
ATOM     24  F   UNL d   1     -48.270  27.796  34.312  0.00  0.00    -0.157 F 
ATOM     25  F   UNL d   1     -48.915  28.047  34.211  0.00  0.00    -0.157 F 
ATOM     26  F   UNL d   1     -47.765  27.663  34.779  0.00  0.00    -0.157 F 
ENDBRANCH  20  23
ENDBRANCH   3  20
TORSDOF 5
ENDMDL
