MODEL 1
REMARK VINA RESULT:      -8.8      0.000      0.000
REMARK  4 active torsions:
REMARK  status: ('A' for Active; 'I' for Inactive)
REMARK    1  A    between atoms: N_2  and  S_1 
REMARK    2  A    between atoms: C_6  and  S_1 
REMARK       I    between atoms: C_3  and  N_5 
REMARK    3  A    between atoms: C_7  and  C_3 
REMARK    4  A    between atoms: C_4  and  C_8 
ROOT
ATOM      1  N   UNL d   1     -49.370  12.535  22.060  0.00  0.00    -0.226 N 
ATOM      2  C   UNL d   1     -47.132  12.381  23.077  0.00  0.00     0.288 C 
ATOM      3  N   UNL d   1     -47.881  12.429  22.740  0.00  0.00    -0.267 N 
ATOM      4  C   UNL d   1     -48.784  13.078  21.857  0.00  0.00     0.111 A 
ATOM      5  C   UNL d   1     -49.206  11.933  22.611  0.00  0.00     0.111 A 
ATOM      6  C   UNL d   1     -48.457  11.885  22.948  0.00  0.00     0.103 A 
ATOM      7  C   UNL d   1     -48.045  13.021  22.198  0.00  0.00     0.103 A 
ATOM      8  O   UNL d   1     -46.963  11.785  23.623  0.00  0.00    -0.264 OA
ENDROOT
BRANCH   1   9
ATOM      9  S   UNL d   1     -50.109  12.583  21.728  0.00  0.00     0.271 S 
ATOM     10  O   UNL d   1     -50.858  12.631  21.390  0.00  0.00    -0.200 OA
ATOM     11  O   UNL d   1     -49.847  12.166  21.078  0.00  0.00    -0.200 OA
BRANCH   9  12
ATOM     12  C   UNL d   1     -50.376  13.005  22.382  0.00  0.00     0.104 A 
ATOM     13  C   UNL d   1     -50.327  13.828  22.398  0.00  0.00     0.017 A 
ATOM     14  C   UNL d   1     -50.595  14.250  23.053  0.00  0.00     0.072 A 
ATOM     15  C   UNL d   1     -50.914  13.852  23.697  0.00  0.00     0.004 A 
ATOM     16  C   UNL d   1     -50.967  13.025  23.690  0.00  0.00     0.001 A 
ATOM     17  C   UNL d   1     -50.697  12.599  23.029  0.00  0.00     0.013 A 
BRANCH  14  18
ATOM     18  C   UNL d   1     -50.544  15.070  23.063  0.00  0.00     0.419 C 
ATOM     19  F   UNL d   1     -51.032  15.643  22.657  0.00  0.00    -0.166 F 
ATOM     20  F   UNL d   1     -49.989  15.575  23.483  0.00  0.00    -0.166 F 
ATOM     21  F   UNL d   1     -50.500  15.820  23.071  0.00  0.00    -0.166 F 
ENDBRANCH  14  18
ENDBRANCH   9  12
ENDBRANCH   1   9
BRANCH   2  22
ATOM     22  C   UNL d   1     -46.547  12.924  22.873  0.00  0.00     0.156 A 
ATOM     23  O   UNL d   1     -45.962  12.822  22.296  0.00  0.00    -0.300 OA
ATOM     24  C   UNL d   1     -45.501  13.496  22.275  0.00  0.00     0.123 A 
ATOM     25  C   UNL d   1     -45.795  14.027  22.841  0.00  0.00     0.029 A 
ATOM     26  C   UNL d   1     -46.444  13.672  23.212  0.00  0.00     0.032 A 
ENDBRANCH   2  22
TORSDOF 4
ENDMDL
MODEL 2
REMARK VINA RESULT:      -8.5      2.403      4.349
REMARK  4 active torsions:
REMARK  status: ('A' for Active; 'I' for Inactive)
REMARK    1  A    between atoms: N_2  and  S_1 
REMARK    2  A    between atoms: C_6  and  S_1 
REMARK       I    between atoms: C_3  and  N_5 
REMARK    3  A    between atoms: C_7  and  C_3 
REMARK    4  A    between atoms: C_4  and  C_8 
ROOT
ATOM      1  N   UNL d   1     -47.888  12.282  22.970  0.00  0.00    -0.226 N 
ATOM      2  C   UNL d   1     -49.779  13.408  21.863  0.00  0.00     0.288 C 
ATOM      3  N   UNL d   1     -49.146  13.030  22.229  0.00  0.00    -0.267 N 
ATOM      4  C   UNL d   1     -48.321  12.857  23.372  0.00  0.00     0.111 A 
ATOM      5  C   UNL d   1     -48.089  12.081  22.188  0.00  0.00     0.111 A 
ATOM      6  C   UNL d   1     -48.722  12.460  21.822  0.00  0.00     0.103 A 
ATOM      7  C   UNL d   1     -48.945  13.226  22.999  0.00  0.00     0.103 A 
ATOM      8  O   UNL d   1     -49.982  13.213  21.087  0.00  0.00    -0.264 OA
ENDROOT
BRANCH   1   9
ATOM      9  S   UNL d   1     -47.264  11.909  23.331  0.00  0.00     0.271 S 
ATOM     10  O   UNL d   1     -46.632  11.531  23.698  0.00  0.00    -0.200 OA
ATOM     11  O   UNL d   1     -47.747  11.281  23.523  0.00  0.00    -0.200 OA
BRANCH   9  12
ATOM     12  C   UNL d   1     -46.775  12.542  23.140  0.00  0.00     0.104 A 
ATOM     13  C   UNL d   1     -46.183  12.457  22.571  0.00  0.00     0.017 A 
ATOM     14  C   UNL d   1     -45.693  13.089  22.379  0.00  0.00     0.072 A 
ATOM     15  C   UNL d   1     -45.790  13.814  22.755  0.00  0.00     0.004 A 
ATOM     16  C   UNL d   1     -46.381  13.910  23.327  0.00  0.00     0.001 A 
ATOM     17  C   UNL d   1     -46.876  13.271  23.521  0.00  0.00     0.013 A 
BRANCH  14  18
ATOM     18  C   UNL d   1     -45.105  12.998  21.812  0.00  0.00     0.419 C 
ATOM     19  F   UNL d   1     -45.167  13.060  20.961  0.00  0.00    -0.166 F 
ATOM     20  F   UNL d   1     -44.272  12.818  21.917  0.00  0.00    -0.166 F 
ATOM     21  F   UNL d   1     -44.570  12.916  21.291  0.00  0.00    -0.166 F 
ENDBRANCH  14  18
ENDBRANCH   9  12
ENDBRANCH   1   9
BRANCH   2  22
ATOM     22  C   UNL d   1     -50.210  13.983  22.266  0.00  0.00     0.156 A 
ATOM     23  O   UNL d   1     -50.771  13.848  22.860  0.00  0.00    -0.300 OA
ATOM     24  C   UNL d   1     -51.063  14.570  23.107  0.00  0.00     0.123 A 
ATOM     25  C   UNL d   1     -50.686  15.164  22.667  0.00  0.00     0.029 A 
ATOM     26  C   UNL d   1     -50.156  14.800  22.145  0.00  0.00     0.032 A 
ENDBRANCH   2  22
TORSDOF 4
ENDMDL
MODEL 3
REMARK VINA RESULT:      -8.4      2.688      4.507
REMARK  4 active torsions:
REMARK  status: ('A' for Active; 'I' for Inactive)
REMARK    1  A    between atoms: N_2  and  S_1 
REMARK    2  A    between atoms: C_6  and  S_1 
REMARK       I    between atoms: C_3  and  N_5 
REMARK    3  A    between atoms: C_7  and  C_3 
REMARK    4  A    between atoms: C_4  and  C_8 
ROOT
ATOM      1  N   UNL d   1     -47.744  13.987  22.612  0.00  0.00    -0.226 N 
ATOM      2  C   UNL d   1     -49.659  12.519  22.114  0.00  0.00     0.288 C 
ATOM      3  N   UNL d   1     -49.018  13.009  22.277  0.00  0.00    -0.267 N 
ATOM      4  C   UNL d   1     -48.199  13.676  23.225  0.00  0.00     0.111 A 
ATOM      5  C   UNL d   1     -47.932  13.804  21.822  0.00  0.00     0.111 A 
ATOM      6  C   UNL d   1     -48.572  13.313  21.660  0.00  0.00     0.103 A 
ATOM      7  C   UNL d   1     -48.831  13.191  23.053  0.00  0.00     0.103 A 
ATOM      8  O   UNL d   1     -49.849  12.334  21.333  0.00  0.00    -0.264 OA
ENDROOT
BRANCH   1   9
ATOM      9  S   UNL d   1     -47.113  14.470  22.772  0.00  0.00     0.271 S 
ATOM     10  O   UNL d   1     -46.472  14.961  22.934  0.00  0.00    -0.200 OA
ATOM     11  O   UNL d   1     -47.595  15.125  22.718  0.00  0.00    -0.200 OA
BRANCH   9  12
ATOM     12  C   UNL d   1     -46.622  13.812  22.828  0.00  0.00     0.104 A 
ATOM     13  C   UNL d   1     -46.018  13.692  22.279  0.00  0.00     0.017 A 
ATOM     14  C   UNL d   1     -45.527  13.033  22.335  0.00  0.00     0.072 A 
ATOM     15  C   UNL d   1     -45.636  12.489  22.940  0.00  0.00     0.004 A 
ATOM     16  C   UNL d   1     -46.241  12.601  23.496  0.00  0.00     0.001 A 
ATOM     17  C   UNL d   1     -46.736  13.265  23.440  0.00  0.00     0.013 A 
BRANCH  14  18
ATOM     18  C   UNL d   1     -44.927  12.919  21.785  0.00  0.00     0.419 C 
ATOM     19  F   UNL d   1     -44.102  13.135  21.840  0.00  0.00    -0.166 F 
ATOM     20  F   UNL d   1     -44.963  12.553  21.009  0.00  0.00    -0.166 F 
ATOM     21  F   UNL d   1     -44.376  12.816  21.285  0.00  0.00    -0.166 F 
ENDBRANCH  14  18
ENDBRANCH   9  12
ENDBRANCH   1   9
BRANCH   2  22
ATOM     22  C   UNL d   1     -50.112  12.209  22.729  0.00  0.00     0.156 A 
ATOM     23  O   UNL d   1     -49.974  11.499  23.131  0.00  0.00    -0.300 OA
ATOM     24  C   UNL d   1     -50.556  11.407  23.697  0.00  0.00     0.123 A 
ATOM     25  C   UNL d   1     -51.064  12.060  23.653  0.00  0.00     0.029 A 
ATOM     26  C   UNL d   1     -50.789  12.559  23.052  0.00  0.00     0.032 A 
ENDBRANCH   2  22
TORSDOF 4
ENDMDL
MODEL 4
REMARK VINA RESULT:      -8.0      1.983      2.462
REMARK  4 active torsions:
REMARK  status: ('A' for Active; 'I' for Inactive)
REMARK    1  A    between atoms: N_2  and  S_1 
REMARK    2  A    between atoms: C_6  and  S_1 
REMARK       I    between atoms: C_3  and  N_5 
REMARK    3  A    between atoms: C_7  and  C_3 
REMARK    4  A    between atoms: C_4  and  C_8 
ROOT
ATOM      1  N   UNL d   1     -48.147  14.050  22.811  0.00  0.00    -0.226 N 
ATOM      2  C   UNL d   1     -45.974  12.912  23.048  0.00  0.00     0.288 C 
ATOM      3  N   UNL d   1     -46.701  13.290  22.973  0.00  0.00    -0.267 N 
ATOM      4  C   UNL d   1     -47.559  14.154  22.243  0.00  0.00     0.111 A 
ATOM      5  C   UNL d   1     -48.006  13.558  23.468  0.00  0.00     0.111 A 
ATOM      6  C   UNL d   1     -47.279  13.180  23.543  0.00  0.00     0.103 A 
ATOM      7  C   UNL d   1     -46.843  13.775  22.328  0.00  0.00     0.103 A 
ATOM      8  O   UNL d   1     -45.829  12.424  23.698  0.00  0.00    -0.264 OA
ENDROOT
BRANCH   1   9
ATOM      9  S   UNL d   1     -48.864  14.422  22.737  0.00  0.00     0.271 S 
ATOM     10  O   UNL d   1     -49.591  14.800  22.661  0.00  0.00    -0.200 OA
ATOM     11  O   UNL d   1     -48.558  15.089  23.092  0.00  0.00    -0.200 OA
BRANCH   9  12
ATOM     12  C   UNL d   1     -49.176  13.750  22.378  0.00  0.00     0.104 A 
ATOM     13  C   UNL d   1     -49.559  13.174  22.828  0.00  0.00     0.017 A 
ATOM     14  C   UNL d   1     -49.870  12.503  22.469  0.00  0.00     0.072 A 
ATOM     15  C   UNL d   1     -49.802  12.401  21.656  0.00  0.00     0.004 A 
ATOM     16  C   UNL d   1     -49.420  12.974  21.196  0.00  0.00     0.001 A 
ATOM     17  C   UNL d   1     -49.105  13.652  21.559  0.00  0.00     0.013 A 
BRANCH  14  18
ATOM     18  C   UNL d   1     -50.251  11.932  22.922  0.00  0.00     0.419 C 
ATOM     19  F   UNL d   1     -51.058  11.923  23.206  0.00  0.00    -0.166 F 
ATOM     20  F   UNL d   1     -49.945  11.192  23.233  0.00  0.00    -0.166 F 
ATOM     21  F   UNL d   1     -50.601  11.412  23.336  0.00  0.00    -0.166 F 
ENDBRANCH  14  18
ENDBRANCH   9  12
ENDBRANCH   1   9
BRANCH   2  22
ATOM     22  C   UNL d   1     -45.389  13.019  22.479  0.00  0.00     0.156 A 
ATOM     23  O   UNL d   1     -44.955  13.711  22.344  0.00  0.00    -0.300 OA
ATOM     24  C   UNL d   1     -44.435  13.573  21.729  0.00  0.00     0.123 A 
ATOM     25  C   UNL d   1     -44.540  12.791  21.473  0.00  0.00     0.029 A 
ATOM     26  C   UNL d   1     -45.132  12.447  21.938  0.00  0.00     0.032 A 
ENDBRANCH   2  22
TORSDOF 4
ENDMDL
MODEL 5
REMARK VINA RESULT:      -7.2      1.084      1.617
REMARK  4 active torsions:
REMARK  status: ('A' for Active; 'I' for Inactive)
REMARK    1  A    between atoms: N_2  and  S_1 
REMARK    2  A    between atoms: C_6  and  S_1 
REMARK       I    between atoms: C_3  and  N_5 
REMARK    3  A    between atoms: C_7  and  C_3 
REMARK    4  A    between atoms: C_4  and  C_8 
ROOT
ATOM      1  N   UNL d   1     -48.394  12.268  22.960  0.00  0.00    -0.226 N 
ATOM      2  C   UNL d   1     -46.173  13.328  23.084  0.00  0.00     0.288 C 
ATOM      3  N   UNL d   1     -46.916  12.976  23.046  0.00  0.00    -0.267 N 
ATOM      4  C   UNL d   1     -47.821  12.099  22.392  0.00  0.00     0.111 A 
ATOM      5  C   UNL d   1     -48.222  12.798  23.578  0.00  0.00     0.111 A 
ATOM      6  C   UNL d   1     -47.479  13.150  23.615  0.00  0.00     0.103 A 
ATOM      7  C   UNL d   1     -47.088  12.453  22.439  0.00  0.00     0.103 A 
ATOM      8  O   UNL d   1     -45.997  13.855  23.694  0.00  0.00    -0.264 OA
ENDROOT
BRANCH   1   9
ATOM      9  S   UNL d   1     -49.126  11.921  22.923  0.00  0.00     0.271 S 
ATOM     10  O   UNL d   1     -49.869  11.569  22.885  0.00  0.00    -0.200 OA
ATOM     11  O   UNL d   1     -48.852  11.286  23.354  0.00  0.00    -0.200 OA
BRANCH   9  12
ATOM     12  C   UNL d   1     -49.407  12.560  22.487  0.00  0.00     0.104 A 
ATOM     13  C   UNL d   1     -49.769  13.198  22.864  0.00  0.00     0.017 A 
ATOM     14  C   UNL d   1     -50.050  13.837  22.428  0.00  0.00     0.072 A 
ATOM     15  C   UNL d   1     -49.971  13.844  21.610  0.00  0.00     0.004 A 
ATOM     16  C   UNL d   1     -49.608  13.208  21.222  0.00  0.00     0.001 A 
ATOM     17  C   UNL d   1     -49.325  12.563  21.662  0.00  0.00     0.013 A 
BRANCH  14  18
ATOM     18  C   UNL d   1     -50.410  14.470  22.810  0.00  0.00     0.419 C 
ATOM     19  F   UNL d   1     -51.058  14.461  23.367  0.00  0.00    -0.166 F 
ATOM     20  F   UNL d   1     -50.235  15.309  22.754  0.00  0.00    -0.166 F 
ATOM     21  F   UNL d   1     -50.741  15.046  23.160  0.00  0.00    -0.166 F 
ENDBRANCH  14  18
ENDBRANCH   9  12
ENDBRANCH   1   9
BRANCH   2  22
ATOM     22  C   UNL d   1     -45.603  13.157  22.515  0.00  0.00     0.156 A 
ATOM     23  O   UNL d   1     -45.628  13.370  21.715  0.00  0.00    -0.300 OA
ATOM     24  C   UNL d   1     -44.951  13.090  21.352  0.00  0.00     0.123 A 
ATOM     25  C   UNL d   1     -44.496  12.699  21.924  0.00  0.00     0.029 A 
ATOM     26  C   UNL d   1     -44.900  12.740  22.646  0.00  0.00     0.032 A 
ENDBRANCH   2  22
TORSDOF 4
ENDMDL
MODEL 6
REMARK VINA RESULT:      -6.4      2.058      2.815
REMARK  4 active torsions:
REMARK  status: ('A' for Active; 'I' for Inactive)
REMARK    1  A    between atoms: N_2  and  S_1 
REMARK    2  A    between atoms: C_6  and  S_1 
REMARK       I    between atoms: C_3  and  N_5 
REMARK    3  A    between atoms: C_7  and  C_3 
REMARK    4  A    between atoms: C_4  and  C_8 
ROOT
ATOM      1  N   UNL d   1     -47.569  13.868  22.944  0.00  0.00    -0.226 N 
ATOM      2  C   UNL d   1     -45.532  12.511  22.661  0.00  0.00     0.288 C 
ATOM      3  N   UNL d   1     -46.211  12.967  22.753  0.00  0.00    -0.267 N 
ATOM      4  C   UNL d   1     -47.488  13.153  23.347  0.00  0.00     0.111 A 
ATOM      5  C   UNL d   1     -46.961  14.132  22.441  0.00  0.00     0.111 A 
ATOM      6  C   UNL d   1     -46.283  13.676  22.349  0.00  0.00     0.103 A 
ATOM      7  C   UNL d   1     -46.811  12.709  23.248  0.00  0.00     0.103 A 
ATOM      8  O   UNL d   1     -44.927  12.768  22.163  0.00  0.00    -0.264 OA
ENDROOT
BRANCH   1   9
ATOM      9  S   UNL d   1     -48.238  14.317  23.035  0.00  0.00     0.271 S 
ATOM     10  O   UNL d   1     -48.917  14.774  23.126  0.00  0.00    -0.200 OA
ATOM     11  O   UNL d   1     -47.834  14.827  23.526  0.00  0.00    -0.200 OA
BRANCH   9  12
ATOM     12  C   UNL d   1     -48.649  13.805  22.539  0.00  0.00     0.104 A 
ATOM     13  C   UNL d   1     -49.201  13.275  22.849  0.00  0.00     0.017 A 
ATOM     14  C   UNL d   1     -49.612  12.763  22.353  0.00  0.00     0.072 A 
ATOM     15  C   UNL d   1     -49.476  12.776  21.542  0.00  0.00     0.004 A 
ATOM     16  C   UNL d   1     -48.924  13.304  21.222  0.00  0.00     0.001 A 
ATOM     17  C   UNL d   1     -48.509  13.822  21.723  0.00  0.00     0.013 A 
BRANCH  14  18
ATOM     18  C   UNL d   1     -50.161  12.237  22.667  0.00  0.00     0.419 C 
ATOM     19  F   UNL d   1     -50.034  11.445  22.964  0.00  0.00    -0.166 F 
ATOM     20  F   UNL d   1     -51.006  12.337  22.782  0.00  0.00    -0.166 F 
ATOM     21  F   UNL d   1     -50.659  11.754  22.954  0.00  0.00    -0.166 F 
ENDBRANCH  14  18
ENDBRANCH   9  12
ENDBRANCH   1   9
BRANCH   2  22
ATOM     22  C   UNL d   1     -45.453  11.797  23.065  0.00  0.00     0.156 A 
ATOM     23  O   UNL d   1     -44.744  11.445  23.306  0.00  0.00    -0.300 OA
ATOM     24  C   UNL d   1     -44.920  10.744  23.686  0.00  0.00     0.123 A 
ATOM     25  C   UNL d   1     -45.744  10.650  23.685  0.00  0.00     0.029 A 
ATOM     26  C   UNL d   1     -46.076  11.304  23.299  0.00  0.00     0.032 A 
ENDBRANCH   2  22
TORSDOF 4
ENDMDL
MODEL 7
REMARK VINA RESULT:      -6.3      9.412     10.609
REMARK  4 active torsions:
REMARK  status: ('A' for Active; 'I' for Inactive)
REMARK    1  A    between atoms: N_2  and  S_1 
REMARK    2  A    between atoms: C_6  and  S_1 
REMARK       I    between atoms: C_3  and  N_5 
REMARK    3  A    between atoms: C_7  and  C_3 
REMARK    4  A    between atoms: C_4  and  C_8 
ROOT
ATOM      1  N   UNL d   1     -39.163  14.019  18.177  0.00  0.00    -0.226 N 
ATOM      2  C   UNL d   1     -38.719  15.041  20.375  0.00  0.00     0.288 C 
ATOM      3  N   UNL d   1     -38.863  14.700  19.640  0.00  0.00    -0.267 N 
ATOM      4  C   UNL d   1     -39.782  14.151  18.706  0.00  0.00     0.111 A 
ATOM      5  C   UNL d   1     -38.386  14.231  18.386  0.00  0.00     0.111 A 
ATOM      6  C   UNL d   1     -38.242  14.572  19.121  0.00  0.00     0.103 A 
ATOM      7  C   UNL d   1     -39.627  14.490  19.431  0.00  0.00     0.103 A 
ATOM      8  O   UNL d   1     -37.951  15.253  20.587  0.00  0.00    -0.264 OA
ENDROOT
BRANCH   1   9
ATOM      9  S   UNL d   1     -39.305  13.683  17.453  0.00  0.00     0.271 S 
ATOM     10  O   UNL d   1     -39.450  13.342  16.718  0.00  0.00    -0.200 OA
ATOM     11  O   UNL d   1     -39.096  12.952  17.747  0.00  0.00    -0.200 OA
BRANCH   9  12
ATOM     12  C   UNL d   1     -39.518  14.419  17.153  0.00  0.00     0.104 A 
ATOM     13  C   UNL d   1     -40.312  14.634  17.094  0.00  0.00     0.017 A 
ATOM     14  C   UNL d   1     -40.524  15.371  16.794  0.00  0.00     0.072 A 
ATOM     15  C   UNL d   1     -39.944  15.899  16.549  0.00  0.00     0.004 A 
ATOM     16  C   UNL d   1     -39.144  15.692  16.605  0.00  0.00     0.001 A 
ATOM     17  C   UNL d   1     -38.929  14.948  16.908  0.00  0.00     0.013 A 
BRANCH  14  18
ATOM     18  C   UNL d   1     -41.317  15.580  16.737  0.00  0.00     0.419 C 
ATOM     19  F   UNL d   1     -41.843  15.512  16.066  0.00  0.00    -0.166 F 
ATOM     20  F   UNL d   1     -41.833  15.922  17.333  0.00  0.00    -0.166 F 
ATOM     21  F   UNL d   1     -42.042  15.770  16.683  0.00  0.00    -0.166 F 
ENDBRANCH  14  18
ENDBRANCH   9  12
ENDBRANCH   1   9
BRANCH   2  22
ATOM     22  C   UNL d   1     -39.339  15.172  20.901  0.00  0.00     0.156 A 
ATOM     23  O   UNL d   1     -39.744  14.596  21.336  0.00  0.00    -0.300 OA
ATOM     24  C   UNL d   1     -40.315  14.967  21.787  0.00  0.00     0.123 A 
ATOM     25  C   UNL d   1     -40.272  15.781  21.638  0.00  0.00     0.029 A 
ATOM     26  C   UNL d   1     -39.666  15.909  21.088  0.00  0.00     0.032 A 
ENDBRANCH   2  22
TORSDOF 4
ENDMDL
MODEL 8
REMARK VINA RESULT:      -6.2      2.990      4.717
REMARK  4 active torsions:
REMARK  status: ('A' for Active; 'I' for Inactive)
REMARK    1  A    between atoms: N_2  and  S_1 
REMARK    2  A    between atoms: C_6  and  S_1 
REMARK       I    between atoms: C_3  and  N_5 
REMARK    3  A    between atoms: C_7  and  C_3 
REMARK    4  A    between atoms: C_4  and  C_8 
ROOT
ATOM      1  N   UNL d   1     -47.105  13.282  22.780  0.00  0.00    -0.226 N 
ATOM      2  C   UNL d   1     -49.142  13.275  21.394  0.00  0.00     0.288 C 
ATOM      3  N   UNL d   1     -48.459  13.276  21.854  0.00  0.00    -0.267 N 
ATOM      4  C   UNL d   1     -47.820  13.550  23.092  0.00  0.00     0.111 A 
ATOM      5  C   UNL d   1     -47.071  13.008  21.995  0.00  0.00     0.111 A 
ATOM      6  C   UNL d   1     -47.754  13.007  21.535  0.00  0.00     0.103 A 
ATOM      7  C   UNL d   1     -48.490  13.545  22.627  0.00  0.00     0.103 A 
ATOM      8  O   UNL d   1     -49.114  13.005  20.615  0.00  0.00    -0.264 OA
ENDROOT
BRANCH   1   9
ATOM      9  S   UNL d   1     -46.432  13.282  23.233  0.00  0.00     0.271 S 
ATOM     10  O   UNL d   1     -45.750  13.282  23.693  0.00  0.00    -0.200 OA
ATOM     11  O   UNL d   1     -46.331  14.078  23.089  0.00  0.00    -0.200 OA
BRANCH   9  12
ATOM     12  C   UNL d   1     -46.532  12.479  23.382  0.00  0.00     0.104 A 
ATOM     13  C   UNL d   1     -45.885  11.967  23.367  0.00  0.00     0.017 A 
ATOM     14  C   UNL d   1     -45.984  11.163  23.515  0.00  0.00     0.072 A 
ATOM     15  C   UNL d   1     -46.731  10.864  23.680  0.00  0.00     0.004 A 
ATOM     16  C   UNL d   1     -47.387  11.370  23.697  0.00  0.00     0.001 A 
ATOM     17  C   UNL d   1     -47.287  12.181  23.547  0.00  0.00     0.013 A 
BRANCH  14  18
ATOM     18  C   UNL d   1     -45.336  10.658  23.499  0.00  0.00     0.419 C 
ATOM     19  F   UNL d   1     -44.503  10.854  23.495  0.00  0.00    -0.166 F 
ATOM     20  F   UNL d   1     -45.316   9.800  23.482  0.00  0.00    -0.166 F 
ATOM     21  F   UNL d   1     -44.741  10.199  23.484  0.00  0.00    -0.166 F 
ENDBRANCH  14  18
ENDBRANCH   9  12
ENDBRANCH   1   9
BRANCH   2  22
ATOM     22  C   UNL d   1     -49.855  13.544  21.708  0.00  0.00     0.156 A 
ATOM     23  O   UNL d   1     -50.101  14.332  21.762  0.00  0.00    -0.300 OA
ATOM     24  C   UNL d   1     -50.841  14.348  22.108  0.00  0.00     0.123 A 
ATOM     25  C   UNL d   1     -51.064  13.567  22.273  0.00  0.00     0.029 A 
ATOM     26  C   UNL d   1     -50.453  13.067  22.025  0.00  0.00     0.032 A 
ENDBRANCH   2  22
TORSDOF 4
ENDMDL
MODEL 9
REMARK VINA RESULT:      -6.1     10.011     10.827
REMARK  4 active torsions:
REMARK  status: ('A' for Active; 'I' for Inactive)
REMARK    1  A    between atoms: N_2  and  S_1 
REMARK    2  A    between atoms: C_6  and  S_1 
REMARK       I    between atoms: C_3  and  N_5 
REMARK    3  A    between atoms: C_7  and  C_3 
REMARK    4  A    between atoms: C_4  and  C_8 
ROOT
ATOM      1  N   UNL d   1     -39.944  15.270  19.563  0.00  0.00    -0.226 N 
ATOM      2  C   UNL d   1     -38.580  15.110  21.609  0.00  0.00     0.288 C 
ATOM      3  N   UNL d   1     -39.035  15.168  20.925  0.00  0.00    -0.267 N 
ATOM      4  C   UNL d   1     -39.936  14.573  20.003  0.00  0.00     0.111 A 
ATOM      5  C   UNL d   1     -39.491  15.922  19.811  0.00  0.00     0.111 A 
ATOM      6  C   UNL d   1     -39.036  15.865  20.495  0.00  0.00     0.103 A 
ATOM      7  C   UNL d   1     -39.482  14.527  20.679  0.00  0.00     0.103 A 
ATOM      8  O   UNL d   1     -38.129  15.754  21.859  0.00  0.00    -0.264 OA
ENDROOT
BRANCH   1   9
ATOM      9  S   UNL d   1     -40.392  15.326  18.889  0.00  0.00     0.271 S 
ATOM     10  O   UNL d   1     -40.846  15.383  18.205  0.00  0.00    -0.200 OA
ATOM     11  O   UNL d   1     -41.031  15.576  19.330  0.00  0.00    -0.200 OA
BRANCH   9  12
ATOM     12  C   UNL d   1     -39.749  15.074  18.441  0.00  0.00     0.104 A 
ATOM     13  C   UNL d   1     -39.667  14.279  18.237  0.00  0.00     0.017 A 
ATOM     14  C   UNL d   1     -39.024  14.027  17.789  0.00  0.00     0.072 A 
ATOM     15  C   UNL d   1     -38.457  14.568  17.541  0.00  0.00     0.004 A 
ATOM     16  C   UNL d   1     -38.532  15.369  17.741  0.00  0.00     0.001 A 
ATOM     17  C   UNL d   1     -39.181  15.623  18.194  0.00  0.00     0.013 A 
BRANCH  14  18
ATOM     18  C   UNL d   1     -38.947  13.234  17.588  0.00  0.00     0.419 C 
ATOM     19  F   UNL d   1     -39.112  12.852  16.841  0.00  0.00    -0.166 F 
ATOM     20  F   UNL d   1     -38.681  12.575  18.070  0.00  0.00    -0.166 F 
ATOM     21  F   UNL d   1     -38.877  12.509  17.402  0.00  0.00    -0.166 F 
ENDBRANCH  14  18
ENDBRANCH   9  12
ENDBRANCH   1   9
BRANCH   2  22
ATOM     22  C   UNL d   1     -38.574  14.412  22.047  0.00  0.00     0.156 A 
ATOM     23  O   UNL d   1     -39.110  14.200  22.640  0.00  0.00    -0.300 OA
ATOM     24  C   UNL d   1     -38.900  13.465  22.927  0.00  0.00     0.123 A 
ATOM     25  C   UNL d   1     -38.227  13.211  22.514  0.00  0.00     0.029 A 
ATOM     26  C   UNL d   1     -38.024  13.798  21.968  0.00  0.00     0.032 A 
ENDBRANCH   2  22
TORSDOF 4
ENDMDL
