MODEL 1
REMARK VINA RESULT:      42.6      0.000      0.000
REMARK  3 active torsions:
REMARK  status: ('A' for Active; 'I' for Inactive)
REMARK    1  A    between atoms: N_9  and  C_5 
REMARK    2  A    between atoms: C_12  and  N_9 
REMARK    3  A    between atoms: C_13  and  C_12 
ROOT
ATOM      1  C   UNL d   1      58.521  49.708  50.764  0.00  0.00     0.153 A 
ATOM      2  O   UNL d   1      58.479  49.708  49.943  0.00  0.00    -0.302 OA
ATOM      3  C   UNL d   1      57.750  49.708  51.060  0.00  0.00     0.111 A 
ATOM      4  C   UNL d   1      57.232  49.708  50.413  0.00  0.00     0.043 A 
ATOM      5  C   UNL d   1      59.166  49.708  51.286  0.00  0.00     0.189 A 
ATOM      6  C   UNL d   1      57.682  49.708  49.729  0.00  0.00     0.102 A 
ATOM      7  N   UNL d   1      59.036  49.708  52.100  0.00  0.00    -0.203 NA
ATOM      8  N   UNL d   1      57.630  49.708  51.875  0.00  0.00    -0.222 NA
ATOM      9  C   UNL d   1      58.265  49.708  52.396  0.00  0.00     0.201 A 
ATOM     10  C   UNL d   1      56.414  49.708  50.378  0.00  0.00     0.004 A 
ATOM     11  C   UNL d   1      57.307  49.708  48.995  0.00  0.00     0.025 A 
ATOM     12  C   UNL d   1      56.039  49.708  49.644  0.00  0.00     0.000 A 
ATOM     13  C   UNL d   1      56.485  49.708  48.952  0.00  0.00     0.002 A 
ENDROOT
BRANCH   5  14
ATOM     14  N   UNL d   1      59.940  49.708  50.987  0.00  0.00    -0.222 NA
BRANCH  14  15
ATOM     15  C   UNL d   1      60.532  49.304  51.395  0.00  0.00     0.120 C 
BRANCH  15  16
ATOM     16  C   UNL d   1      60.875  48.636  51.054  0.00  0.00     0.101 A 
ATOM     17  N   UNL d   1      60.816  47.904  51.431  0.00  0.00    -0.242 NA
ATOM     18  C   UNL d   1      61.157  47.227  51.097  0.00  0.00     0.099 A 
ATOM     19  C   UNL d   1      61.561  47.288  50.375  0.00  0.00     0.021 A 
ATOM     20  C   UNL d   1      61.620  48.020  49.998  0.00  0.00     0.003 A 
ATOM     21  C   UNL d   1      61.276  48.693  50.339  0.00  0.00     0.021 A 
ENDBRANCH  15  16
ENDBRANCH  14  15
ENDBRANCH   5  14
TORSDOF 3
ENDMDL
