MODEL 1
REMARK VINA RESULT:      -3.3      0.000      0.000
REMARK  10 active torsions:
REMARK  status: ('A' for Active; 'I' for Inactive)
REMARK    1  A    between atoms: C_5  and  C_1 
REMARK    2  A    between atoms: N_6  and  C_2 
REMARK    3  A    between atoms: C_7  and  C_5 
REMARK    4  A    between atoms: C_8  and  C_5 
REMARK    5  A    between atoms: O_13  and  C_7 
REMARK    6  A    between atoms: C_20  and  N_12 
REMARK    7  A    between atoms: C_19  and  O_13 
REMARK    8  A    between atoms: C_23  and  C_19 
REMARK    9  A    between atoms: C_24  and  C_23 
REMARK   10  A    between atoms: C_25  and  C_23 
ROOT
ATOM      1  C   UNL d   1     -40.288  14.327  20.818  0.00  0.00     0.122 A 
ATOM      2  C   UNL d   1     -39.644  14.413  20.315  0.00  0.00     0.166 A 
ATOM      3  N   UNL d   1     -38.899  14.194  20.581  0.00  0.00    -0.225 NA
ATOM      4  N   UNL d   1     -40.189  14.024  21.579  0.00  0.00    -0.241 NA
ATOM      5  C   UNL d   1     -38.792  13.894  21.331  0.00  0.00     0.101 A 
ATOM      6  C   UNL d   1     -39.443  13.809  21.834  0.00  0.00     0.099 A 
ATOM      7  C   UNL d   1     -38.041  13.676  21.592  0.00  0.00     0.021 A 
ATOM      8  C   UNL d   1     -39.340  13.509  22.588  0.00  0.00     0.021 A 
ATOM      9  C   UNL d   1     -37.942  13.374  22.353  0.00  0.00     0.002 A 
ATOM     10  C   UNL d   1     -38.588  13.291  22.849  0.00  0.00     0.002 A 
ENDROOT
BRANCH   1  11
ATOM     11  C   UNL d   1     -41.050  14.544  20.565  0.00  0.00     0.105 C 
BRANCH  11  12
ATOM     12  C   UNL d   1     -41.629  13.970  20.422  0.00  0.00     0.303 C 
ATOM     13  O   UNL d   1     -41.738  13.705  19.660  0.00  0.00    -0.259 OA
BRANCH  12  14
ATOM     14  O   UNL d   1     -42.073  13.686  21.043  0.00  0.00    -0.271 OA
BRANCH  14  15
ATOM     15  C   UNL d   1     -42.792  13.651  21.431  0.00  0.00     0.126 C 
BRANCH  15  16
ATOM     16  C   UNL d   1     -43.193  12.943  21.466  0.00  0.00     0.025 C 
BRANCH  16  17
ATOM     17  C   UNL d   1     -43.971  12.908  21.247  0.00  0.00     0.002 C 
ATOM     18  C   UNL d   1     -44.549  13.268  21.716  0.00  0.00     0.000 C 
ENDBRANCH  16  17
BRANCH  16  19
ATOM     19  C   UNL d   1     -42.801  12.268  21.724  0.00  0.00     0.002 C 
ATOM     20  C   UNL d   1     -43.085  11.833  22.359  0.00  0.00     0.000 C 
ENDBRANCH  16  19
ENDBRANCH  15  16
ENDBRANCH  14  15
ENDBRANCH  12  14
ENDBRANCH  11  12
BRANCH  11  21
ATOM     21  C   UNL d   1     -41.230  15.348  20.454  0.00  0.00     0.129 C 
ATOM     22  N   UNL d   1     -41.782  15.837  21.056  0.00  0.00    -0.146 N 
ENDBRANCH  11  21
ENDBRANCH   1  11
BRANCH   2  23
ATOM     23  N   UNL d   1     -39.750  14.714  19.558  0.00  0.00    -0.285 N 
ATOM     24  C   UNL d   1     -39.723  15.522  19.431  0.00  0.00     0.101 A 
ATOM     25  C   UNL d   1     -39.830  15.818  18.669  0.00  0.00     0.100 A 
ATOM     26  N   UNL d   1     -39.963  15.300  18.038  0.00  0.00    -0.300 N 
ATOM     27  C   UNL d   1     -39.989  14.487  18.170  0.00  0.00     0.100 A 
ATOM     28  C   UNL d   1     -39.883  14.196  18.928  0.00  0.00     0.101 A 
BRANCH  26  29
ATOM     29  C   UNL d   1     -40.070  15.603  17.271  0.00  0.00     0.080 C 
ATOM     30  C   UNL d   1     -39.429  15.614  16.748  0.00  0.00     0.021 C 
ENDBRANCH  26  29
ENDBRANCH   2  23
TORSDOF 10
ENDMDL
MODEL 2
REMARK VINA RESULT:      -1.7      5.026      8.487
REMARK  10 active torsions:
REMARK  status: ('A' for Active; 'I' for Inactive)
REMARK    1  A    between atoms: C_5  and  C_1 
REMARK    2  A    between atoms: N_6  and  C_2 
REMARK    3  A    between atoms: C_7  and  C_5 
REMARK    4  A    between atoms: C_8  and  C_5 
REMARK    5  A    between atoms: O_13  and  C_7 
REMARK    6  A    between atoms: C_20  and  N_12 
REMARK    7  A    between atoms: C_19  and  O_13 
REMARK    8  A    between atoms: C_23  and  C_19 
REMARK    9  A    between atoms: C_24  and  C_23 
REMARK   10  A    between atoms: C_25  and  C_23 
ROOT
ATOM      1  C   UNL d   1     -48.110  13.893  22.625  0.00  0.00     0.122 A 
ATOM      2  C   UNL d   1     -48.537  13.307  23.014  0.00  0.00     0.166 A 
ATOM      3  N   UNL d   1     -49.256  13.502  23.359  0.00  0.00    -0.225 NA
ATOM      4  N   UNL d   1     -48.400  14.664  22.581  0.00  0.00    -0.241 NA
ATOM      5  C   UNL d   1     -49.549  14.261  23.321  0.00  0.00     0.101 A 
ATOM      6  C   UNL d   1     -49.117  14.847  22.928  0.00  0.00     0.099 A 
ATOM      7  C   UNL d   1     -50.273  14.450  23.669  0.00  0.00     0.021 A 
ATOM      8  C   UNL d   1     -49.408  15.610  22.887  0.00  0.00     0.021 A 
ATOM      9  C   UNL d   1     -50.562  15.221  23.625  0.00  0.00     0.002 A 
ATOM     10  C   UNL d   1     -50.131  15.799  23.236  0.00  0.00     0.002 A 
ENDROOT
BRANCH   1  11
ATOM     11  C   UNL d   1     -47.380  13.713  22.271  0.00  0.00     0.105 C 
BRANCH  11  12
ATOM     12  C   UNL d   1     -46.670  13.954  22.619  0.00  0.00     0.303 C 
ATOM     13  O   UNL d   1     -46.698  14.430  23.279  0.00  0.00    -0.259 OA
BRANCH  12  14
ATOM     14  O   UNL d   1     -45.963  13.711  22.295  0.00  0.00    -0.271 OA
BRANCH  14  15
ATOM     15  C   UNL d   1     -45.159  13.832  22.197  0.00  0.00     0.126 C 
BRANCH  15  16
ATOM     16  C   UNL d   1     -44.681  13.201  22.008  0.00  0.00     0.025 C 
BRANCH  16  17
ATOM     17  C   UNL d   1     -44.371  13.137  21.263  0.00  0.00     0.002 C 
ATOM     18  C   UNL d   1     -43.647  12.755  21.148  0.00  0.00     0.000 C 
ENDBRANCH  16  17
BRANCH  16  19
ATOM     19  C   UNL d   1     -44.516  12.633  22.578  0.00  0.00     0.002 C 
ATOM     20  C   UNL d   1     -44.168  11.918  22.373  0.00  0.00     0.000 C 
ENDBRANCH  16  19
ENDBRANCH  15  16
ENDBRANCH  14  15
ENDBRANCH  12  14
ENDBRANCH  11  12
BRANCH  11  21
ATOM     21  C   UNL d   1     -47.367  13.286  21.557  0.00  0.00     0.129 C 
ATOM     22  N   UNL d   1     -47.620  13.672  20.724  0.00  0.00    -0.146 N 
ENDBRANCH  11  21
ENDBRANCH   1  11
BRANCH   2  23
ATOM     23  N   UNL d   1     -48.244  12.542  23.055  0.00  0.00    -0.285 N 
ATOM     24  C   UNL d   1     -47.742  12.326  23.663  0.00  0.00     0.101 A 
ATOM     25  C   UNL d   1     -47.450  11.555  23.698  0.00  0.00     0.100 A 
ATOM     26  N   UNL d   1     -47.666  11.005  23.120  0.00  0.00    -0.300 N 
ATOM     27  C   UNL d   1     -48.173  11.226  22.507  0.00  0.00     0.100 A 
ATOM     28  C   UNL d   1     -48.459  11.991  22.476  0.00  0.00     0.101 A 
BRANCH  26  29
ATOM     29  C   UNL d   1     -47.371  10.228  23.158  0.00  0.00     0.080 C 
ATOM     30  C   UNL d   1     -46.617  10.098  23.472  0.00  0.00     0.021 C 
ENDBRANCH  26  29
ENDBRANCH   2  23
TORSDOF 10
ENDMDL
MODEL 3
REMARK VINA RESULT:      -1.6      1.332      4.363
REMARK  10 active torsions:
REMARK  status: ('A' for Active; 'I' for Inactive)
REMARK    1  A    between atoms: C_5  and  C_1 
REMARK    2  A    between atoms: N_6  and  C_2 
REMARK    3  A    between atoms: C_7  and  C_5 
REMARK    4  A    between atoms: C_8  and  C_5 
REMARK    5  A    between atoms: O_13  and  C_7 
REMARK    6  A    between atoms: C_20  and  N_12 
REMARK    7  A    between atoms: C_19  and  O_13 
REMARK    8  A    between atoms: C_23  and  C_19 
REMARK    9  A    between atoms: C_24  and  C_23 
REMARK   10  A    between atoms: C_25  and  C_23 
ROOT
ATOM      1  C   UNL d   1     -40.445  14.190  20.503  0.00  0.00     0.122 A 
ATOM      2  C   UNL d   1     -40.479  14.215  21.324  0.00  0.00     0.166 A 
ATOM      3  N   UNL d   1     -41.149  13.928  21.703  0.00  0.00    -0.225 NA
ATOM      4  N   UNL d   1     -41.073  13.882  20.065  0.00  0.00    -0.241 NA
ATOM      5  C   UNL d   1     -41.774  13.622  21.279  0.00  0.00     0.101 A 
ATOM      6  C   UNL d   1     -41.736  13.599  20.453  0.00  0.00     0.099 A 
ATOM      7  C   UNL d   1     -42.443  13.336  21.666  0.00  0.00     0.021 A 
ATOM      8  C   UNL d   1     -42.360  13.293  20.024  0.00  0.00     0.021 A 
ATOM      9  C   UNL d   1     -43.071  13.028  21.229  0.00  0.00     0.002 A 
ATOM     10  C   UNL d   1     -43.030  13.006  20.411  0.00  0.00     0.002 A 
ENDROOT
BRANCH   1  11
ATOM     11  C   UNL d   1     -39.775  14.476  20.102  0.00  0.00     0.105 C 
BRANCH  11  12
ATOM     12  C   UNL d   1     -39.822  15.151  19.627  0.00  0.00     0.303 C 
ATOM     13  O   UNL d   1     -40.006  15.864  19.975  0.00  0.00    -0.259 OA
BRANCH  12  14
ATOM     14  O   UNL d   1     -39.684  15.088  18.827  0.00  0.00    -0.271 OA
BRANCH  14  15
ATOM     15  C   UNL d   1     -39.503  15.452  18.117  0.00  0.00     0.126 C 
BRANCH  15  16
ATOM     16  C   UNL d   1     -39.907  15.237  17.444  0.00  0.00     0.025 C 
BRANCH  16  17
ATOM     17  C   UNL d   1     -40.717  15.241  17.440  0.00  0.00     0.002 C 
ATOM     18  C   UNL d   1     -41.126  15.556  16.794  0.00  0.00     0.000 C 
ENDBRANCH  16  17
BRANCH  16  19
ATOM     19  C   UNL d   1     -39.488  15.018  16.772  0.00  0.00     0.002 C 
ATOM     20  C   UNL d   1     -38.836  15.449  16.523  0.00  0.00     0.000 C 
ENDBRANCH  16  19
ENDBRANCH  15  16
ENDBRANCH  14  15
ENDBRANCH  12  14
ENDBRANCH  11  12
BRANCH  11  21
ATOM     21  C   UNL d   1     -39.050  14.077  20.183  0.00  0.00     0.129 C 
ATOM     22  N   UNL d   1     -38.590  13.696  19.442  0.00  0.00    -0.146 N 
ENDBRANCH  11  21
ENDBRANCH   1  11
BRANCH   2  23
ATOM     23  N   UNL d   1     -39.851  14.522  21.753  0.00  0.00    -0.285 N 
ATOM     24  C   UNL d   1     -39.783  15.331  21.859  0.00  0.00     0.101 A 
ATOM     25  C   UNL d   1     -39.149  15.633  22.291  0.00  0.00     0.100 A 
ATOM     26  N   UNL d   1     -38.587  15.121  22.615  0.00  0.00    -0.300 N 
ATOM     27  C   UNL d   1     -38.659  14.307  22.507  0.00  0.00     0.100 A 
ATOM     28  C   UNL d   1     -39.289  14.010  22.077  0.00  0.00     0.101 A 
BRANCH  26  29
ATOM     29  C   UNL d   1     -37.949  15.430  23.051  0.00  0.00     0.080 C 
ATOM     30  C   UNL d   1     -38.103  15.922  23.698  0.00  0.00     0.021 C 
ENDBRANCH  26  29
ENDBRANCH   2  23
TORSDOF 10
ENDMDL
MODEL 4
REMARK VINA RESULT:      -0.7      1.465      4.129
REMARK  10 active torsions:
REMARK  status: ('A' for Active; 'I' for Inactive)
REMARK    1  A    between atoms: C_5  and  C_1 
REMARK    2  A    between atoms: N_6  and  C_2 
REMARK    3  A    between atoms: C_7  and  C_5 
REMARK    4  A    between atoms: C_8  and  C_5 
REMARK    5  A    between atoms: O_13  and  C_7 
REMARK    6  A    between atoms: C_20  and  N_12 
REMARK    7  A    between atoms: C_19  and  O_13 
REMARK    8  A    between atoms: C_23  and  C_19 
REMARK    9  A    between atoms: C_24  and  C_23 
REMARK   10  A    between atoms: C_25  and  C_23 
ROOT
ATOM      1  C   UNL d   1     -40.077  14.657  20.382  0.00  0.00     0.122 A 
ATOM      2  C   UNL d   1     -40.449  14.488  21.095  0.00  0.00     0.166 A 
ATOM      3  N   UNL d   1     -40.091  14.724  21.796  0.00  0.00    -0.225 NA
ATOM      4  N   UNL d   1     -39.357  15.058  20.368  0.00  0.00    -0.241 NA
ATOM      5  C   UNL d   1     -39.380  15.121  21.791  0.00  0.00     0.101 A 
ATOM      6  C   UNL d   1     -39.009  15.289  21.071  0.00  0.00     0.099 A 
ATOM      7  C   UNL d   1     -39.026  15.356  22.499  0.00  0.00     0.021 A 
ATOM      8  C   UNL d   1     -38.295  15.687  21.063  0.00  0.00     0.021 A 
ATOM      9  C   UNL d   1     -38.305  15.757  22.485  0.00  0.00     0.002 A 
ATOM     10  C   UNL d   1     -37.941  15.922  21.770  0.00  0.00     0.002 A 
ENDROOT
BRANCH   1  11
ATOM     11  C   UNL d   1     -40.425  14.425  19.663  0.00  0.00     0.105 C 
BRANCH  11  12
ATOM     12  C   UNL d   1     -40.059  13.866  19.176  0.00  0.00     0.303 C 
ATOM     13  O   UNL d   1     -40.279  13.085  19.241  0.00  0.00    -0.259 OA
BRANCH  12  14
ATOM     14  O   UNL d   1     -39.490  14.108  18.645  0.00  0.00    -0.271 OA
BRANCH  14  15
ATOM     15  C   UNL d   1     -38.798  13.948  18.239  0.00  0.00     0.126 C 
BRANCH  15  16
ATOM     16  C   UNL d   1     -38.758  14.105  17.442  0.00  0.00     0.025 C 
BRANCH  16  17
ATOM     17  C   UNL d   1     -38.880  14.858  17.170  0.00  0.00     0.002 C 
ATOM     18  C   UNL d   1     -38.725  15.042  16.379  0.00  0.00     0.000 C 
ENDBRANCH  16  17
BRANCH  16  19
ATOM     19  C   UNL d   1     -38.594  13.494  16.917  0.00  0.00     0.002 C 
ATOM     20  C   UNL d   1     -37.942  13.529  16.420  0.00  0.00     0.000 C 
ENDBRANCH  16  19
ENDBRANCH  15  16
ENDBRANCH  14  15
ENDBRANCH  12  14
ENDBRANCH  11  12
BRANCH  11  21
ATOM     21  C   UNL d   1     -41.151  14.761  19.433  0.00  0.00     0.129 C 
ATOM     22  N   UNL d   1     -41.265  15.216  18.606  0.00  0.00    -0.146 N 
ENDBRANCH  11  21
ENDBRANCH   1  11
BRANCH   2  23
ATOM     23  N   UNL d   1     -41.166  14.089  21.102  0.00  0.00    -0.285 N 
ATOM     24  C   UNL d   1     -41.185  13.282  21.237  0.00  0.00     0.101 A 
ATOM     25  C   UNL d   1     -41.909  12.887  21.243  0.00  0.00     0.100 A 
ATOM     26  N   UNL d   1     -42.610  13.305  21.112  0.00  0.00    -0.300 N 
ATOM     27  C   UNL d   1     -42.587  14.118  20.977  0.00  0.00     0.100 A 
ATOM     28  C   UNL d   1     -41.867  14.507  20.972  0.00  0.00     0.101 A 
BRANCH  26  29
ATOM     29  C   UNL d   1     -43.338  12.903  21.119  0.00  0.00     0.080 C 
ATOM     30  C   UNL d   1     -43.963  13.206  21.568  0.00  0.00     0.021 C 
ENDBRANCH  26  29
ENDBRANCH   2  23
TORSDOF 10
ENDMDL
