MODEL 1
REMARK VINA RESULT:      34.1      0.000      0.000
REMARK  2 active torsions:
REMARK  status: ('A' for Active; 'I' for Inactive)
REMARK    1  A    between atoms: N_2  and  S_1 
REMARK    2  A    between atoms: C_3  and  S_1 
ROOT
ATOM      1  S   UNL d   1     -57.398 -99.324 -44.432  0.00  0.00     0.287 S 
ATOM      2  O   UNL d   1     -56.817 -98.756 -44.568  0.00  0.00    -0.198 OA
ATOM      3  O   UNL d   1     -57.173-100.110 -44.254  0.00  0.00    -0.198 OA
ENDROOT
BRANCH   1   4
ATOM      4  N   UNL d   1     -58.207 -99.120 -44.471  0.00  0.00    -0.152 N 
ATOM      5  N   UNL d   1     -58.590 -99.069 -45.212  0.00  0.00    -0.155 NA
ATOM      6  C   UNL d   1     -59.400 -98.865 -45.251  0.00  0.00     0.104 A 
ATOM      7  C   UNL d   1     -59.957 -98.763 -45.879  0.00  0.00     0.022 C 
ATOM      8  C   UNL d   1     -59.443 -98.763 -43.820  0.00  0.00     0.041 A 
ATOM      9  C   UNL d   1     -58.633 -98.968 -43.781  0.00  0.00     0.096 A 
ATOM     10  C   UNL d   1     -58.250 -99.018 -43.040  0.00  0.00     0.022 C 
ENDBRANCH   1   4
BRANCH   1  11
ATOM     11  C   UNL d   1     -56.222 -99.621 -44.375  0.00  0.00     0.117 A 
ATOM     12  C   UNL d   1     -55.935-100.087 -43.828  0.00  0.00     0.025 A 
ATOM     13  C   UNL d   1     -55.172-100.257 -43.822  0.00  0.00     0.059 A 
ATOM     14 CL   UNL d   1     -54.858-100.763 -43.229  0.00  0.00    -0.082 Cl
ATOM     15  C   UNL d   1     -54.711 -99.953 -44.370  0.00  0.00     0.012 A 
ATOM     16  C   UNL d   1     -54.999 -99.485 -44.919  0.00  0.00     0.013 A 
ATOM     17  C   UNL d   1     -55.761 -99.318 -44.921  0.00  0.00     0.070 A 
ATOM     18 CL   UNL d   1     -56.072 -98.816 -45.510  0.00  0.00    -0.082 Cl
ENDBRANCH   1  11
TORSDOF 2
ENDMDL
MODEL 2
REMARK VINA RESULT:      34.2      1.572      3.624
REMARK  2 active torsions:
REMARK  status: ('A' for Active; 'I' for Inactive)
REMARK    1  A    between atoms: N_2  and  S_1 
REMARK    2  A    between atoms: C_3  and  S_1 
ROOT
ATOM      1  S   UNL d   1     -56.909 -99.724 -44.210  0.00  0.00     0.287 S 
ATOM      2  O   UNL d   1     -57.507-100.197 -43.895  0.00  0.00    -0.198 OA
ATOM      3  O   UNL d   1     -57.088 -98.947 -44.461  0.00  0.00    -0.198 OA
ENDROOT
BRANCH   1   4
ATOM      4  N   UNL d   1     -56.130-100.016 -44.279  0.00  0.00    -0.152 N 
ATOM      5  N   UNL d   1     -55.953-100.797 -44.039  0.00  0.00    -0.155 NA
ATOM      6  C   UNL d   1     -55.173-101.089 -44.108  0.00  0.00     0.104 A 
ATOM      7  C   UNL d   1     -54.796-101.825 -43.928  0.00  0.00     0.022 C 
ATOM      8  C   UNL d   1     -54.750 -99.831 -44.652  0.00  0.00     0.041 A 
ATOM      9  C   UNL d   1     -55.530 -99.538 -44.583  0.00  0.00     0.096 A 
ATOM     10  C   UNL d   1     -55.707 -98.757 -44.824  0.00  0.00     0.022 C 
ENDBRANCH   1   4
BRANCH   1  11
ATOM     11  C   UNL d   1     -58.042 -99.299 -44.110  0.00  0.00     0.117 A 
ATOM     12  C   UNL d   1     -58.385 -99.181 -43.425  0.00  0.00     0.025 A 
ATOM     13  C   UNL d   1     -59.117 -98.906 -43.399  0.00  0.00     0.059 A 
ATOM     14 CL   UNL d   1     -59.490 -98.778 -42.657  0.00  0.00    -0.082 Cl
ATOM     15  C   UNL d   1     -59.490 -98.756 -44.064  0.00  0.00     0.012 A 
ATOM     16  C   UNL d   1     -59.147 -98.874 -44.750  0.00  0.00     0.013 A 
ATOM     17  C   UNL d   1     -58.417 -99.148 -44.773  0.00  0.00     0.070 A 
ATOM     18 CL   UNL d   1     -58.046 -99.276 -45.508  0.00  0.00    -0.082 Cl
ENDBRANCH   1  11
TORSDOF 2
ENDMDL
