MODEL 1
REMARK VINA RESULT:      -7.2      0.000      0.000
REMARK  8 active torsions:
REMARK  status: ('A' for Active; 'I' for Inactive)
REMARK    1  A    between atoms: C_4  and  C_1 
REMARK    2  A    between atoms: C_2  and  C_15 
REMARK    3  A    between atoms: C_3  and  C_2 
REMARK    4  A    between atoms: C_16  and  C_4 
REMARK    5  A    between atoms: O_14  and  C_9 
REMARK    6  A    between atoms: S_13  and  C_16 
REMARK    7  A    between atoms: C_15  and  S_13 
REMARK    8  A    between atoms: C_17  and  O_14 
ROOT
ATOM      1  C   UNL d   1      52.921  31.759  53.178  0.00  0.00     0.040 A 
ATOM      2  C   UNL d   1      52.428  31.144  52.941  0.00  0.00     0.005 A 
ATOM      3  C   UNL d   1      53.604  31.595  53.621  0.00  0.00     0.005 A 
ATOM      4  C   UNL d   1      53.292  30.201  53.583  0.00  0.00     0.100 A 
ATOM      5  C   UNL d   1      52.610  30.365  53.140  0.00  0.00     0.025 A 
ATOM      6  C   UNL d   1      53.785  30.817  53.821  0.00  0.00     0.025 A 
ENDROOT
BRANCH   1   7
ATOM      7  C   UNL d   1      52.725  32.540  52.970  0.00  0.00     0.202 C 
ATOM      8  O   UNL d   1      52.706  32.775  52.181  0.00  0.00    -0.286 OA
BRANCH   7   9
ATOM      9  C   UNL d   1      52.546  33.094  53.571  0.00  0.00     0.077 C 
BRANCH   9  10
ATOM     10  S   UNL d   1      52.654  33.917  53.425  0.00  0.00    -0.082 SA
BRANCH  10  11
ATOM     11  C   UNL d   1      52.555  34.458  54.038  0.00  0.00     0.042 C 
BRANCH  11  12
ATOM     12  C   UNL d   1      52.940  35.185  54.009  0.00  0.00     0.077 C 
BRANCH  12  13
ATOM     13  C   UNL d   1      53.026  35.638  54.694  0.00  0.00     0.211 C 
ATOM     14  O   UNL d   1      52.808  36.435  54.687  0.00  0.00    -0.644 OA
ATOM     15  O   UNL d   1      53.327  35.298  55.381  0.00  0.00    -0.644 OA
ENDBRANCH  12  13
ENDBRANCH  11  12
ENDBRANCH  10  11
ENDBRANCH   9  10
ENDBRANCH   7   9
ENDBRANCH   1   7
BRANCH   4  16
ATOM     16  O   UNL d   1      53.484  29.404  53.791  0.00  0.00    -0.305 OA
BRANCH  16  17
ATOM     17  C   UNL d   1      53.276  29.114  54.535  0.00  0.00     0.123 C 
ATOM     18  C   UNL d   1      53.574  28.390  54.792  0.00  0.00     0.029 C 
ENDBRANCH  16  17
ENDBRANCH   4  16
TORSDOF 8
ENDMDL
MODEL 2
REMARK VINA RESULT:      -6.9      1.736      2.180
REMARK  8 active torsions:
REMARK  status: ('A' for Active; 'I' for Inactive)
REMARK    1  A    between atoms: C_4  and  C_1 
REMARK    2  A    between atoms: C_2  and  C_15 
REMARK    3  A    between atoms: C_3  and  C_2 
REMARK    4  A    between atoms: C_16  and  C_4 
REMARK    5  A    between atoms: O_14  and  C_9 
REMARK    6  A    between atoms: S_13  and  C_16 
REMARK    7  A    between atoms: C_15  and  S_13 
REMARK    8  A    between atoms: C_17  and  O_14 
ROOT
ATOM      1  C   UNL d   1      52.946  31.917  53.219  0.00  0.00     0.040 A 
ATOM      2  C   UNL d   1      53.532  31.800  53.786  0.00  0.00     0.005 A 
ATOM      3  C   UNL d   1      52.591  31.264  52.850  0.00  0.00     0.005 A 
ATOM      4  C   UNL d   1      53.412  30.383  53.620  0.00  0.00     0.100 A 
ATOM      5  C   UNL d   1      53.767  31.036  53.989  0.00  0.00     0.025 A 
ATOM      6  C   UNL d   1      52.825  30.501  53.053  0.00  0.00     0.025 A 
ENDROOT
BRANCH   1   7
ATOM      7  C   UNL d   1      52.719  32.693  53.024  0.00  0.00     0.202 C 
ATOM      8  O   UNL d   1      53.280  33.258  52.815  0.00  0.00    -0.286 OA
BRANCH   7   9
ATOM      9  C   UNL d   1      51.909  32.901  53.041  0.00  0.00     0.077 C 
BRANCH   9  10
ATOM     10  S   UNL d   1      51.677  33.692  52.864  0.00  0.00    -0.082 SA
BRANCH  10  11
ATOM     11  C   UNL d   1      50.888  33.915  52.938  0.00  0.00     0.042 C 
BRANCH  11  12
ATOM     12  C   UNL d   1      50.578  34.495  52.443  0.00  0.00     0.077 C 
BRANCH  12  13
ATOM     13  C   UNL d   1      49.775  34.685  52.477  0.00  0.00     0.211 C 
ATOM     14  O   UNL d   1      49.472  35.055  53.151  0.00  0.00    -0.644 OA
ATOM     15  O   UNL d   1      49.279  34.507  51.845  0.00  0.00    -0.644 OA
ENDBRANCH  12  13
ENDBRANCH  11  12
ENDBRANCH  10  11
ENDBRANCH   9  10
ENDBRANCH   7   9
ENDBRANCH   1   7
BRANCH   4  16
ATOM     16  O   UNL d   1      53.648  29.598  53.824  0.00  0.00    -0.305 OA
BRANCH  16  17
ATOM     17  C   UNL d   1      53.259  29.198  54.432  0.00  0.00     0.123 C 
ATOM     18  C   UNL d   1      53.576  28.500  54.734  0.00  0.00     0.029 C 
ENDBRANCH  16  17
ENDBRANCH   4  16
TORSDOF 8
ENDMDL
MODEL 3
REMARK VINA RESULT:      -6.8      1.284      4.764
REMARK  8 active torsions:
REMARK  status: ('A' for Active; 'I' for Inactive)
REMARK    1  A    between atoms: C_4  and  C_1 
REMARK    2  A    between atoms: C_2  and  C_15 
REMARK    3  A    between atoms: C_3  and  C_2 
REMARK    4  A    between atoms: C_16  and  C_4 
REMARK    5  A    between atoms: O_14  and  C_9 
REMARK    6  A    between atoms: S_13  and  C_16 
REMARK    7  A    between atoms: C_15  and  S_13 
REMARK    8  A    between atoms: C_17  and  O_14 
ROOT
ATOM      1  C   UNL d   1      52.950  32.534  53.115  0.00  0.00     0.040 A 
ATOM      2  C   UNL d   1      52.265  32.972  52.983  0.00  0.00     0.005 A 
ATOM      3  C   UNL d   1      53.623  32.904  53.431  0.00  0.00     0.005 A 
ATOM      4  C   UNL d   1      52.916  34.145  53.481  0.00  0.00     0.100 A 
ATOM      5  C   UNL d   1      52.244  33.775  53.164  0.00  0.00     0.025 A 
ATOM      6  C   UNL d   1      53.602  33.707  53.612  0.00  0.00     0.025 A 
ENDROOT
BRANCH   1   7
ATOM      7  C   UNL d   1      52.957  31.724  52.927  0.00  0.00     0.202 C 
ATOM      8  O   UNL d   1      52.634  31.451  52.221  0.00  0.00    -0.286 OA
BRANCH   7   9
ATOM      9  C   UNL d   1      53.298  31.180  53.464  0.00  0.00     0.077 C 
BRANCH   9  10
ATOM     10  S   UNL d   1      53.119  30.359  53.396  0.00  0.00    -0.082 SA
BRANCH  10  11
ATOM     11  C   UNL d   1      53.450  29.822  53.925  0.00  0.00     0.042 C 
BRANCH  11  12
ATOM     12  C   UNL d   1      53.016  29.166  54.168  0.00  0.00     0.077 C 
BRANCH  12  13
ATOM     13  C   UNL d   1      53.314  28.663  54.752  0.00  0.00     0.211 C 
ATOM     14  O   UNL d   1      53.091  28.774  55.539  0.00  0.00    -0.644 OA
ATOM     15  O   UNL d   1      53.831  28.055  54.549  0.00  0.00    -0.644 OA
ENDBRANCH  12  13
ENDBRANCH  11  12
ENDBRANCH  10  11
ENDBRANCH   9  10
ENDBRANCH   7   9
ENDBRANCH   1   7
BRANCH   4  16
ATOM     16  O   UNL d   1      52.900  34.969  53.669  0.00  0.00    -0.305 OA
BRANCH  16  17
ATOM     17  C   UNL d   1      53.004  35.212  54.450  0.00  0.00     0.123 C 
ATOM     18  C   UNL d   1      52.995  36.016  54.636  0.00  0.00     0.029 C 
ENDBRANCH  16  17
ENDBRANCH   4  16
TORSDOF 8
ENDMDL
MODEL 4
REMARK VINA RESULT:      -6.8      2.095      4.948
REMARK  8 active torsions:
REMARK  status: ('A' for Active; 'I' for Inactive)
REMARK    1  A    between atoms: C_4  and  C_1 
REMARK    2  A    between atoms: C_2  and  C_15 
REMARK    3  A    between atoms: C_3  and  C_2 
REMARK    4  A    between atoms: C_16  and  C_4 
REMARK    5  A    between atoms: O_14  and  C_9 
REMARK    6  A    between atoms: S_13  and  C_16 
REMARK    7  A    between atoms: C_15  and  S_13 
REMARK    8  A    between atoms: C_17  and  O_14 
ROOT
ATOM      1  C   UNL d   1      51.905  33.321  53.018  0.00  0.00     0.040 A 
ATOM      2  C   UNL d   1      51.197  33.255  53.434  0.00  0.00     0.005 A 
ATOM      3  C   UNL d   1      51.967  33.859  52.390  0.00  0.00     0.005 A 
ATOM      4  C   UNL d   1      50.612  34.261  52.600  0.00  0.00     0.100 A 
ATOM      5  C   UNL d   1      50.550  33.722  53.229  0.00  0.00     0.025 A 
ATOM      6  C   UNL d   1      51.321  34.326  52.185  0.00  0.00     0.025 A 
ENDROOT
BRANCH   1   7
ATOM      7  C   UNL d   1      52.550  32.843  53.237  0.00  0.00     0.202 C 
ATOM      8  O   UNL d   1      53.128  33.122  53.751  0.00  0.00    -0.286 OA
BRANCH   7   9
ATOM      9  C   UNL d   1      52.611  32.068  52.928  0.00  0.00     0.077 C 
BRANCH   9  10
ATOM     10  S   UNL d   1      53.096  31.499  53.319  0.00  0.00    -0.082 SA
BRANCH  10  11
ATOM     11  C   UNL d   1      52.940  30.696  53.228  0.00  0.00     0.042 C 
BRANCH  11  12
ATOM     12  C   UNL d   1      53.411  30.142  53.614  0.00  0.00     0.077 C 
BRANCH  12  13
ATOM     13  C   UNL d   1      53.102  29.402  53.814  0.00  0.00     0.211 C 
ATOM     14  O   UNL d   1      53.354  29.029  54.508  0.00  0.00    -0.644 OA
ATOM     15  O   UNL d   1      52.548  29.038  53.326  0.00  0.00    -0.644 OA
ENDBRANCH  12  13
ENDBRANCH  11  12
ENDBRANCH  10  11
ENDBRANCH   9  10
ENDBRANCH   7   9
ENDBRANCH   1   7
BRANCH   4  16
ATOM     16  O   UNL d   1      49.952  34.743  52.385  0.00  0.00    -0.305 OA
BRANCH  16  17
ATOM     17  C   UNL d   1      49.442  34.493  51.787  0.00  0.00     0.123 C 
ATOM     18  C   UNL d   1      48.777  34.944  51.599  0.00  0.00     0.029 C 
ENDBRANCH  16  17
ENDBRANCH   4  16
TORSDOF 8
ENDMDL
MODEL 5
REMARK VINA RESULT:      -6.7      2.637      4.235
REMARK  8 active torsions:
REMARK  status: ('A' for Active; 'I' for Inactive)
REMARK    1  A    between atoms: C_4  and  C_1 
REMARK    2  A    between atoms: C_2  and  C_15 
REMARK    3  A    between atoms: C_3  and  C_2 
REMARK    4  A    between atoms: C_16  and  C_4 
REMARK    5  A    between atoms: O_14  and  C_9 
REMARK    6  A    between atoms: S_13  and  C_16 
REMARK    7  A    between atoms: C_15  and  S_13 
REMARK    8  A    between atoms: C_17  and  O_14 
ROOT
ATOM      1  C   UNL d   1      51.608  33.583  52.810  0.00  0.00     0.040 A 
ATOM      2  C   UNL d   1      50.907  33.490  53.232  0.00  0.00     0.005 A 
ATOM      3  C   UNL d   1      51.617  34.047  52.122  0.00  0.00     0.005 A 
ATOM      4  C   UNL d   1      50.224  34.319  52.286  0.00  0.00     0.100 A 
ATOM      5  C   UNL d   1      50.215  33.855  52.975  0.00  0.00     0.025 A 
ATOM      6  C   UNL d   1      50.926  34.412  51.864  0.00  0.00     0.025 A 
ENDROOT
BRANCH   1   7
ATOM      7  C   UNL d   1      52.299  33.208  53.082  0.00  0.00     0.202 C 
ATOM      8  O   UNL d   1      52.583  32.528  52.716  0.00  0.00    -0.286 OA
BRANCH   7   9
ATOM      9  C   UNL d   1      52.710  33.528  53.736  0.00  0.00     0.077 C 
BRANCH   9  10
ATOM     10  S   UNL d   1      53.459  33.209  53.955  0.00  0.00    -0.082 SA
BRANCH  10  11
ATOM     11  C   UNL d   1      53.903  33.571  54.546  0.00  0.00     0.042 C 
BRANCH  11  12
ATOM     12  C   UNL d   1      54.654  33.288  54.727  0.00  0.00     0.077 C 
BRANCH  12  13
ATOM     13  C   UNL d   1      55.151  33.718  55.228  0.00  0.00     0.211 C 
ATOM     14  O   UNL d   1      55.032  33.686  56.045  0.00  0.00    -0.644 OA
ATOM     15  O   UNL d   1      55.760  34.175  54.915  0.00  0.00    -0.644 OA
ENDBRANCH  12  13
ENDBRANCH  11  12
ENDBRANCH  10  11
ENDBRANCH   9  10
ENDBRANCH   7   9
ENDBRANCH   1   7
BRANCH   4  16
ATOM     16  O   UNL d   1      49.517  34.696  52.017  0.00  0.00    -0.305 OA
BRANCH  16  17
ATOM     17  C   UNL d   1      49.154  34.436  51.324  0.00  0.00     0.123 C 
ATOM     18  C   UNL d   1      48.471  34.810  51.052  0.00  0.00     0.029 C 
ENDBRANCH  16  17
ENDBRANCH   4  16
TORSDOF 8
ENDMDL
MODEL 6
REMARK VINA RESULT:      -6.5      2.965      3.907
REMARK  8 active torsions:
REMARK  status: ('A' for Active; 'I' for Inactive)
REMARK    1  A    between atoms: C_4  and  C_1 
REMARK    2  A    between atoms: C_2  and  C_15 
REMARK    3  A    between atoms: C_3  and  C_2 
REMARK    4  A    between atoms: C_16  and  C_4 
REMARK    5  A    between atoms: O_14  and  C_9 
REMARK    6  A    between atoms: S_13  and  C_16 
REMARK    7  A    between atoms: C_15  and  S_13 
REMARK    8  A    between atoms: C_17  and  O_14 
ROOT
ATOM      1  C   UNL d   1      51.719  34.006  52.915  0.00  0.00     0.040 A 
ATOM      2  C   UNL d   1      52.292  34.577  53.069  0.00  0.00     0.005 A 
ATOM      3  C   UNL d   1      51.858  33.214  53.124  0.00  0.00     0.005 A 
ATOM      4  C   UNL d   1      53.142  33.575  53.637  0.00  0.00     0.100 A 
ATOM      5  C   UNL d   1      53.003  34.366  53.428  0.00  0.00     0.025 A 
ATOM      6  C   UNL d   1      52.568  33.003  53.483  0.00  0.00     0.025 A 
ENDROOT
BRANCH   1   7
ATOM      7  C   UNL d   1      51.006  34.233  52.552  0.00  0.00     0.202 C 
ATOM      8  O   UNL d   1      50.927  34.221  51.733  0.00  0.00    -0.286 OA
BRANCH   7   9
ATOM      9  C   UNL d   1      50.361  34.476  53.027  0.00  0.00     0.077 C 
BRANCH   9  10
ATOM     10  S   UNL d   1      49.689  34.835  52.666  0.00  0.00    -0.082 SA
BRANCH  10  11
ATOM     11  C   UNL d   1      49.137  35.230  53.130  0.00  0.00     0.042 C 
BRANCH  11  12
ATOM     12  C   UNL d   1      48.500  35.611  52.774  0.00  0.00     0.077 C 
BRANCH  12  13
ATOM     13  C   UNL d   1      47.995  36.086  53.224  0.00  0.00     0.211 C 
ATOM     14  O   UNL d   1      47.182  35.938  53.218  0.00  0.00    -0.644 OA
ATOM     15  O   UNL d   1      48.300  36.704  53.675  0.00  0.00    -0.644 OA
ENDBRANCH  12  13
ENDBRANCH  11  12
ENDBRANCH  10  11
ENDBRANCH   9  10
ENDBRANCH   7   9
ENDBRANCH   1   7
BRANCH   4  16
ATOM     16  O   UNL d   1      53.869  33.353  54.006  0.00  0.00    -0.305 OA
BRANCH  16  17
ATOM     17  C   UNL d   1      53.980  33.498  54.810  0.00  0.00     0.123 C 
ATOM     18  C   UNL d   1      54.705  33.324  55.163  0.00  0.00     0.029 C 
ENDBRANCH  16  17
ENDBRANCH   4  16
TORSDOF 8
ENDMDL
MODEL 7
REMARK VINA RESULT:      -4.5     14.789     16.138
REMARK  8 active torsions:
REMARK  status: ('A' for Active; 'I' for Inactive)
REMARK    1  A    between atoms: C_4  and  C_1 
REMARK    2  A    between atoms: C_2  and  C_15 
REMARK    3  A    between atoms: C_3  and  C_2 
REMARK    4  A    between atoms: C_16  and  C_4 
REMARK    5  A    between atoms: O_14  and  C_9 
REMARK    6  A    between atoms: S_13  and  C_16 
REMARK    7  A    between atoms: C_15  and  S_13 
REMARK    8  A    between atoms: C_17  and  O_14 
ROOT
ATOM      1  C   UNL d   1      46.438  26.052  67.463  0.00  0.00     0.040 A 
ATOM      2  C   UNL d   1      46.530  25.375  67.921  0.00  0.00     0.005 A 
ATOM      3  C   UNL d   1      45.907  26.050  66.825  0.00  0.00     0.005 A 
ATOM      4  C   UNL d   1      45.567  24.693  67.113  0.00  0.00     0.100 A 
ATOM      5  C   UNL d   1      46.098  24.695  67.750  0.00  0.00     0.025 A 
ATOM      6  C   UNL d   1      45.474  25.371  66.654  0.00  0.00     0.025 A 
ENDROOT
BRANCH   1   7
ATOM      7  C   UNL d   1      46.881  26.732  67.647  0.00  0.00     0.202 C 
ATOM      8  O   UNL d   1      46.512  27.418  67.913  0.00  0.00    -0.286 OA
BRANCH   7   9
ATOM      9  C   UNL d   1      47.713  26.716  67.561  0.00  0.00     0.077 C 
BRANCH   9  10
ATOM     10  S   UNL d   1      48.167  27.396  67.768  0.00  0.00    -0.082 SA
BRANCH  10  11
ATOM     11  C   UNL d   1      48.939  27.473  67.493  0.00  0.00     0.042 C 
BRANCH  11  12
ATOM     12  C   UNL d   1      49.464  27.976  67.879  0.00  0.00     0.077 C 
BRANCH  12  13
ATOM     13  C   UNL d   1      50.159  28.219  67.504  0.00  0.00     0.211 C 
ATOM     14  O   UNL d   1      50.640  27.659  67.133  0.00  0.00    -0.644 OA
ATOM     15  O   UNL d   1      50.371  29.015  67.500  0.00  0.00    -0.644 OA
ENDBRANCH  12  13
ENDBRANCH  11  12
ENDBRANCH  10  11
ENDBRANCH   9  10
ENDBRANCH   7   9
ENDBRANCH   1   7
BRANCH   4  16
ATOM     16  O   UNL d   1      45.120  23.998  66.932  0.00  0.00    -0.305 OA
BRANCH  16  17
ATOM     17  C   UNL d   1      45.411  23.457  66.382  0.00  0.00     0.123 C 
ATOM     18  C   UNL d   1      45.041  22.726  66.289  0.00  0.00     0.029 C 
ENDBRANCH  16  17
ENDBRANCH   4  16
TORSDOF 8
ENDMDL
MODEL 8
REMARK VINA RESULT:      -4.5      9.790     11.060
REMARK  8 active torsions:
REMARK  status: ('A' for Active; 'I' for Inactive)
REMARK    1  A    between atoms: C_4  and  C_1 
REMARK    2  A    between atoms: C_2  and  C_15 
REMARK    3  A    between atoms: C_3  and  C_2 
REMARK    4  A    between atoms: C_16  and  C_4 
REMARK    5  A    between atoms: O_14  and  C_9 
REMARK    6  A    between atoms: S_13  and  C_16 
REMARK    7  A    between atoms: C_15  and  S_13 
REMARK    8  A    between atoms: C_17  and  O_14 
ROOT
ATOM      1  C   UNL d   1      44.886  29.521  58.399  0.00  0.00     0.040 A 
ATOM      2  C   UNL d   1      45.307  30.225  58.467  0.00  0.00     0.005 A 
ATOM      3  C   UNL d   1      44.405  29.266  59.025  0.00  0.00     0.005 A 
ATOM      4  C   UNL d   1      44.772  30.423  59.780  0.00  0.00     0.100 A 
ATOM      5  C   UNL d   1      45.254  30.678  59.153  0.00  0.00     0.025 A 
ATOM      6  C   UNL d   1      44.351  29.718  59.712  0.00  0.00     0.025 A 
ENDROOT
BRANCH   1   7
ATOM      7  C   UNL d   1      44.950  29.075  57.700  0.00  0.00     0.202 C 
ATOM      8  O   UNL d   1      44.942  29.440  56.963  0.00  0.00    -0.286 OA
BRANCH   7   9
ATOM      9  C   UNL d   1      45.023  28.243  57.749  0.00  0.00     0.077 C 
BRANCH   9  10
ATOM     10  S   UNL d   1      45.025  27.782  57.043  0.00  0.00    -0.082 SA
BRANCH  10  11
ATOM     11  C   UNL d   1      45.057  26.961  57.089  0.00  0.00     0.042 C 
BRANCH  11  12
ATOM     12  C   UNL d   1      44.812  26.504  56.449  0.00  0.00     0.077 C 
BRANCH  12  13
ATOM     13  C   UNL d   1      44.893  25.682  56.470  0.00  0.00     0.211 C 
ATOM     14  O   UNL d   1      44.616  25.262  57.125  0.00  0.00    -0.644 OA
ATOM     15  O   UNL d   1      45.247  25.285  55.842  0.00  0.00    -0.644 OA
ENDBRANCH  12  13
ENDBRANCH  11  12
ENDBRANCH  10  11
ENDBRANCH   9  10
ENDBRANCH   7   9
ENDBRANCH   1   7
BRANCH   4  16
ATOM     16  O   UNL d   1      44.713  30.883  60.486  0.00  0.00    -0.305 OA
BRANCH  16  17
ATOM     17  C   UNL d   1      44.725  30.507  61.220  0.00  0.00     0.123 C 
ATOM     18  C   UNL d   1      44.667  30.953  61.912  0.00  0.00     0.029 C 
ENDBRANCH  16  17
ENDBRANCH   4  16
TORSDOF 8
ENDMDL
MODEL 9
REMARK VINA RESULT:      -4.4      9.463     11.024
REMARK  8 active torsions:
REMARK  status: ('A' for Active; 'I' for Inactive)
REMARK    1  A    between atoms: C_4  and  C_1 
REMARK    2  A    between atoms: C_2  and  C_15 
REMARK    3  A    between atoms: C_3  and  C_2 
REMARK    4  A    between atoms: C_16  and  C_4 
REMARK    5  A    between atoms: O_14  and  C_9 
REMARK    6  A    between atoms: S_13  and  C_16 
REMARK    7  A    between atoms: C_15  and  S_13 
REMARK    8  A    between atoms: C_17  and  O_14 
ROOT
ATOM      1  C   UNL d   1      45.047  28.429  57.476  0.00  0.00     0.040 A 
ATOM      2  C   UNL d   1      44.933  28.917  56.823  0.00  0.00     0.005 A 
ATOM      3  C   UNL d   1      44.930  28.727  58.242  0.00  0.00     0.005 A 
ATOM      4  C   UNL d   1      44.586  30.001  57.692  0.00  0.00     0.100 A 
ATOM      5  C   UNL d   1      44.703  29.702  56.927  0.00  0.00     0.025 A 
ATOM      6  C   UNL d   1      44.700  29.511  58.345  0.00  0.00     0.025 A 
ENDROOT
BRANCH   1   7
ATOM      7  C   UNL d   1      45.279  27.639  57.357  0.00  0.00     0.202 C 
ATOM      8  O   UNL d   1      45.947  27.334  57.729  0.00  0.00    -0.286 OA
BRANCH   7   9
ATOM      9  C   UNL d   1      44.827  27.149  56.852  0.00  0.00     0.077 C 
BRANCH   9  10
ATOM     10  S   UNL d   1      45.048  26.342  56.746  0.00  0.00    -0.082 SA
BRANCH  10  11
ATOM     11  C   UNL d   1      44.717  25.904  56.132  0.00  0.00     0.042 C 
BRANCH  11  12
ATOM     12  C   UNL d   1      44.743  25.082  56.155  0.00  0.00     0.077 C 
BRANCH  12  13
ATOM     13  C   UNL d   1      44.700  24.644  55.456  0.00  0.00     0.211 C 
ATOM     14  O   UNL d   1      45.046  23.894  55.421  0.00  0.00    -0.644 OA
ATOM     15  O   UNL d   1      44.314  24.953  54.797  0.00  0.00    -0.644 OA
ENDBRANCH  12  13
ENDBRANCH  11  12
ENDBRANCH  10  11
ENDBRANCH   9  10
ENDBRANCH   7   9
ENDBRANCH   1   7
BRANCH   4  16
ATOM     16  O   UNL d   1      44.350  30.805  57.804  0.00  0.00    -0.305 OA
BRANCH  16  17
ATOM     17  C   UNL d   1      44.690  31.398  57.344  0.00  0.00     0.123 C 
ATOM     18  C   UNL d   1      44.422  32.176  57.411  0.00  0.00     0.029 C 
ENDBRANCH  16  17
ENDBRANCH   4  16
TORSDOF 8
ENDMDL
