MODEL 1
REMARK VINA RESULT:      91.8      0.000      0.000
REMARK  4 active torsions:
REMARK  status: ('A' for Active; 'I' for Inactive)
REMARK    1  A    between atoms: S_5  and  C_2 
REMARK    2  A    between atoms: C_15  and  S_5 
REMARK    3  A    between atoms: N_11  and  C_8 
REMARK    4  A    between atoms: C_12  and  N_11 
ROOT
ATOM      1  C   UNL d   1     -55.045-101.574 -42.858  0.00  0.00     0.197 A 
ATOM      2  C   UNL d   1     -54.963-102.185 -42.304  0.00  0.00     0.227 A 
ATOM      3  N   UNL d   1     -54.890-101.890 -43.607  0.00  0.00    -0.192 N 
ATOM      4  N   UNL d   1     -55.240-100.776 -42.781  0.00  0.00    -0.206 NA
ATOM      5  N   UNL d   1     -54.757-102.875 -42.709  0.00  0.00    -0.115 NA
ATOM      6  N   UNL d   1     -54.711-102.695 -43.517  0.00  0.00    -0.058 NA
ATOM      7  C   UNL d   1     -55.281-100.290 -43.452  0.00  0.00     0.166 A 
ATOM      8  C   UNL d   1     -55.125-100.611 -44.196  0.00  0.00     0.054 A 
ATOM      9  C   UNL d   1     -54.929-101.408 -44.281  0.00  0.00     0.089 A 
ATOM     10  C   UNL d   1     -55.165-100.129 -44.871  0.00  0.00     0.005 A 
ATOM     11  C   UNL d   1     -54.775-101.725 -45.025  0.00  0.00     0.019 A 
ATOM     12  C   UNL d   1     -55.010-100.446 -45.615  0.00  0.00     0.000 A 
ATOM     13  C   UNL d   1     -54.815-101.244 -45.692  0.00  0.00     0.002 A 
ENDROOT
BRANCH   2  14
ATOM     14  S   UNL d   1     -55.068-102.113 -41.488  0.00  0.00     0.231 S 
ATOM     15  O   UNL d   1     -54.723-102.855 -41.404  0.00  0.00    -0.215 OA
ATOM     16  O   UNL d   1     -55.413-101.371 -41.575  0.00  0.00    -0.215 OA
BRANCH  14  17
ATOM     17  C   UNL d   1     -55.155-102.080 -40.673  0.00  0.00     0.090 A 
ATOM     18  C   UNL d   1     -54.730-101.535 -40.229  0.00  0.00     0.011 A 
ATOM     19  C   UNL d   1     -54.818-101.504 -39.418  0.00  0.00     0.001 A 
ATOM     20  C   UNL d   1     -55.337-102.025 -39.038  0.00  0.00     0.000 A 
ATOM     21  C   UNL d   1     -55.765-102.573 -39.485  0.00  0.00     0.001 A 
ATOM     22  C   UNL d   1     -55.675-102.601 -40.297  0.00  0.00     0.011 A 
ENDBRANCH  14  17
ENDBRANCH   2  14
BRANCH   7  23
ATOM     23  N   UNL d   1     -55.476 -99.492 -43.375  0.00  0.00    -0.227 NA
BRANCH  23  24
ATOM     24  C   UNL d   1     -56.257 -99.249 -43.463  0.00  0.00     0.083 A 
ATOM     25  C   UNL d   1     -56.570 -99.127 -44.218  0.00  0.00     0.019 A 
ATOM     26  C   UNL d   1     -57.351 -98.883 -44.306  0.00  0.00     0.002 A 
ATOM     27  C   UNL d   1     -57.663 -98.761 -45.060  0.00  0.00     0.000 C 
ATOM     28  C   UNL d   1     -57.827 -98.759 -43.638  0.00  0.00     0.000 A 
ATOM     29  C   UNL d   1     -57.506 -98.884 -42.883  0.00  0.00     0.002 A 
ATOM     30  C   UNL d   1     -56.727 -99.127 -42.798  0.00  0.00     0.019 A 
ATOM     31  C   UNL d   1     -57.975 -98.762 -42.218  0.00  0.00     0.000 C 
ENDBRANCH  23  24
ENDBRANCH   7  23
TORSDOF 4
ENDMDL
