MODEL 1
REMARK VINA RESULT:      22.8      0.000      0.000
REMARK  1 active torsions:
REMARK  status: ('A' for Active; 'I' for Inactive)
REMARK       I    between atoms: C_3  and  N_1 
REMARK    1  A    between atoms: C_6  and  C_3 
ROOT
ATOM      1  N   UNL d   1      45.904 -17.094  43.865  0.00  0.00    -0.175 N 
ATOM      2  N   UNL d   1      45.540 -17.407  44.552  0.00  0.00    -0.057 NA
ATOM      3  C   UNL d   1      46.310 -17.546  43.282  0.00  0.00     0.282 C 
ATOM      4  N   UNL d   1      45.222 -16.811  44.955  0.00  0.00    -0.129 NA
ATOM      5  C   UNL d   1      45.791 -16.276  43.871  0.00  0.00     0.107 A 
ATOM      6  C   UNL d   1      45.360 -16.098  44.560  0.00  0.00     0.122 A 
ATOM      7  O   UNL d   1      46.646 -17.154  42.624  0.00  0.00    -0.265 OA
ATOM      8  C   UNL d   1      46.020 -15.665  43.345  0.00  0.00     0.021 A 
ATOM      9  C   UNL d   1      45.148 -15.304  44.738  0.00  0.00     0.022 A 
ATOM     10  C   UNL d   1      45.811 -14.877  43.521  0.00  0.00     0.002 A 
ATOM     11  C   UNL d   1      45.379 -14.698  44.209  0.00  0.00     0.002 A 
ENDROOT
BRANCH   3  12
ATOM     12  C   UNL d   1      46.379 -18.364  43.350  0.00  0.00     0.058 A 
ATOM     13  C   UNL d   1      46.463 -18.834  42.688  0.00  0.00     0.005 A 
ATOM     14  C   UNL d   1      46.531 -19.634  42.757  0.00  0.00     0.000 A 
ATOM     15  C   UNL d   1      46.474 -18.460  41.960  0.00  0.00     0.000 A 
ATOM     16  C   UNL d   1      46.613 -20.084  42.085  0.00  0.00     0.000 A 
ATOM     17  C   UNL d   1      46.517 -19.993  43.506  0.00  0.00     0.000 A 
ATOM     18  C   UNL d   1      46.627 -19.748  41.366  0.00  0.00     0.000 A 
ATOM     19  C   UNL d   1      46.558 -18.935  41.299  0.00  0.00     0.000 A 
ATOM     20  C   UNL d   1      46.433 -19.528  44.181  0.00  0.00     0.000 A 
ATOM     21  C   UNL d   1      46.363 -18.704  44.100  0.00  0.00     0.005 A 
ENDBRANCH   3  12
TORSDOF 1
ENDMDL
