MODEL 1
REMARK VINA RESULT:      -6.2      0.000      0.000
REMARK  1 active torsions:
REMARK  status: ('A' for Active; 'I' for Inactive)
REMARK    1  A    between atoms: C_5  and  C_1 
ROOT
ATOM      1  C   UNL d   1     -41.585-122.328 -52.911  0.00  0.00     0.162 A 
ATOM      2  N   UNL d   1     -42.214-121.942 -53.222  0.00  0.00    -0.225 NA
ATOM      3  N   UNL d   1     -41.123-122.634 -53.483  0.00  0.00    -0.225 NA
ATOM      4  C   UNL d   1     -42.152-122.004 -54.060  0.00  0.00     0.101 A 
ATOM      5  C   UNL d   1     -41.474-122.434 -54.223  0.00  0.00     0.101 A 
ATOM      6  C   UNL d   1     -42.632-121.719 -54.671  0.00  0.00     0.021 A 
ATOM      7  C   UNL d   1     -41.258-122.591 -55.000  0.00  0.00     0.021 A 
ATOM      8  C   UNL d   1     -41.731-122.311 -55.619  0.00  0.00     0.002 A 
ATOM      9  C   UNL d   1     -42.409-121.881 -55.457  0.00  0.00     0.002 A 
ENDROOT
BRANCH   1  10
ATOM     10  C   UNL d   1     -41.438-122.398 -52.113  0.00  0.00     0.036 A 
ATOM     11  C   UNL d   1     -41.384-123.140 -51.760  0.00  0.00     0.003 A 
ATOM     12  C   UNL d   1     -41.480-123.817 -52.229  0.00  0.00     0.000 C 
ATOM     13  C   UNL d   1     -41.235-123.211 -50.951  0.00  0.00     0.000 A 
ATOM     14  C   UNL d   1     -41.138-122.541 -50.475  0.00  0.00     0.000 A 
ATOM     15  C   UNL d   1     -41.194-121.803 -50.835  0.00  0.00     0.000 A 
ATOM     16  C   UNL d   1     -41.342-121.733 -51.644  0.00  0.00     0.003 A 
ENDBRANCH   1  10
TORSDOF 1
ENDMDL
MODEL 2
REMARK VINA RESULT:      -5.9      0.564      3.377
REMARK  1 active torsions:
REMARK  status: ('A' for Active; 'I' for Inactive)
REMARK    1  A    between atoms: C_5  and  C_1 
ROOT
ATOM      1  C   UNL d   1     -41.677-122.474 -53.188  0.00  0.00     0.162 A 
ATOM      2  N   UNL d   1     -41.559-121.889 -52.654  0.00  0.00    -0.225 NA
ATOM      3  N   UNL d   1     -41.615-123.192 -52.850  0.00  0.00    -0.225 NA
ATOM      4  C   UNL d   1     -41.408-122.261 -51.912  0.00  0.00     0.101 A 
ATOM      5  C   UNL d   1     -41.443-123.070 -52.034  0.00  0.00     0.101 A 
ATOM      6  C   UNL d   1     -41.248-121.949 -51.163  0.00  0.00     0.021 A 
ATOM      7  C   UNL d   1     -41.319-123.589 -51.410  0.00  0.00     0.021 A 
ATOM      8  C   UNL d   1     -41.158-123.290 -50.655  0.00  0.00     0.002 A 
ATOM      9  C   UNL d   1     -41.123-122.481 -50.533  0.00  0.00     0.002 A 
ENDROOT
BRANCH   1  10
ATOM     10  C   UNL d   1     -41.841-122.348 -53.977  0.00  0.00     0.036 A 
ATOM     11  C   UNL d   1     -41.573-122.876 -54.550  0.00  0.00     0.003 A 
ATOM     12  C   UNL d   1     -41.134-123.539 -54.313  0.00  0.00     0.000 C 
ATOM     13  C   UNL d   1     -41.738-122.748 -55.349  0.00  0.00     0.000 A 
ATOM     14  C   UNL d   1     -42.175-122.090 -55.594  0.00  0.00     0.000 A 
ATOM     15  C   UNL d   1     -42.439-121.567 -55.015  0.00  0.00     0.000 A 
ATOM     16  C   UNL d   1     -42.274-121.695 -54.216  0.00  0.00     0.003 A 
ENDBRANCH   1  10
TORSDOF 1
ENDMDL
MODEL 3
REMARK VINA RESULT:      -5.5      1.804      4.257
REMARK  1 active torsions:
REMARK  status: ('A' for Active; 'I' for Inactive)
REMARK    1  A    between atoms: C_5  and  C_1 
ROOT
ATOM      1  C   UNL d   1     -41.655-123.155 -50.722  0.00  0.00     0.162 A 
ATOM      2  N   UNL d   1     -42.383-123.025 -50.414  0.00  0.00    -0.225 NA
ATOM      3  N   UNL d   1     -41.126-123.324 -50.152  0.00  0.00    -0.225 NA
ATOM      4  C   UNL d   1     -42.317-123.118 -49.578  0.00  0.00     0.101 A 
ATOM      5  C   UNL d   1     -41.536-123.304 -49.416  0.00  0.00     0.101 A 
ATOM      6  C   UNL d   1     -42.875-123.053 -48.971  0.00  0.00     0.021 A 
ATOM      7  C   UNL d   1     -41.292-123.429 -48.641  0.00  0.00     0.021 A 
ATOM      8  C   UNL d   1     -41.841-123.367 -48.025  0.00  0.00     0.002 A 
ATOM      9  C   UNL d   1     -42.622-123.181 -48.188  0.00  0.00     0.002 A 
ENDROOT
BRANCH   1  10
ATOM     10  C   UNL d   1     -41.481-123.119 -51.517  0.00  0.00     0.036 A 
ATOM     11  C   UNL d   1     -41.299-122.399 -51.874  0.00  0.00     0.003 A 
ATOM     12  C   UNL d   1     -41.296-121.710 -51.412  0.00  0.00     0.000 C 
ATOM     13  C   UNL d   1     -41.123-122.362 -52.680  0.00  0.00     0.000 A 
ATOM     14  C   UNL d   1     -41.124-123.044 -53.148  0.00  0.00     0.000 A 
ATOM     15  C   UNL d   1     -41.306-123.759 -52.784  0.00  0.00     0.000 A 
ATOM     16  C   UNL d   1     -41.483-123.796 -51.978  0.00  0.00     0.003 A 
ENDBRANCH   1  10
TORSDOF 1
ENDMDL
MODEL 4
REMARK VINA RESULT:      -5.3      1.918      3.048
REMARK  1 active torsions:
REMARK  status: ('A' for Active; 'I' for Inactive)
REMARK    1  A    between atoms: C_5  and  C_1 
ROOT
ATOM      1  C   UNL d   1     -41.590-123.079 -50.125  0.00  0.00     0.162 A 
ATOM      2  N   UNL d   1     -41.505-122.364 -50.476  0.00  0.00    -0.225 NA
ATOM      3  N   UNL d   1     -41.520-123.671 -50.654  0.00  0.00    -0.225 NA
ATOM      4  C   UNL d   1     -41.370-122.506 -51.295  0.00  0.00     0.101 A 
ATOM      5  C   UNL d   1     -41.379-123.318 -51.406  0.00  0.00     0.101 A 
ATOM      6  C   UNL d   1     -41.243-121.991 -51.930  0.00  0.00     0.021 A 
ATOM      7  C   UNL d   1     -41.262-123.636 -52.155  0.00  0.00     0.021 A 
ATOM      8  C   UNL d   1     -41.135-123.130 -52.798  0.00  0.00     0.002 A 
ATOM      9  C   UNL d   1     -41.126-122.319 -52.687  0.00  0.00     0.002 A 
ENDROOT
BRANCH   1  10
ATOM     10  C   UNL d   1     -41.729-123.187 -49.329  0.00  0.00     0.036 A 
ATOM     11  C   UNL d   1     -42.484-123.080 -49.018  0.00  0.00     0.003 A 
ATOM     12  C   UNL d   1     -43.103-122.861 -49.526  0.00  0.00     0.000 C 
ATOM     13  C   UNL d   1     -42.626-123.188 -48.212  0.00  0.00     0.000 A 
ATOM     14  C   UNL d   1     -42.016-123.406 -47.697  0.00  0.00     0.000 A 
ATOM     15  C   UNL d   1     -41.264-123.511 -48.016  0.00  0.00     0.000 A 
ATOM     16  C   UNL d   1     -41.123-123.402 -48.822  0.00  0.00     0.003 A 
ENDBRANCH   1  10
TORSDOF 1
ENDMDL
