MODEL 1
REMARK VINA RESULT:      36.3      0.000      0.000
REMARK  3 active torsions:
REMARK  status: ('A' for Active; 'I' for Inactive)
REMARK    1  A    between atoms: N_3  and  S_1 
REMARK    2  A    between atoms: C_7  and  S_1 
REMARK    3  A    between atoms: C_10  and  N_3 
ROOT
ATOM      1  S   UNL d   1     -54.792-101.095 -42.241  0.00  0.00     0.327 S 
ATOM      2  O   UNL d   1     -54.755-101.435 -42.988  0.00  0.00    -0.186 OA
ATOM      3  O   UNL d   1     -54.848-100.279 -42.163  0.00  0.00    -0.186 OA
ENDROOT
BRANCH   1   4
ATOM      4  N   UNL d   1     -54.811-100.626 -42.914  0.00  0.00    -0.314 NA
BRANCH   4   5
ATOM      5  C   UNL d   1     -54.831-100.147 -43.602  0.00  0.00     0.184 A 
ATOM      6  C   UNL d   1     -54.833-100.508 -44.350  0.00  0.00     0.226 A 
ATOM      7  O   UNL d   1     -54.816-101.324 -44.417  0.00  0.00    -0.284 OA
ATOM      8  C   UNL d   1     -54.853-100.033 -45.028  0.00  0.00     0.045 A 
ATOM      9  C   UNL d   1     -54.870 -99.209 -44.955  0.00  0.00     0.004 A 
ATOM     10  C   UNL d   1     -54.867 -98.862 -44.209  0.00  0.00     0.003 A 
ATOM     11  C   UNL d   1     -54.848 -99.334 -43.534  0.00  0.00     0.036 A 
ENDBRANCH   4   5
ENDBRANCH   1   4
BRANCH   1  12
ATOM     12  C   UNL d   1     -54.772-101.572 -41.573  0.00  0.00     0.118 A 
ATOM     13  C   UNL d   1     -54.773-101.230 -40.827  0.00  0.00     0.035 A 
ATOM     14  C   UNL d   1     -54.753-101.708 -40.151  0.00  0.00     0.105 A 
ATOM     15  N   UNL d   1     -54.749-101.531 -39.346  0.00  0.00    -0.189 NA
ATOM     16  C   UNL d   1     -54.733-102.535 -40.230  0.00  0.00     0.104 A 
ATOM     17  C   UNL d   1     -54.726-102.247 -38.922  0.00  0.00     0.369 A 
ATOM     18  O   UNL d   1     -54.715-102.326 -38.103  0.00  0.00    -0.242 OA
ATOM     19  N   UNL d   1     -54.717-102.862 -39.473  0.00  0.00    -0.189 NA
ATOM     20  C   UNL d   1     -54.733-102.875 -40.985  0.00  0.00     0.022 A 
ATOM     21  C   UNL d   1     -54.752-102.391 -41.652  0.00  0.00     0.016 A 
ENDBRANCH   1  12
TORSDOF 3
ENDMDL
