MODEL 1
REMARK VINA RESULT:      26.6      0.000      0.000
REMARK  3 active torsions:
REMARK  status: ('A' for Active; 'I' for Inactive)
REMARK    1  A    between atoms: C_7  and  C_1 
REMARK       I    between atoms: C_6  and  N_9 
REMARK       I    between atoms: N_8  and  C_6 
REMARK    2  A    between atoms: N_9  and  C_7 
REMARK    3  A    between atoms: C_11  and  N_8 
ROOT
ATOM      1  C   UNL d   1     -57.399 -98.840 -45.415  0.00  0.00     0.369 C 
ATOM      2  N   UNL d   1     -58.226 -98.870 -45.356  0.00  0.00    -0.191 NA
ATOM      3  N   UNL d   1     -56.935 -98.785 -44.740  0.00  0.00    -0.189 NA
ATOM      4  O   UNL d   1     -57.038 -98.865 -46.159  0.00  0.00    -0.242 OA
ENDROOT
BRANCH   3   5
ATOM      5  C   UNL d   1     -56.116 -98.756 -44.803  0.00  0.00     0.107 C 
BRANCH   5   6
ATOM      6  C   UNL d   1     -55.655 -99.383 -44.502  0.00  0.00     0.058 A 
ATOM      7  C   UNL d   1     -55.245 -99.380 -43.784  0.00  0.00     0.104 A 
ATOM      8  N   UNL d   1     -54.862-100.111 -43.704  0.00  0.00    -0.165 NA
ATOM      9  C   UNL d   1     -55.220 -98.758 -43.243  0.00  0.00     0.023 C 
ATOM     10  N   UNL d   1     -55.038-100.562 -44.375  0.00  0.00    -0.225 N 
ATOM     11  C   UNL d   1     -55.526-100.115 -44.866  0.00  0.00     0.104 A 
ATOM     12  C   UNL d   1     -54.774-101.322 -44.524  0.00  0.00     0.121 C 
ENDBRANCH   5   6
ENDBRANCH   3   5
BRANCH   2  13
ATOM     13  C   UNL d   1     -58.574 -98.844 -44.615  0.00  0.00     0.086 A 
ATOM     14  C   UNL d   1     -58.112 -98.869 -43.932  0.00  0.00     0.020 A 
ATOM     15  C   UNL d   1     -58.481 -98.842 -43.193  0.00  0.00     0.013 A 
ATOM     16  C   UNL d   1     -59.295 -98.791 -43.130  0.00  0.00     0.058 A 
ATOM     17  C   UNL d   1     -59.745 -98.766 -43.813  0.00  0.00     0.013 A 
ATOM     18 CL   UNL d   1     -59.660 -98.764 -42.391  0.00  0.00    -0.082 Cl
ATOM     19  C   UNL d   1     -59.401 -98.792 -44.553  0.00  0.00     0.020 A 
ENDBRANCH   2  13
TORSDOF 3
ENDMDL
MODEL 2
REMARK VINA RESULT:      28.8      1.683      3.789
REMARK  3 active torsions:
REMARK  status: ('A' for Active; 'I' for Inactive)
REMARK    1  A    between atoms: C_7  and  C_1 
REMARK       I    between atoms: C_6  and  N_9 
REMARK       I    between atoms: N_8  and  C_6 
REMARK    2  A    between atoms: N_9  and  C_7 
REMARK    3  A    between atoms: C_11  and  N_8 
ROOT
ATOM      1  C   UNL d   1     -55.213 -99.456 -45.079  0.00  0.00     0.369 C 
ATOM      2  N   UNL d   1     -54.711-100.111 -44.993  0.00  0.00    -0.191 NA
ATOM      3  N   UNL d   1     -55.909 -99.406 -44.647  0.00  0.00    -0.189 NA
ATOM      4  O   UNL d   1     -55.012 -98.849 -45.604  0.00  0.00    -0.242 OA
ENDROOT
BRANCH   3   5
ATOM      5  C   UNL d   1     -56.404 -98.755 -44.736  0.00  0.00     0.107 C 
BRANCH   5   6
ATOM      6  C   UNL d   1     -57.180 -98.781 -44.431  0.00  0.00     0.058 A 
ATOM      7  C   UNL d   1     -57.875 -98.803 -44.878  0.00  0.00     0.104 A 
ATOM      8  N   UNL d   1     -58.518 -98.824 -44.355  0.00  0.00    -0.165 NA
ATOM      9  C   UNL d   1     -57.921 -98.804 -45.702  0.00  0.00     0.023 C 
ATOM     10  N   UNL d   1     -58.215 -98.814 -43.584  0.00  0.00    -0.225 N 
ATOM     11  C   UNL d   1     -57.392 -98.788 -43.631  0.00  0.00     0.104 A 
ATOM     12  C   UNL d   1     -58.657 -98.829 -42.896  0.00  0.00     0.121 C 
ENDBRANCH   5   6
ENDBRANCH   3   5
BRANCH   2  13
ATOM     13  C   UNL d   1     -54.919-100.706 -44.472  0.00  0.00     0.086 A 
ATOM     14  C   UNL d   1     -55.268-101.402 -44.745  0.00  0.00     0.020 A 
ATOM     15  C   UNL d   1     -55.471-101.993 -44.202  0.00  0.00     0.013 A 
ATOM     16  C   UNL d   1     -55.330-101.896 -43.402  0.00  0.00     0.058 A 
ATOM     17  C   UNL d   1     -54.984-101.203 -43.141  0.00  0.00     0.013 A 
ATOM     18 CL   UNL d   1     -55.534-102.488 -42.864  0.00  0.00    -0.082 Cl
ATOM     19  C   UNL d   1     -54.775-100.607 -43.659  0.00  0.00     0.020 A 
ENDBRANCH   2  13
TORSDOF 3
ENDMDL
