MODEL 1
REMARK VINA RESULT:      91.5      0.000      0.000
REMARK  5 active torsions:
REMARK  status: ('A' for Active; 'I' for Inactive)
REMARK    1  A    between atoms: C_2  and  C_1 
REMARK    2  A    between atoms: O_16  and  C_12 
REMARK    3  A    between atoms: C_21  and  C_14 
REMARK    4  A    between atoms: C_17  and  O_16 
REMARK    5  A    between atoms: C_24  and  C_21 
ROOT
ATOM      1  C   UNL d   1      58.680  49.244  50.668  0.00  0.00     0.086 A 
ATOM      2  C   UNL d   1      58.700  49.143  51.482  0.00  0.00     0.201 A 
ATOM      3  C   UNL d   1      59.429  49.262  51.892  0.00  0.00     0.062 A 
ATOM      4  C   UNL d   1      59.354  49.457  50.253  0.00  0.00     0.105 A 
ATOM      5  C   UNL d   1      60.122  49.481  51.465  0.00  0.00     0.105 A 
ATOM      6  O   UNL d   1      60.067  49.575  50.639  0.00  0.00    -0.307 OA
ATOM      7  C   UNL d   1      59.448  49.162  52.705  0.00  0.00     0.007 A 
ATOM      8  C   UNL d   1      60.815  49.594  51.863  0.00  0.00     0.050 A 
ATOM      9  C   UNL d   1      60.836  49.494  52.676  0.00  0.00     0.105 A 
ATOM     10  C   UNL d   1      60.161  49.281  53.091  0.00  0.00     0.023 A 
ATOM     11  O   UNL d   1      58.018  48.931  51.874  0.00  0.00    -0.286 OA
ATOM     12  C   UNL d   1      59.322  49.557  49.420  0.00  0.00     0.027 C 
ENDROOT
BRANCH   1  13
ATOM     13  C   UNL d   1      57.979  49.132  50.247  0.00  0.00     0.116 A 
ATOM     14  N   UNL d   1      57.312  48.649  50.380  0.00  0.00    -0.238 NA
ATOM     15  C   UNL d   1      56.778  48.767  49.773  0.00  0.00     0.088 A 
ATOM     16  C   UNL d   1      56.034  48.401  49.677  0.00  0.00     0.021 C 
ATOM     17  C   UNL d   1      57.083  49.302  49.269  0.00  0.00     0.056 A 
ATOM     18  S   UNL d   1      57.839  49.543  49.552  0.00  0.00    -0.066 SA
ENDBRANCH   1  13
BRANCH  10  19
ATOM     19  C   UNL d   1      60.233  49.188  53.935  0.00  0.00     0.002 C 
BRANCH  19  20
ATOM     20  C   UNL d   1      59.813  49.703  54.444  0.00  0.00     0.000 C 
ATOM     21  C   UNL d   1      59.143  49.438  54.845  0.00  0.00     0.000 C 
ENDBRANCH  19  20
ENDBRANCH  10  19
BRANCH   9  22
ATOM     22  O   UNL d   1      61.560  49.612  53.082  0.00  0.00    -0.273 OA
BRANCH  22  23
ATOM     23  C   UNL d   1      62.255  49.235  52.786  0.00  0.00     0.300 C 
ATOM     24  O   UNL d   1      62.852  49.707  52.522  0.00  0.00    -0.259 OA
ATOM     25  C   UNL d   1      62.292  48.384  52.780  0.00  0.00     0.074 C 
ENDBRANCH  22  23
ENDBRANCH   9  22
TORSDOF 5
ENDMDL
MODEL 2
REMARK VINA RESULT:      91.7      3.485      4.499
REMARK  5 active torsions:
REMARK  status: ('A' for Active; 'I' for Inactive)
REMARK    1  A    between atoms: C_2  and  C_1 
REMARK    2  A    between atoms: O_16  and  C_12 
REMARK    3  A    between atoms: C_21  and  C_14 
REMARK    4  A    between atoms: C_17  and  O_16 
REMARK    5  A    between atoms: C_24  and  C_21 
ROOT
ATOM      1  C   UNL d   1      61.402  45.705  50.483  0.00  0.00     0.086 A 
ATOM      2  C   UNL d   1      61.142  46.238  51.050  0.00  0.00     0.201 A 
ATOM      3  C   UNL d   1      61.058  47.052  50.839  0.00  0.00     0.062 A 
ATOM      4  C   UNL d   1      61.580  45.952  49.722  0.00  0.00     0.105 A 
ATOM      5  C   UNL d   1      61.240  47.306  50.056  0.00  0.00     0.105 A 
ATOM      6  O   UNL d   1      61.502  46.738  49.505  0.00  0.00    -0.307 OA
ATOM      7  C   UNL d   1      60.798  47.584  51.405  0.00  0.00     0.007 A 
ATOM      8  C   UNL d   1      61.158  48.084  49.860  0.00  0.00     0.050 A 
ATOM      9  C   UNL d   1      60.898  48.617  50.426  0.00  0.00     0.105 A 
ATOM     10  C   UNL d   1      60.720  48.371  51.187  0.00  0.00     0.023 A 
ATOM     11  O   UNL d   1      60.972  45.971  51.800  0.00  0.00    -0.286 OA
ATOM     12  C   UNL d   1      61.845  45.397  49.151  0.00  0.00     0.027 C 
ENDROOT
BRANCH   1  13
ATOM     13  C   UNL d   1      61.492  44.906  50.667  0.00  0.00     0.116 A 
ATOM     14  N   UNL d   1      62.164  44.418  50.753  0.00  0.00    -0.238 NA
ATOM     15  C   UNL d   1      61.916  43.663  50.942  0.00  0.00     0.088 A 
ATOM     16  C   UNL d   1      62.397  42.994  51.078  0.00  0.00     0.021 C 
ATOM     17  C   UNL d   1      61.122  43.659  50.977  0.00  0.00     0.056 A 
ATOM     18  S   UNL d   1      60.838  44.433  50.807  0.00  0.00    -0.066 SA
ENDBRANCH   1  13
BRANCH  10  19
ATOM     19  C   UNL d   1      60.454  48.963  51.739  0.00  0.00     0.002 C 
BRANCH  19  20
ATOM     20  C   UNL d   1      60.995  49.288  52.289  0.00  0.00     0.000 C 
ATOM     21  C   UNL d   1      60.721  49.704  52.947  0.00  0.00     0.000 C 
ENDBRANCH  19  20
ENDBRANCH  10  19
BRANCH   9  22
ATOM     22  O   UNL d   1      60.814  49.425  50.215  0.00  0.00    -0.273 OA
BRANCH  22  23
ATOM     23  C   UNL d   1      60.658  49.618  49.407  0.00  0.00     0.300 C 
ATOM     24  O   UNL d   1      61.290  49.707  48.917  0.00  0.00    -0.259 OA
ATOM     25  C   UNL d   1      59.850  49.706  49.153  0.00  0.00     0.074 C 
ENDBRANCH  22  23
ENDBRANCH   9  22
TORSDOF 5
ENDMDL
