MODEL 1
REMARK VINA RESULT:      -3.6      0.000      0.000
REMARK  2 active torsions:
REMARK  status: ('A' for Active; 'I' for Inactive)
REMARK       I    between atoms: N_2  and  C_1 
REMARK    1  A    between atoms: C_4  and  C_1 
REMARK    2  A    between atoms: C_7  and  N_3 
ROOT
ATOM      1  C   UNL d   1      32.922  18.723 -24.058  0.00  0.00     0.265 C 
ATOM      2  N   UNL d   1      32.962  19.279 -23.453  0.00  0.00    -0.269 N 
ATOM      3  N   UNL d   1      33.043  20.398 -22.239  0.00  0.00    -0.301 N 
ATOM      4  C   UNL d   1      33.202  20.054 -23.623  0.00  0.00     0.102 A 
ATOM      5  C   UNL d   1      32.764  19.060 -22.681  0.00  0.00     0.102 A 
ATOM      6  C   UNL d   1      32.804  19.617 -22.080  0.00  0.00     0.100 A 
ATOM      7  C   UNL d   1      33.240  20.609 -23.013  0.00  0.00     0.100 A 
ATOM      8  O   UNL d   1      33.120  18.937 -24.832  0.00  0.00    -0.267 OA
ENDROOT
BRANCH   1   9
ATOM      9  C   UNL d   1      32.683  17.948 -23.889  0.00  0.00     0.059 A 
ATOM     10  C   UNL d   1      31.892  17.737 -23.986  0.00  0.00     0.031 A 
ATOM     11  C   UNL d   1      31.638  16.958 -23.818  0.00  0.00     0.119 A 
ATOM     12  O   UNL d   1      30.900  16.586 -23.860  0.00  0.00    -0.300 OA
ATOM     13  C   UNL d   1      32.194  16.390 -23.549  0.00  0.00     0.119 A 
ATOM     14  C   UNL d   1      30.993  15.793 -23.620  0.00  0.00     0.304 A 
ATOM     15  O   UNL d   1      31.796  15.670 -23.427  0.00  0.00    -0.300 OA
ATOM     16  C   UNL d   1      32.995  16.609 -23.452  0.00  0.00     0.026 A 
ATOM     17  C   UNL d   1      33.240  17.379 -23.619  0.00  0.00     0.007 A 
ENDBRANCH   1   9
BRANCH   3  18
ATOM     18  C   UNL d   1      33.082  20.952 -21.630  0.00  0.00     0.064 A 
ATOM     19  C   UNL d   1      33.192  20.697 -20.856  0.00  0.00     0.018 A 
ATOM     20  C   UNL d   1      33.230  21.253 -20.254  0.00  0.00     0.013 A 
ATOM     21  C   UNL d   1      33.158  22.057 -20.425  0.00  0.00     0.058 A 
ATOM     22  C   UNL d   1      33.047  22.302 -21.207  0.00  0.00     0.013 A 
ATOM     23 CL   UNL d   1      33.197  22.611 -19.815  0.00  0.00    -0.082 Cl
ATOM     24  C   UNL d   1      33.010  21.748 -21.803  0.00  0.00     0.018 A 
ENDBRANCH   3  18
TORSDOF 2
ENDMDL
MODEL 2
REMARK VINA RESULT:      -2.8      1.268      2.075
REMARK  2 active torsions:
REMARK  status: ('A' for Active; 'I' for Inactive)
REMARK       I    between atoms: N_2  and  C_1 
REMARK    1  A    between atoms: C_4  and  C_1 
REMARK    2  A    between atoms: C_7  and  N_3 
ROOT
ATOM      1  C   UNL d   1      32.341  16.595 -23.271  0.00  0.00     0.265 C 
ATOM      2  N   UNL d   1      32.470  17.389 -23.095  0.00  0.00    -0.269 N 
ATOM      3  N   UNL d   1      32.732  18.981 -22.740  0.00  0.00    -0.301 N 
ATOM      4  C   UNL d   1      33.103  17.602 -22.603  0.00  0.00     0.102 A 
ATOM      5  C   UNL d   1      31.969  17.965 -23.410  0.00  0.00     0.102 A 
ATOM      6  C   UNL d   1      32.100  18.756 -23.233  0.00  0.00     0.100 A 
ATOM      7  C   UNL d   1      33.228  18.399 -22.429  0.00  0.00     0.100 A 
ATOM      8  O   UNL d   1      32.840  16.014 -22.959  0.00  0.00    -0.267 OA
ENDROOT
BRANCH   1   9
ATOM      9  C   UNL d   1      31.709  16.381 -23.763  0.00  0.00     0.059 A 
ATOM     10  C   UNL d   1      30.995  16.145 -23.425  0.00  0.00     0.031 A 
ATOM     11  C   UNL d   1      30.350  15.927 -23.910  0.00  0.00     0.119 A 
ATOM     12  O   UNL d   1      29.580  15.672 -23.742  0.00  0.00    -0.300 OA
ATOM     13  C   UNL d   1      30.433  15.949 -24.746  0.00  0.00     0.119 A 
ATOM     14  C   UNL d   1      29.187  15.536 -24.464  0.00  0.00     0.304 A 
ATOM     15  O   UNL d   1      29.715  15.707 -25.088  0.00  0.00    -0.300 OA
ATOM     16  C   UNL d   1      31.160  16.188 -25.082  0.00  0.00     0.026 A 
ATOM     17  C   UNL d   1      31.793  16.403 -24.598  0.00  0.00     0.007 A 
ENDBRANCH   1   9
BRANCH   3  18
ATOM     18  C   UNL d   1      32.858  19.778 -22.566  0.00  0.00     0.064 A 
ATOM     19  C   UNL d   1      32.724  20.051 -21.801  0.00  0.00     0.018 A 
ATOM     20  C   UNL d   1      32.851  20.844 -21.634  0.00  0.00     0.013 A 
ATOM     21  C   UNL d   1      33.110  21.358 -22.225  0.00  0.00     0.058 A 
ATOM     22  C   UNL d   1      33.241  21.072 -22.990  0.00  0.00     0.013 A 
ATOM     23 CL   UNL d   1      33.236  22.154 -22.051  0.00  0.00    -0.082 Cl
ATOM     24  C   UNL d   1      33.114  20.284 -23.154  0.00  0.00     0.018 A 
ENDBRANCH   3  18
TORSDOF 2
ENDMDL
MODEL 3
REMARK VINA RESULT:      -2.2      2.893      5.430
REMARK  2 active torsions:
REMARK  status: ('A' for Active; 'I' for Inactive)
REMARK       I    between atoms: N_2  and  C_1 
REMARK    1  A    between atoms: C_4  and  C_1 
REMARK    2  A    between atoms: C_7  and  N_3 
ROOT
ATOM      1  C   UNL d   1      32.410  17.033 -24.233  0.00  0.00     0.265 C 
ATOM      2  N   UNL d   1      31.619  16.806 -24.219  0.00  0.00    -0.269 N 
ATOM      3  N   UNL d   1      30.032  16.346 -24.190  0.00  0.00    -0.301 N 
ATOM      4  C   UNL d   1      31.415  16.021 -24.392  0.00  0.00     0.102 A 
ATOM      5  C   UNL d   1      31.036  17.360 -24.032  0.00  0.00     0.102 A 
ATOM      6  C   UNL d   1      30.248  17.130 -24.018  0.00  0.00     0.100 A 
ATOM      7  C   UNL d   1      30.621  15.797 -24.376  0.00  0.00     0.100 A 
ATOM      8  O   UNL d   1      32.997  16.481 -24.420  0.00  0.00    -0.267 OA
ENDROOT
BRANCH   1   9
ATOM      9  C   UNL d   1      32.615  17.817 -24.061  0.00  0.00     0.059 A 
ATOM     10  C   UNL d   1      32.709  18.048 -23.274  0.00  0.00     0.031 A 
ATOM     11  C   UNL d   1      32.915  18.836 -23.086  0.00  0.00     0.119 A 
ATOM     12  O   UNL d   1      33.046  19.227 -22.369  0.00  0.00    -0.300 OA
ATOM     13  C   UNL d   1      33.027  19.394 -23.704  0.00  0.00     0.119 A 
ATOM     14  C   UNL d   1      33.238  20.021 -22.537  0.00  0.00     0.304 A 
ATOM     15  O   UNL d   1      33.226  20.126 -23.365  0.00  0.00    -0.300 OA
ATOM     16  C   UNL d   1      32.931  19.154 -24.500  0.00  0.00     0.026 A 
ATOM     17  C   UNL d   1      32.727  18.375 -24.678  0.00  0.00     0.007 A 
ENDBRANCH   1   9
BRANCH   3  18
ATOM     18  C   UNL d   1      29.239  16.121 -24.174  0.00  0.00     0.064 A 
ATOM     19  C   UNL d   1      28.896  15.798 -24.849  0.00  0.00     0.018 A 
ATOM     20  C   UNL d   1      28.106  15.577 -24.827  0.00  0.00     0.013 A 
ATOM     21  C   UNL d   1      27.664  15.677 -24.138  0.00  0.00     0.058 A 
ATOM     22  C   UNL d   1      28.019  16.003 -23.466  0.00  0.00     0.013 A 
ATOM     23 CL   UNL d   1      26.871  15.453 -24.122  0.00  0.00    -0.082 Cl
ATOM     24  C   UNL d   1      28.804  16.222 -23.489  0.00  0.00     0.018 A 
ENDBRANCH   3  18
TORSDOF 2
ENDMDL
MODEL 4
REMARK VINA RESULT:      -1.6      2.750      5.177
REMARK  2 active torsions:
REMARK  status: ('A' for Active; 'I' for Inactive)
REMARK       I    between atoms: N_2  and  C_1 
REMARK    1  A    between atoms: C_4  and  C_1 
REMARK    2  A    between atoms: C_7  and  N_3 
ROOT
ATOM      1  C   UNL d   1      32.661  18.078 -24.005  0.00  0.00     0.265 C 
ATOM      2  N   UNL d   1      31.932  17.702 -24.073  0.00  0.00    -0.269 N 
ATOM      3  N   UNL d   1      30.469  16.945 -24.212  0.00  0.00    -0.301 N 
ATOM      4  C   UNL d   1      31.782  17.214 -24.726  0.00  0.00     0.102 A 
ATOM      5  C   UNL d   1      31.357  17.813 -23.490  0.00  0.00     0.102 A 
ATOM      6  C   UNL d   1      30.631  17.437 -23.561  0.00  0.00     0.100 A 
ATOM      7  C   UNL d   1      31.049  16.839 -24.791  0.00  0.00     0.100 A 
ATOM      8  O   UNL d   1      33.240  17.969 -24.585  0.00  0.00    -0.267 OA
ENDROOT
BRANCH   1   9
ATOM      9  C   UNL d   1      32.812  18.566 -23.352  0.00  0.00     0.059 A 
ATOM     10  C   UNL d   1      32.794  19.385 -23.445  0.00  0.00     0.031 A 
ATOM     11  C   UNL d   1      32.944  19.888 -22.794  0.00  0.00     0.119 A 
ATOM     12  O   UNL d   1      32.966  20.711 -22.713  0.00  0.00    -0.300 OA
ATOM     13  C   UNL d   1      33.115  19.554 -22.043  0.00  0.00     0.119 A 
ATOM     14  C   UNL d   1      33.148  20.890 -21.919  0.00  0.00     0.304 A 
ATOM     15  O   UNL d   1      33.241  20.173 -21.502  0.00  0.00    -0.300 OA
ATOM     16  C   UNL d   1      33.132  18.722 -21.954  0.00  0.00     0.026 A 
ATOM     17  C   UNL d   1      32.982  18.231 -22.600  0.00  0.00     0.007 A 
ENDBRANCH   1   9
BRANCH   3  18
ATOM     18  C   UNL d   1      29.738  16.570 -24.277  0.00  0.00     0.064 A 
ATOM     19  C   UNL d   1      29.492  16.056 -23.683  0.00  0.00     0.018 A 
ATOM     20  C   UNL d   1      28.764  15.686 -23.754  0.00  0.00     0.013 A 
ATOM     21  C   UNL d   1      28.286  15.828 -24.410  0.00  0.00     0.058 A 
ATOM     22  C   UNL d   1      28.543  16.347 -25.001  0.00  0.00     0.013 A 
ATOM     23 CL   UNL d   1      27.554  15.453 -24.475  0.00  0.00    -0.082 Cl
ATOM     24  C   UNL d   1      29.267  16.714 -24.929  0.00  0.00     0.018 A 
ENDBRANCH   3  18
TORSDOF 2
ENDMDL
MODEL 5
REMARK VINA RESULT:      -1.5      2.591      5.044
REMARK  2 active torsions:
REMARK  status: ('A' for Active; 'I' for Inactive)
REMARK       I    between atoms: N_2  and  C_1 
REMARK    1  A    between atoms: C_4  and  C_1 
REMARK    2  A    between atoms: C_7  and  N_3 
ROOT
ATOM      1  C   UNL d   1      32.995  21.291 -22.660  0.00  0.00     0.265 C 
ATOM      2  N   UNL d   1      32.908  20.483 -22.787  0.00  0.00    -0.269 N 
ATOM      3  N   UNL d   1      32.735  18.860 -23.045  0.00  0.00    -0.301 N 
ATOM      4  C   UNL d   1      33.069  20.166 -23.536  0.00  0.00     0.102 A 
ATOM      5  C   UNL d   1      32.662  19.994 -22.168  0.00  0.00     0.102 A 
ATOM      6  C   UNL d   1      32.577  19.188 -22.298  0.00  0.00     0.100 A 
ATOM      7  C   UNL d   1      32.981  19.354 -23.659  0.00  0.00     0.100 A 
ATOM      8  O   UNL d   1      33.241  21.784 -23.277  0.00  0.00    -0.267 OA
ENDROOT
BRANCH   1   9
ATOM      9  C   UNL d   1      32.834  21.609 -21.912  0.00  0.00     0.059 A 
ATOM     10  C   UNL d   1      32.382  22.296 -21.852  0.00  0.00     0.031 A 
ATOM     11  C   UNL d   1      32.213  22.626 -21.102  0.00  0.00     0.119 A 
ATOM     12  O   UNL d   1      31.786  23.294 -20.866  0.00  0.00    -0.300 OA
ATOM     13  C   UNL d   1      32.506  22.254 -20.409  0.00  0.00     0.119 A 
ATOM     14  C   UNL d   1      31.811  23.339 -20.033  0.00  0.00     0.304 A 
ATOM     15  O   UNL d   1      32.258  22.694 -19.749  0.00  0.00    -0.300 OA
ATOM     16  C   UNL d   1      32.964  21.557 -20.476  0.00  0.00     0.026 A 
ATOM     17  C   UNL d   1      33.127  21.236 -21.218  0.00  0.00     0.007 A 
ENDBRANCH   1   9
BRANCH   3  18
ATOM     18  C   UNL d   1      32.647  18.049 -23.169  0.00  0.00     0.064 A 
ATOM     19  C   UNL d   1      33.241  17.535 -22.922  0.00  0.00     0.018 A 
ATOM     20  C   UNL d   1      33.148  16.730 -23.048  0.00  0.00     0.013 A 
ATOM     21  C   UNL d   1      32.469  16.441 -23.417  0.00  0.00     0.058 A 
ATOM     22  C   UNL d   1      31.879  16.967 -23.660  0.00  0.00     0.013 A 
ATOM     23 CL   UNL d   1      32.381  15.630 -23.540  0.00  0.00    -0.082 Cl
ATOM     24  C   UNL d   1      31.973  17.767 -23.535  0.00  0.00     0.018 A 
ENDBRANCH   3  18
TORSDOF 2
ENDMDL
