MODEL 1
REMARK VINA RESULT:       7.0      0.000      0.000
REMARK  4 active torsions:
REMARK  status: ('A' for Active; 'I' for Inactive)
REMARK    1  A    between atoms: C_6  and  C_2 
REMARK    2  A    between atoms: C_7  and  C_5 
REMARK    3  A    between atoms: O_8  and  C_7 
REMARK    4  A    between atoms: C_9  and  O_8 
ROOT
ATOM      1  N   UNL d   1      45.241 -15.615  44.954  0.00  0.00    -0.121 NA
ATOM      2  C   UNL d   1      45.605 -15.142  44.393  0.00  0.00     0.204 A 
ATOM      3  O   UNL d   1      46.016 -15.640  43.870  0.00  0.00    -0.267 OA
ATOM      4  N   UNL d   1      45.420 -16.403  44.787  0.00  0.00    -0.119 NA
ATOM      5  C   UNL d   1      45.900 -16.419  44.116  0.00  0.00     0.230 A 
ENDROOT
BRANCH   5   6
ATOM      6  C   UNL d   1      46.206 -17.096  43.759  0.00  0.00     0.169 C 
BRANCH   6   7
ATOM      7  O   UNL d   1      46.247 -17.807  44.181  0.00  0.00    -0.301 OA
BRANCH   7   8
ATOM      8  C   UNL d   1      46.379 -18.516  43.773  0.00  0.00     0.100 A 
ATOM      9  C   UNL d   1      46.463 -18.513  42.952  0.00  0.00     0.025 A 
ATOM     10  C   UNL d   1      46.594 -19.220  42.553  0.00  0.00     0.002 A 
ATOM     11  C   UNL d   1      46.642 -19.930  42.969  0.00  0.00     0.000 A 
ATOM     12  C   UNL d   1      46.557 -19.930  43.793  0.00  0.00     0.002 A 
ATOM     13  C   UNL d   1      46.425 -19.225  44.203  0.00  0.00     0.025 A 
ENDBRANCH   7   8
ENDBRANCH   6   7
ENDBRANCH   5   6
BRANCH   2  14
ATOM     14  C   UNL d   1      45.573 -14.318  44.350  0.00  0.00     0.043 A 
ATOM     15  C   UNL d   1      45.901 -13.859  44.955  0.00  0.00     0.004 A 
ATOM     16  C   UNL d   1      45.869 -13.036  44.912  0.00  0.00     0.000 A 
ATOM     17  C   UNL d   1      45.510 -12.672  44.265  0.00  0.00     0.000 A 
ATOM     18  C   UNL d   1      45.183 -13.131  43.660  0.00  0.00     0.000 A 
ATOM     19  C   UNL d   1      45.215 -13.954  43.703  0.00  0.00     0.004 A 
ENDBRANCH   2  14
TORSDOF 4
ENDMDL
MODEL 2
REMARK VINA RESULT:       7.5      0.794      4.981
REMARK  4 active torsions:
REMARK  status: ('A' for Active; 'I' for Inactive)
REMARK    1  A    between atoms: C_6  and  C_2 
REMARK    2  A    between atoms: C_7  and  C_5 
REMARK    3  A    between atoms: O_8  and  C_7 
REMARK    4  A    between atoms: C_9  and  O_8 
ROOT
ATOM      1  N   UNL d   1      46.527 -18.073  44.704  0.00  0.00    -0.121 NA
ATOM      2  C   UNL d   1      46.307 -18.200  43.924  0.00  0.00     0.204 A 
ATOM      3  O   UNL d   1      45.991 -17.488  43.633  0.00  0.00    -0.267 OA
ATOM      4  N   UNL d   1      46.351 -17.292  44.902  0.00  0.00    -0.119 NA
ATOM      5  C   UNL d   1      46.019 -16.930  44.239  0.00  0.00     0.230 A 
ENDROOT
BRANCH   5   6
ATOM      6  C   UNL d   1      45.764 -16.147  44.196  0.00  0.00     0.169 C 
BRANCH   6   7
ATOM      7  O   UNL d   1      45.983 -15.604  44.781  0.00  0.00    -0.301 OA
BRANCH   7   8
ATOM      8  C   UNL d   1      45.746 -14.813  44.713  0.00  0.00     0.100 A 
ATOM      9  C   UNL d   1      44.955 -14.628  44.572  0.00  0.00     0.025 A 
ATOM     10  C   UNL d   1      44.725 -13.841  44.506  0.00  0.00     0.002 A 
ATOM     11  C   UNL d   1      45.282 -13.238  44.580  0.00  0.00     0.000 A 
ATOM     12  C   UNL d   1      46.076 -13.427  44.721  0.00  0.00     0.002 A 
ATOM     13  C   UNL d   1      46.316 -14.214  44.789  0.00  0.00     0.025 A 
ENDBRANCH   7   8
ENDBRANCH   6   7
ENDBRANCH   5   6
BRANCH   2  14
ATOM     14  C   UNL d   1      46.383 -18.903  43.500  0.00  0.00     0.043 A 
ATOM     15  C   UNL d   1      46.571 -18.883  42.695  0.00  0.00     0.004 A 
ATOM     16  C   UNL d   1      46.647 -19.586  42.271  0.00  0.00     0.000 A 
ATOM     17  C   UNL d   1      46.536 -20.310  42.652  0.00  0.00     0.000 A 
ATOM     18  C   UNL d   1      46.348 -20.330  43.457  0.00  0.00     0.000 A 
ATOM     19  C   UNL d   1      46.272 -19.626  43.881  0.00  0.00     0.004 A 
ENDBRANCH   2  14
TORSDOF 4
ENDMDL
