MODEL 1
REMARK VINA RESULT:      -1.1      0.000      0.000
REMARK  6 active torsions:
REMARK  status: ('A' for Active; 'I' for Inactive)
REMARK    1  A    between atoms: C_7  and  C_1 
REMARK    2  A    between atoms: C_10  and  C_2 
REMARK    3  A    between atoms: C_8  and  C_7 
REMARK    4  A    between atoms: C_9  and  C_8 
REMARK    5  A    between atoms: C_13  and  C_9 
REMARK    6  A    between atoms: O_20  and  C_16 
ROOT
ATOM      1  C   UNL d   1      58.297  -1.306  29.949  0.00  0.00     0.097 A 
ATOM      2  C   UNL d   1      59.040  -1.369  29.597  0.00  0.00     0.009 A 
ATOM      3  C   UNL d   1      57.848  -1.989  30.087  0.00  0.00     0.282 A 
ATOM      4  C   UNL d   1      59.341  -2.108  29.380  0.00  0.00     0.018 A 
ATOM      5  N   UNL d   1      58.154  -2.717  29.868  0.00  0.00    -0.208 NA
ATOM      6  C   UNL d   1      58.892  -2.791  29.518  0.00  0.00     0.085 A 
ATOM      7  C   UNL d   1      60.073  -2.162  29.034  0.00  0.00     0.008 A 
ATOM      8  O   UNL d   1      57.105  -1.934  30.438  0.00  0.00    -0.265 OA
ATOM      9  C   UNL d   1      59.187  -3.510  29.305  0.00  0.00     0.020 A 
ATOM     10  C   UNL d   1      60.377  -2.903  28.815  0.00  0.00     0.035 A 
ATOM     11  C   UNL d   1      59.928  -3.586  28.953  0.00  0.00     0.008 A 
ATOM     12 BR   UNL d   1      61.133  -2.976  28.456  0.00  0.00    -0.049 Br
ENDROOT
BRANCH   1  13
ATOM     13  C   UNL d   1      57.980  -0.556  30.175  0.00  0.00     0.200 C 
ATOM     14  O   UNL d   1      57.591  -0.103  29.611  0.00  0.00    -0.286 OA
BRANCH  13  15
ATOM     15  C   UNL d   1      58.057  -0.284  30.936  0.00  0.00     0.042 C 
BRANCH  15  16
ATOM     16  C   UNL d   1      57.384  -0.103  31.385  0.00  0.00     0.005 C 
BRANCH  16  17
ATOM     17  C   UNL d   1      57.455   0.147  32.157  0.00  0.00     0.022 A 
ATOM     18  C   UNL d   1      56.802   0.107  32.646  0.00  0.00     0.094 A 
ATOM     19  C   UNL d   1      56.865   0.360  33.437  0.00  0.00     0.024 A 
ATOM     20  C   UNL d   1      57.592   0.646  33.702  0.00  0.00     0.002 A 
ATOM     21  C   UNL d   1      58.235   0.682  33.207  0.00  0.00     0.000 A 
ATOM     22  C   UNL d   1      58.174   0.436  32.440  0.00  0.00     0.002 A 
BRANCH  18  23
ATOM     23  O   UNL d   1      56.071  -0.180  32.381  0.00  0.00    -0.328 OA
ATOM     24  C   UNL d   1      55.373   0.107  32.703  0.00  0.00     0.181 C 
ENDBRANCH  18  23
ENDBRANCH  16  17
ENDBRANCH  15  16
ENDBRANCH  13  15
ENDBRANCH   1  13
BRANCH   2  25
ATOM     25  C   UNL d   1      59.497  -0.675  29.457  0.00  0.00     0.000 A 
ATOM     26  C   UNL d   1      60.120  -0.482  29.966  0.00  0.00     0.000 A 
ATOM     27  C   UNL d   1      60.571   0.203  29.828  0.00  0.00     0.000 A 
ATOM     28  C   UNL d   1      60.387   0.678  29.184  0.00  0.00     0.000 A 
ATOM     29  C   UNL d   1      59.762   0.481  28.677  0.00  0.00     0.000 A 
ATOM     30  C   UNL d   1      59.321  -0.189  28.812  0.00  0.00     0.000 A 
ENDBRANCH   2  25
TORSDOF 6
ENDMDL
MODEL 2
REMARK VINA RESULT:       1.9      1.836      2.778
REMARK  6 active torsions:
REMARK  status: ('A' for Active; 'I' for Inactive)
REMARK    1  A    between atoms: C_7  and  C_1 
REMARK    2  A    between atoms: C_10  and  C_2 
REMARK    3  A    between atoms: C_8  and  C_7 
REMARK    4  A    between atoms: C_9  and  C_8 
REMARK    5  A    between atoms: C_13  and  C_9 
REMARK    6  A    between atoms: O_20  and  C_16 
ROOT
ATOM      1  C   UNL d   1      58.103   0.304  31.288  0.00  0.00     0.097 A 
ATOM      2  C   UNL d   1      58.559   0.173  30.614  0.00  0.00     0.009 A 
ATOM      3  C   UNL d   1      58.470   0.537  31.994  0.00  0.00     0.282 A 
ATOM      4  C   UNL d   1      59.379   0.271  30.635  0.00  0.00     0.018 A 
ATOM      5  N   UNL d   1      59.283   0.632  32.006  0.00  0.00    -0.208 NA
ATOM      6  C   UNL d   1      59.747   0.503  31.341  0.00  0.00     0.085 A 
ATOM      7  C   UNL d   1      59.822   0.139  29.968  0.00  0.00     0.008 A 
ATOM      8  O   UNL d   1      58.021   0.671  32.671  0.00  0.00    -0.265 OA
ATOM      9  C   UNL d   1      60.546   0.598  31.360  0.00  0.00     0.020 A 
ATOM     10  C   UNL d   1      60.646   0.237  29.988  0.00  0.00     0.035 A 
ATOM     11  C   UNL d   1      61.013   0.470  30.693  0.00  0.00     0.008 A 
ATOM     12 BR   UNL d   1      61.118   0.105  29.305  0.00  0.00    -0.049 Br
ENDROOT
BRANCH   1  13
ATOM     13  C   UNL d   1      57.263   0.207  31.277  0.00  0.00     0.200 C 
ATOM     14  O   UNL d   1      56.816   0.677  30.774  0.00  0.00    -0.286 OA
BRANCH  13  15
ATOM     15  C   UNL d   1      56.902  -0.341  31.754  0.00  0.00     0.042 C 
BRANCH  15  16
ATOM     16  C   UNL d   1      56.215  -0.142  32.173  0.00  0.00     0.005 C 
BRANCH  16  17
ATOM     17  C   UNL d   1      55.913  -0.645  32.739  0.00  0.00     0.022 A 
ATOM     18  C   UNL d   1      55.363  -0.357  33.269  0.00  0.00     0.094 A 
ATOM     19  C   UNL d   1      55.048  -0.863  33.851  0.00  0.00     0.024 A 
ATOM     20  C   UNL d   1      55.307  -1.647  33.871  0.00  0.00     0.002 A 
ATOM     21  C   UNL d   1      55.854  -1.922  33.339  0.00  0.00     0.000 A 
ATOM     22  C   UNL d   1      56.159  -1.432  32.775  0.00  0.00     0.002 A 
BRANCH  18  23
ATOM     23  O   UNL d   1      55.102   0.430  33.249  0.00  0.00    -0.328 OA
ATOM     24  C   UNL d   1      54.361   0.627  33.539  0.00  0.00     0.181 C 
ENDBRANCH  18  23
ENDBRANCH  16  17
ENDBRANCH  15  16
ENDBRANCH  13  15
ENDBRANCH   1  13
BRANCH   2  25
ATOM     25  C   UNL d   1      58.186  -0.064  29.896  0.00  0.00     0.000 A 
ATOM     26  C   UNL d   1      58.098  -0.869  29.724  0.00  0.00     0.000 A 
ATOM     27  C   UNL d   1      57.730  -1.103  29.015  0.00  0.00     0.000 A 
ATOM     28  C   UNL d   1      57.458  -0.525  28.498  0.00  0.00     0.000 A 
ATOM     29  C   UNL d   1      57.548   0.279  28.675  0.00  0.00     0.000 A 
ATOM     30  C   UNL d   1      57.909   0.507  29.368  0.00  0.00     0.000 A 
ENDBRANCH   2  25
TORSDOF 6
ENDMDL
