MODEL 1
REMARK VINA RESULT:      73.7      0.000      0.000
REMARK  6 active torsions:
REMARK  status: ('A' for Active; 'I' for Inactive)
REMARK    1  A    between atoms: C_3  and  N_1 
REMARK    2  A    between atoms: N_7  and  C_3 
REMARK    3  A    between atoms: C_9  and  C_4 
REMARK    4  A    between atoms: C_10  and  C_5 
REMARK    5  A    between atoms: C_15  and  N_7 
REMARK    6  A    between atoms: O_23  and  C_17 
ROOT
ATOM      1  N   UNL d   1      14.033  14.388  -3.578  0.00  0.00    -0.203 N 
ATOM      2  N   UNL d   1      14.149  15.134  -3.944  0.00  0.00    -0.163 NA
ATOM      3  C   UNL d   1      14.522  15.621  -3.400  0.00  0.00     0.103 A 
ATOM      4  C   UNL d   1      14.341  14.431  -2.805  0.00  0.00     0.087 A 
ATOM      5  C   UNL d   1      14.646  15.220  -2.711  0.00  0.00     0.040 A 
ENDROOT
BRANCH   1   6
ATOM      6  C   UNL d   1      13.671  13.712  -3.923  0.00  0.00     0.222 C 
ATOM      7  S   UNL d   1      12.855  13.648  -3.908  0.00  0.00    -0.037 SA
BRANCH   6   8
ATOM      8  N   UNL d   1      14.136  13.130  -4.270  0.00  0.00    -0.217 NA
BRANCH   8   9
ATOM      9  C   UNL d   1      13.840  12.682  -4.891  0.00  0.00     0.084 A 
ATOM     10  C   UNL d   1      13.143  12.239  -4.768  0.00  0.00     0.019 A 
ATOM     11  C   UNL d   1      12.844  11.787  -5.391  0.00  0.00     0.002 A 
ATOM     12  C   UNL d   1      13.233  11.789  -6.097  0.00  0.00     0.000 A 
ATOM     13  C   UNL d   1      13.913  12.222  -6.215  0.00  0.00     0.002 A 
ATOM     14  C   UNL d   1      14.216  12.668  -5.615  0.00  0.00     0.019 A 
ENDBRANCH   8   9
ENDBRANCH   6   8
ENDBRANCH   1   6
BRANCH   4  15
ATOM     15  C   UNL d   1      14.366  13.845  -2.212  0.00  0.00     0.018 A 
ATOM     16  C   UNL d   1      15.062  13.690  -1.800  0.00  0.00     0.004 A 
ATOM     17  C   UNL d   1      15.075  13.107  -1.214  0.00  0.00     0.024 A 
ATOM     18  C   UNL d   1      14.414  12.686  -1.039  0.00  0.00     0.094 A 
ATOM     19  C   UNL d   1      13.692  12.835  -1.455  0.00  0.00     0.024 A 
ATOM     20  C   UNL d   1      13.686  13.416  -2.036  0.00  0.00     0.004 A 
BRANCH  18  21
ATOM     21  O   UNL d   1      14.468  12.094  -0.429  0.00  0.00    -0.328 OA
ATOM     22  C   UNL d   1      13.776  11.830  -0.035  0.00  0.00     0.181 C 
ENDBRANCH  18  21
ENDBRANCH   4  15
BRANCH   3  23
ATOM     23  C   UNL d   1      14.723  16.404  -3.576  0.00  0.00     0.019 A 
ATOM     24  C   UNL d   1      14.850  16.645  -4.343  0.00  0.00     0.002 A 
ATOM     25  C   UNL d   1      15.050  17.424  -4.518  0.00  0.00     0.007 A 
ATOM     26  C   UNL d   1      15.122  17.970  -3.902  0.00  0.00     0.035 A 
ATOM     27  C   UNL d   1      14.994  17.732  -3.117  0.00  0.00     0.007 A 
ATOM     28 BR   UNL d   1      15.322  18.759  -4.060  0.00  0.00    -0.049 Br
ATOM     29  C   UNL d   1      14.793  16.948  -2.941  0.00  0.00     0.002 A 
ENDBRANCH   3  23
TORSDOF 6
ENDMDL
MODEL 2
REMARK VINA RESULT:      75.7      1.870      3.700
REMARK  6 active torsions:
REMARK  status: ('A' for Active; 'I' for Inactive)
REMARK    1  A    between atoms: C_3  and  N_1 
REMARK    2  A    between atoms: N_7  and  C_3 
REMARK    3  A    between atoms: C_9  and  C_4 
REMARK    4  A    between atoms: C_10  and  C_5 
REMARK    5  A    between atoms: C_15  and  N_7 
REMARK    6  A    between atoms: O_23  and  C_17 
ROOT
ATOM      1  N   UNL d   1      14.383  15.889  -3.634  0.00  0.00    -0.203 N 
ATOM      2  N   UNL d   1      14.530  16.677  -3.883  0.00  0.00    -0.163 NA
ATOM      3  C   UNL d   1      14.265  16.745  -4.656  0.00  0.00     0.103 A 
ATOM      4  C   UNL d   1      14.026  15.482  -4.267  0.00  0.00     0.087 A 
ATOM      5  C   UNL d   1      13.960  16.041  -4.905  0.00  0.00     0.040 A 
ENDROOT
BRANCH   1   6
ATOM      6  C   UNL d   1      14.561  15.561  -2.880  0.00  0.00     0.222 C 
ATOM      7  S   UNL d   1      14.832  14.791  -2.837  0.00  0.00    -0.037 SA
BRANCH   6   8
ATOM      8  N   UNL d   1      14.462  16.016  -2.202  0.00  0.00    -0.217 NA
BRANCH   8   9
ATOM      9  C   UNL d   1      14.810  15.782  -1.495  0.00  0.00     0.084 A 
ATOM     10  C   UNL d   1      15.275  16.334  -1.077  0.00  0.00     0.019 A 
ATOM     11  C   UNL d   1      15.625  16.101  -0.367  0.00  0.00     0.002 A 
ATOM     12  C   UNL d   1      15.507  15.349  -0.101  0.00  0.00     0.000 A 
ATOM     13  C   UNL d   1      15.053  14.812  -0.511  0.00  0.00     0.002 A 
ATOM     14  C   UNL d   1      14.705  15.027  -1.206  0.00  0.00     0.019 A 
ENDBRANCH   8   9
ENDBRANCH   6   8
ENDBRANCH   1   6
BRANCH   4  15
ATOM     15  C   UNL d   1      13.770  14.690  -4.310  0.00  0.00     0.018 A 
ATOM     16  C   UNL d   1      14.238  14.113  -4.667  0.00  0.00     0.004 A 
ATOM     17  C   UNL d   1      13.974  13.330  -4.704  0.00  0.00     0.024 A 
ATOM     18  C   UNL d   1      13.263  13.122  -4.394  0.00  0.00     0.094 A 
ATOM     19  C   UNL d   1      12.773  13.704  -4.024  0.00  0.00     0.024 A 
ATOM     20  C   UNL d   1      13.041  14.481  -3.991  0.00  0.00     0.004 A 
BRANCH  18  21
ATOM     21  O   UNL d   1      13.027  12.305  -4.452  0.00  0.00    -0.328 OA
ATOM     22  C   UNL d   1      13.172  11.779  -3.814  0.00  0.00     0.181 C 
ENDBRANCH  18  21
ENDBRANCH   4  15
BRANCH   3  23
ATOM     23  C   UNL d   1      14.323  17.453  -5.080  0.00  0.00     0.019 A 
ATOM     24  C   UNL d   1      14.888  18.010  -4.896  0.00  0.00     0.002 A 
ATOM     25  C   UNL d   1      14.946  18.714  -5.318  0.00  0.00     0.007 A 
ATOM     26  C   UNL d   1      14.421  18.857  -5.939  0.00  0.00     0.035 A 
ATOM     27  C   UNL d   1      13.842  18.294  -6.132  0.00  0.00     0.007 A 
ATOM     28 BR   UNL d   1      14.465  19.561  -6.374  0.00  0.00    -0.049 Br
ATOM     29  C   UNL d   1      13.784  17.586  -5.708  0.00  0.00     0.002 A 
ENDBRANCH   3  23
TORSDOF 6
ENDMDL
MODEL 3
REMARK VINA RESULT:      76.2      1.007      1.283
REMARK  6 active torsions:
REMARK  status: ('A' for Active; 'I' for Inactive)
REMARK    1  A    between atoms: C_3  and  N_1 
REMARK    2  A    between atoms: N_7  and  C_3 
REMARK    3  A    between atoms: C_9  and  C_4 
REMARK    4  A    between atoms: C_10  and  C_5 
REMARK    5  A    between atoms: C_15  and  N_7 
REMARK    6  A    between atoms: O_23  and  C_17 
ROOT
ATOM      1  N   UNL d   1      13.931  15.018  -3.624  0.00  0.00    -0.203 N 
ATOM      2  N   UNL d   1      13.933  15.623  -4.205  0.00  0.00    -0.163 NA
ATOM      3  C   UNL d   1      14.372  16.249  -3.909  0.00  0.00     0.103 A 
ATOM      4  C   UNL d   1      14.376  15.286  -2.972  0.00  0.00     0.087 A 
ATOM      5  C   UNL d   1      14.646  16.068  -3.172  0.00  0.00     0.040 A 
ENDROOT
BRANCH   1   6
ATOM      6  C   UNL d   1      13.551  14.270  -3.682  0.00  0.00     0.222 C 
ATOM      7  S   UNL d   1      12.770  14.203  -3.449  0.00  0.00    -0.037 SA
BRANCH   6   8
ATOM      8  N   UNL d   1      13.965  13.621  -3.970  0.00  0.00    -0.217 NA
BRANCH   8   9
ATOM      9  C   UNL d   1      13.562  13.000  -4.326  0.00  0.00     0.084 A 
ATOM     10  C   UNL d   1      13.553  12.953  -5.159  0.00  0.00     0.019 A 
ATOM     11  C   UNL d   1      13.148  12.330  -5.518  0.00  0.00     0.002 A 
ATOM     12  C   UNL d   1      12.775  11.788  -5.053  0.00  0.00     0.000 A 
ATOM     13  C   UNL d   1      12.784  11.835  -4.241  0.00  0.00     0.002 A 
ATOM     14  C   UNL d   1      13.176  12.439  -3.877  0.00  0.00     0.019 A 
ENDBRANCH   8   9
ENDBRANCH   6   8
ENDBRANCH   1   6
BRANCH   4  15
ATOM     15  C   UNL d   1      14.545  14.901  -2.253  0.00  0.00     0.018 A 
ATOM     16  C   UNL d   1      15.230  14.451  -2.165  0.00  0.00     0.004 A 
ATOM     17  C   UNL d   1      15.387  14.073  -1.447  0.00  0.00     0.024 A 
ATOM     18  C   UNL d   1      14.880  14.140  -0.828  0.00  0.00     0.094 A 
ATOM     19  C   UNL d   1      14.174  14.599  -0.905  0.00  0.00     0.024 A 
ATOM     20  C   UNL d   1      14.022  14.972  -1.622  0.00  0.00     0.004 A 
BRANCH  18  21
ATOM     21  O   UNL d   1      15.078  13.735  -0.105  0.00  0.00    -0.328 OA
ATOM     22  C   UNL d   1      15.450  12.984  -0.131  0.00  0.00     0.181 C 
ENDBRANCH  18  21
ENDBRANCH   4  15
BRANCH   3  23
ATOM     23  C   UNL d   1      14.490  16.946  -4.339  0.00  0.00     0.019 A 
ATOM     24  C   UNL d   1      14.159  17.049  -5.075  0.00  0.00     0.002 A 
ATOM     25  C   UNL d   1      14.276  17.742  -5.503  0.00  0.00     0.007 A 
ATOM     26  C   UNL d   1      14.740  18.343  -5.177  0.00  0.00     0.035 A 
ATOM     27  C   UNL d   1      15.081  18.245  -4.427  0.00  0.00     0.007 A 
ATOM     28 BR   UNL d   1      14.869  19.048  -5.594  0.00  0.00    -0.049 Br
ATOM     29  C   UNL d   1      14.963  17.549  -3.997  0.00  0.00     0.002 A 
ENDBRANCH   3  23
TORSDOF 6
ENDMDL
MODEL 4
REMARK VINA RESULT:      76.5      2.771      5.468
REMARK  6 active torsions:
REMARK  status: ('A' for Active; 'I' for Inactive)
REMARK    1  A    between atoms: C_3  and  N_1 
REMARK    2  A    between atoms: N_7  and  C_3 
REMARK    3  A    between atoms: C_9  and  C_4 
REMARK    4  A    between atoms: C_10  and  C_5 
REMARK    5  A    between atoms: C_15  and  N_7 
REMARK    6  A    between atoms: O_23  and  C_17 
ROOT
ATOM      1  N   UNL d   1      14.307  16.031  -3.594  0.00  0.00    -0.203 N 
ATOM      2  N   UNL d   1      14.093  15.234  -3.443  0.00  0.00    -0.163 NA
ATOM      3  C   UNL d   1      13.829  14.911  -4.149  0.00  0.00     0.103 A 
ATOM      4  C   UNL d   1      14.170  16.186  -4.401  0.00  0.00     0.087 A 
ATOM      5  C   UNL d   1      13.866  15.464  -4.736  0.00  0.00     0.040 A 
ENDROOT
BRANCH   1   6
ATOM      6  C   UNL d   1      14.609  16.582  -3.035  0.00  0.00     0.222 C 
ATOM      7  S   UNL d   1      14.205  17.283  -2.911  0.00  0.00    -0.037 SA
BRANCH   6   8
ATOM      8  N   UNL d   1      15.300  16.412  -2.624  0.00  0.00    -0.217 NA
BRANCH   8   9
ATOM      9  C   UNL d   1      15.295  16.388  -1.803  0.00  0.00     0.084 A 
ATOM     10  C   UNL d   1      15.312  15.645  -1.424  0.00  0.00     0.019 A 
ATOM     11  C   UNL d   1      15.307  15.619  -0.599  0.00  0.00     0.002 A 
ATOM     12  C   UNL d   1      15.286  16.311  -0.187  0.00  0.00     0.000 A 
ATOM     13  C   UNL d   1      15.269  17.036  -0.558  0.00  0.00     0.002 A 
ATOM     14  C   UNL d   1      15.274  17.075  -1.364  0.00  0.00     0.019 A 
ENDBRANCH   8   9
ENDBRANCH   6   8
ENDBRANCH   1   6
BRANCH   4  15
ATOM     15  C   UNL d   1      14.290  16.888  -4.834  0.00  0.00     0.018 A 
ATOM     16  C   UNL d   1      13.688  17.208  -5.297  0.00  0.00     0.004 A 
ATOM     17  C   UNL d   1      13.819  17.905  -5.722  0.00  0.00     0.024 A 
ATOM     18  C   UNL d   1      14.529  18.279  -5.689  0.00  0.00     0.094 A 
ATOM     19  C   UNL d   1      15.155  17.961  -5.217  0.00  0.00     0.024 A 
ATOM     20  C   UNL d   1      15.019  17.267  -4.797  0.00  0.00     0.004 A 
BRANCH  18  21
ATOM     21  O   UNL d   1      14.624  18.995  -6.141  0.00  0.00    -0.328 OA
ATOM     22  C   UNL d   1      14.752  19.726  -5.749  0.00  0.00     0.181 C 
ENDBRANCH  18  21
ENDBRANCH   4  15
BRANCH   3  23
ATOM     23  C   UNL d   1      13.570  14.128  -4.205  0.00  0.00     0.019 A 
ATOM     24  C   UNL d   1      13.796  13.569  -3.658  0.00  0.00     0.002 A 
ATOM     25  C   UNL d   1      13.539  12.789  -3.713  0.00  0.00     0.007 A 
ATOM     26  C   UNL d   1      13.043  12.571  -4.337  0.00  0.00     0.035 A 
ATOM     27  C   UNL d   1      12.808  13.135  -4.899  0.00  0.00     0.007 A 
ATOM     28 BR   UNL d   1      12.775  11.790  -4.408  0.00  0.00    -0.049 Br
ATOM     29  C   UNL d   1      13.067  13.919  -4.843  0.00  0.00     0.002 A 
ENDBRANCH   3  23
TORSDOF 6
ENDMDL
