MODEL 1
REMARK VINA RESULT:      10.7      0.000      0.000
REMARK  1 active torsions:
REMARK  status: ('A' for Active; 'I' for Inactive)
REMARK    1  A    between atoms: C_6  and  C_1 
ROOT
ATOM      1  C   UNL d   1     -51.440  24.704  33.329  0.00  0.00     0.148 A 
ATOM      2  N   UNL d   1     -52.233  24.474  33.321  0.00  0.00    -0.289 N 
ATOM      3  N   UNL d   1     -50.967  24.036  33.335  0.00  0.00    -0.225 NA
ATOM      4  C   UNL d   1     -52.253  23.665  33.322  0.00  0.00     0.085 A 
ATOM      5  C   UNL d   1     -51.471  23.392  33.331  0.00  0.00     0.118 A 
ATOM      6  C   UNL d   1     -52.925  24.922  33.313  0.00  0.00     0.082 A 
ATOM      7  C   UNL d   1     -52.965  23.245  33.316  0.00  0.00     0.019 A 
ATOM      8  C   UNL d   1     -53.667  24.508  33.307  0.00  0.00     0.019 A 
ATOM      9  C   UNL d   1     -53.686  23.699  33.308  0.00  0.00     0.003 A 
ENDROOT
BRANCH   1  10
ATOM     10  C   UNL d   1     -51.252  25.508  33.329  0.00  0.00     0.035 A 
ATOM     11  C   UNL d   1     -51.848  26.113  33.352  0.00  0.00     0.004 A 
ATOM     12  C   UNL d   1     -51.656  26.906  33.352  0.00  0.00     0.011 A 
ATOM     13  C   UNL d   1     -50.873  27.112  33.329  0.00  0.00     0.058 A 
ATOM     14  C   UNL d   1     -50.277  26.547  33.306  0.00  0.00     0.011 A 
ATOM     15 CL   UNL d   1     -50.686  27.952  33.330  0.00  0.00    -0.082 Cl
ATOM     16  C   UNL d   1     -50.464  25.749  33.306  0.00  0.00     0.004 A 
ENDBRANCH   1  10
TORSDOF 1
ENDMDL
