MODEL 1
REMARK VINA RESULT:     -11.3      0.000      0.000
REMARK  4 active torsions:
REMARK  status: ('A' for Active; 'I' for Inactive)
REMARK    1  A    between atoms: S_2  and  N_1 
REMARK    2  A    between atoms: N_6  and  S_2 
REMARK    3  A    between atoms: C_10  and  C_3 
REMARK    4  A    between atoms: C_14  and  C_10 
ROOT
ATOM      1  N   UNL d   1      53.321  32.377  53.601  0.00  0.00    -0.201 N 
ATOM      2  C   UNL d   1      52.678  32.725  53.191  0.00  0.00     0.158 A 
ATOM      3  N   UNL d   1      52.261  32.115  52.815  0.00  0.00    -0.226 NA
ATOM      4  C   UNL d   1      53.288  31.566  53.471  0.00  0.00     0.095 A 
ATOM      5  C   UNL d   1      52.638  31.403  52.989  0.00  0.00     0.100 A 
ATOM      6  C   UNL d   1      53.775  30.956  53.735  0.00  0.00     0.020 A 
ATOM      7  C   UNL d   1      52.477  30.623  52.772  0.00  0.00     0.021 A 
ATOM      8  C   UNL d   1      53.615  30.176  53.519  0.00  0.00     0.002 A 
ATOM      9  C   UNL d   1      52.963  30.007  53.035  0.00  0.00     0.002 A 
ENDROOT
BRANCH   1  10
ATOM     10  S   UNL d   1      53.878  32.774  54.047  0.00  0.00     0.338 S 
ATOM     11  O   UNL d   1      54.347  32.883  53.380  0.00  0.00    -0.181 OA
ATOM     12  O   UNL d   1      53.409  32.666  54.717  0.00  0.00    -0.181 OA
BRANCH  10  13
ATOM     13  N   UNL d   1      54.431  33.173  54.508  0.00  0.00    -0.212 N 
ATOM     14  C   UNL d   1      55.111  33.479  54.162  0.00  0.00     0.120 A 
ATOM     15  C   UNL d   1      55.668  33.882  54.631  0.00  0.00     0.142 A 
ATOM     16  O   UNL d   1      55.532  33.969  55.440  0.00  0.00    -0.300 OA
ATOM     17  C   UNL d   1      54.853  33.662  55.776  0.00  0.00     0.142 A 
ATOM     18  C   UNL d   1      54.303  33.265  55.318  0.00  0.00     0.120 A 
ENDBRANCH  10  13
ENDBRANCH   1  10
BRANCH   2  19
ATOM     19  C   UNL d   1      52.497  33.532  53.170  0.00  0.00     0.038 C 
BRANCH  19  20
ATOM     20  C   UNL d   1      51.777  33.776  52.856  0.00  0.00     0.003 A 
ATOM     21  C   UNL d   1      51.739  34.018  52.066  0.00  0.00     0.000 A 
ATOM     22  C   UNL d   1      51.020  34.263  51.752  0.00  0.00     0.000 A 
ATOM     23  C   UNL d   1      50.345  34.269  52.213  0.00  0.00     0.000 A 
ATOM     24  C   UNL d   1      50.384  34.025  53.007  0.00  0.00     0.000 A 
ATOM     25  C   UNL d   1      51.105  33.779  53.324  0.00  0.00     0.000 A 
ENDBRANCH  19  20
ENDBRANCH   2  19
TORSDOF 4
ENDMDL
MODEL 2
REMARK VINA RESULT:     -10.2      1.236      3.503
REMARK  4 active torsions:
REMARK  status: ('A' for Active; 'I' for Inactive)
REMARK    1  A    between atoms: S_2  and  N_1 
REMARK    2  A    between atoms: N_6  and  S_2 
REMARK    3  A    between atoms: C_10  and  C_3 
REMARK    4  A    between atoms: C_14  and  C_10 
ROOT
ATOM      1  N   UNL d   1      52.789  32.407  53.343  0.00  0.00    -0.201 N 
ATOM      2  C   UNL d   1      53.468  32.649  53.770  0.00  0.00     0.158 A 
ATOM      3  N   UNL d   1      53.919  31.972  53.930  0.00  0.00    -0.226 NA
ATOM      4  C   UNL d   1      52.833  31.592  53.249  0.00  0.00     0.095 A 
ATOM      5  C   UNL d   1      53.526  31.323  53.608  0.00  0.00     0.100 A 
ATOM      6  C   UNL d   1      52.323  31.062  52.877  0.00  0.00     0.020 A 
ATOM      7  C   UNL d   1      53.706  30.517  53.593  0.00  0.00     0.021 A 
ATOM      8  C   UNL d   1      52.502  30.258  52.861  0.00  0.00     0.002 A 
ATOM      9  C   UNL d   1      53.197  29.982  53.221  0.00  0.00     0.002 A 
ENDROOT
BRANCH   1  10
ATOM     10  S   UNL d   1      52.193  32.895  53.072  0.00  0.00     0.338 S 
ATOM     11  O   UNL d   1      52.578  32.977  52.349  0.00  0.00    -0.181 OA
ATOM     12  O   UNL d   1      51.805  32.815  53.794  0.00  0.00    -0.181 OA
BRANCH  10  13
ATOM     13  N   UNL d   1      51.587  33.386  52.810  0.00  0.00    -0.212 N 
ATOM     14  C   UNL d   1      50.901  33.468  53.257  0.00  0.00     0.120 A 
ATOM     15  C   UNL d   1      50.290  33.965  52.989  0.00  0.00     0.142 A 
ATOM     16  O   UNL d   1      50.379  34.371  52.276  0.00  0.00    -0.300 OA
ATOM     17  C   UNL d   1      51.063  34.284  51.838  0.00  0.00     0.142 A 
ATOM     18  C   UNL d   1      51.667  33.796  52.098  0.00  0.00     0.120 A 
ENDBRANCH  10  13
ENDBRANCH   1  10
BRANCH   2  19
ATOM     19  C   UNL d   1      53.651  33.426  53.990  0.00  0.00     0.038 C 
BRANCH  19  20
ATOM     20  C   UNL d   1      54.291  33.565  54.488  0.00  0.00     0.003 A 
ATOM     21  C   UNL d   1      55.033  33.729  54.161  0.00  0.00     0.000 A 
ATOM     22  C   UNL d   1      55.672  33.868  54.657  0.00  0.00     0.000 A 
ATOM     23  C   UNL d   1      55.581  33.846  55.470  0.00  0.00     0.000 A 
ATOM     24  C   UNL d   1      54.836  33.680  55.798  0.00  0.00     0.000 A 
ATOM     25  C   UNL d   1      54.192  33.540  55.301  0.00  0.00     0.000 A 
ENDBRANCH  19  20
ENDBRANCH   2  19
TORSDOF 4
ENDMDL
MODEL 3
REMARK VINA RESULT:      -9.8      1.354      3.886
REMARK  4 active torsions:
REMARK  status: ('A' for Active; 'I' for Inactive)
REMARK    1  A    between atoms: S_2  and  N_1 
REMARK    2  A    between atoms: N_6  and  S_2 
REMARK    3  A    between atoms: C_10  and  C_3 
REMARK    4  A    between atoms: C_14  and  C_10 
ROOT
ATOM      1  N   UNL d   1      52.915  33.043  53.694  0.00  0.00    -0.201 N 
ATOM      2  C   UNL d   1      53.153  32.241  53.644  0.00  0.00     0.158 A 
ATOM      3  N   UNL d   1      53.813  32.144  54.137  0.00  0.00    -0.226 NA
ATOM      4  C   UNL d   1      53.428  33.422  54.213  0.00  0.00     0.095 A 
ATOM      5  C   UNL d   1      53.980  32.872  54.486  0.00  0.00     0.100 A 
ATOM      6  C   UNL d   1      53.457  34.204  54.469  0.00  0.00     0.020 A 
ATOM      7  C   UNL d   1      54.563  33.111  55.018  0.00  0.00     0.021 A 
ATOM      8  C   UNL d   1      54.040  34.444  55.001  0.00  0.00     0.002 A 
ATOM      9  C   UNL d   1      54.596  33.895  55.278  0.00  0.00     0.002 A 
ENDROOT
BRANCH   1  10
ATOM     10  S   UNL d   1      52.287  33.383  53.299  0.00  0.00     0.338 S 
ATOM     11  O   UNL d   1      52.759  33.502  52.635  0.00  0.00    -0.181 OA
ATOM     12  O   UNL d   1      51.812  33.265  53.962  0.00  0.00    -0.181 OA
BRANCH  10  13
ATOM     13  N   UNL d   1      51.646  33.724  52.910  0.00  0.00    -0.212 N 
ATOM     14  C   UNL d   1      51.742  34.041  52.158  0.00  0.00     0.120 A 
ATOM     15  C   UNL d   1      51.092  34.385  51.768  0.00  0.00     0.142 A 
ATOM     16  O   UNL d   1      50.356  34.403  52.142  0.00  0.00    -0.300 OA
ATOM     17  C   UNL d   1      50.269  34.085  52.890  0.00  0.00     0.142 A 
ATOM     18  C   UNL d   1      50.907  33.746  53.276  0.00  0.00     0.120 A 
ENDBRANCH  10  13
ENDBRANCH   1  10
BRANCH   2  19
ATOM     19  C   UNL d   1      52.792  31.656  53.184  0.00  0.00     0.038 C 
BRANCH  19  20
ATOM     20  C   UNL d   1      52.980  30.866  53.314  0.00  0.00     0.003 A 
ATOM     21  C   UNL d   1      52.483  30.402  53.786  0.00  0.00     0.000 A 
ATOM     22  C   UNL d   1      52.670  29.613  53.916  0.00  0.00     0.000 A 
ATOM     23  C   UNL d   1      53.341  29.284  53.585  0.00  0.00     0.000 A 
ATOM     24  C   UNL d   1      53.840  29.750  53.111  0.00  0.00     0.000 A 
ATOM     25  C   UNL d   1      53.653  30.543  52.978  0.00  0.00     0.000 A 
ENDBRANCH  19  20
ENDBRANCH   2  19
TORSDOF 4
ENDMDL
MODEL 4
REMARK VINA RESULT:      -9.3      0.584      2.912
REMARK  4 active torsions:
REMARK  status: ('A' for Active; 'I' for Inactive)
REMARK    1  A    between atoms: S_2  and  N_1 
REMARK    2  A    between atoms: N_6  and  S_2 
REMARK    3  A    between atoms: C_10  and  C_3 
REMARK    4  A    between atoms: C_14  and  C_10 
ROOT
ATOM      1  N   UNL d   1      53.207  32.941  53.589  0.00  0.00    -0.201 N 
ATOM      2  C   UNL d   1      53.098  32.154  53.321  0.00  0.00     0.158 A 
ATOM      3  N   UNL d   1      52.404  32.137  52.868  0.00  0.00    -0.226 NA
ATOM      4  C   UNL d   1      52.583  33.390  53.298  0.00  0.00     0.095 A 
ATOM      5  C   UNL d   1      52.089  32.899  52.855  0.00  0.00     0.100 A 
ATOM      6  C   UNL d   1      52.407  34.190  53.384  0.00  0.00     0.020 A 
ATOM      7  C   UNL d   1      51.415  33.215  52.498  0.00  0.00     0.021 A 
ATOM      8  C   UNL d   1      51.734  34.507  53.028  0.00  0.00     0.002 A 
ATOM      9  C   UNL d   1      51.235  34.018  52.583  0.00  0.00     0.002 A 
ENDROOT
BRANCH   1  10
ATOM     10  S   UNL d   1      53.822  33.209  54.054  0.00  0.00     0.338 S 
ATOM     11  O   UNL d   1      54.299  33.292  53.388  0.00  0.00    -0.181 OA
ATOM     12  O   UNL d   1      53.347  33.126  54.721  0.00  0.00    -0.181 OA
BRANCH  10  13
ATOM     13  N   UNL d   1      54.435  33.477  54.533  0.00  0.00    -0.212 N 
ATOM     14  C   UNL d   1      55.147  33.715  54.197  0.00  0.00     0.120 A 
ATOM     15  C   UNL d   1      55.764  33.986  54.685  0.00  0.00     0.142 A 
ATOM     16  O   UNL d   1      55.655  34.013  55.503  0.00  0.00    -0.300 OA
ATOM     17  C   UNL d   1      54.944  33.775  55.828  0.00  0.00     0.142 A 
ATOM     18  C   UNL d   1      54.335  33.508  55.351  0.00  0.00     0.120 A 
ENDBRANCH  10  13
ENDBRANCH   1  10
BRANCH   2  19
ATOM     19  C   UNL d   1      53.596  31.514  53.482  0.00  0.00     0.038 C 
BRANCH  19  20
ATOM     20  C   UNL d   1      53.299  30.748  53.432  0.00  0.00     0.003 A 
ATOM     21  C   UNL d   1      53.171  30.315  54.126  0.00  0.00     0.000 A 
ATOM     22  C   UNL d   1      52.875  29.550  54.076  0.00  0.00     0.000 A 
ATOM     23  C   UNL d   1      52.707  29.215  53.350  0.00  0.00     0.000 A 
ATOM     24  C   UNL d   1      52.835  29.651  52.653  0.00  0.00     0.000 A 
ATOM     25  C   UNL d   1      53.133  30.419  52.701  0.00  0.00     0.000 A 
ENDBRANCH  19  20
ENDBRANCH   2  19
TORSDOF 4
ENDMDL
MODEL 5
REMARK VINA RESULT:      -9.3      1.157      2.845
REMARK  4 active torsions:
REMARK  status: ('A' for Active; 'I' for Inactive)
REMARK    1  A    between atoms: S_2  and  N_1 
REMARK    2  A    between atoms: N_6  and  S_2 
REMARK    3  A    between atoms: C_10  and  C_3 
REMARK    4  A    between atoms: C_14  and  C_10 
ROOT
ATOM      1  N   UNL d   1      53.217  32.524  53.839  0.00  0.00    -0.201 N 
ATOM      2  C   UNL d   1      52.655  33.059  53.521  0.00  0.00     0.158 A 
ATOM      3  N   UNL d   1      52.865  33.822  53.769  0.00  0.00    -0.226 NA
ATOM      4  C   UNL d   1      53.758  32.964  54.274  0.00  0.00     0.095 A 
ATOM      5  C   UNL d   1      53.544  33.761  54.232  0.00  0.00     0.100 A 
ATOM      6  C   UNL d   1      54.422  32.733  54.703  0.00  0.00     0.020 A 
ATOM      7  C   UNL d   1      54.001  34.326  54.624  0.00  0.00     0.021 A 
ATOM      8  C   UNL d   1      54.878  33.296  55.096  0.00  0.00     0.002 A 
ATOM      9  C   UNL d   1      54.668  34.098  55.057  0.00  0.00     0.002 A 
ENDROOT
BRANCH   1  10
ATOM     10  S   UNL d   1      53.223  31.715  53.734  0.00  0.00     0.338 S 
ATOM     11  O   UNL d   1      53.662  31.799  53.044  0.00  0.00    -0.181 OA
ATOM     12  O   UNL d   1      52.783  31.628  54.426  0.00  0.00    -0.181 OA
BRANCH  10  13
ATOM     13  N   UNL d   1      53.221  30.897  53.640  0.00  0.00    -0.212 N 
ATOM     14  C   UNL d   1      53.198  30.570  52.886  0.00  0.00     0.120 A 
ATOM     15  C   UNL d   1      53.196  29.743  52.794  0.00  0.00     0.142 A 
ATOM     16  O   UNL d   1      53.218  29.259  53.462  0.00  0.00    -0.300 OA
ATOM     17  C   UNL d   1      53.242  29.592  54.208  0.00  0.00     0.142 A 
ATOM     18  C   UNL d   1      53.243  30.406  54.302  0.00  0.00     0.120 A 
ENDBRANCH  10  13
ENDBRANCH   1  10
BRANCH   2  19
ATOM     19  C   UNL d   1      52.009  32.856  53.045  0.00  0.00     0.038 C 
BRANCH  19  20
ATOM     20  C   UNL d   1      51.463  33.435  52.837  0.00  0.00     0.003 A 
ATOM     21  C   UNL d   1      50.802  33.562  53.317  0.00  0.00     0.000 A 
ATOM     22  C   UNL d   1      50.256  34.140  53.109  0.00  0.00     0.000 A 
ATOM     23  C   UNL d   1      50.361  34.589  52.434  0.00  0.00     0.000 A 
ATOM     24  C   UNL d   1      51.026  34.461  51.952  0.00  0.00     0.000 A 
ATOM     25  C   UNL d   1      51.576  33.881  52.159  0.00  0.00     0.000 A 
ENDBRANCH  19  20
ENDBRANCH   2  19
TORSDOF 4
ENDMDL
MODEL 6
REMARK VINA RESULT:      -9.0      1.335      3.845
REMARK  4 active torsions:
REMARK  status: ('A' for Active; 'I' for Inactive)
REMARK    1  A    between atoms: S_2  and  N_1 
REMARK    2  A    between atoms: N_6  and  S_2 
REMARK    3  A    between atoms: C_10  and  C_3 
REMARK    4  A    between atoms: C_14  and  C_10 
ROOT
ATOM      1  N   UNL d   1      52.716  32.557  53.269  0.00  0.00    -0.201 N 
ATOM      2  C   UNL d   1      53.345  32.977  53.630  0.00  0.00     0.158 A 
ATOM      3  N   UNL d   1      53.158  33.784  53.600  0.00  0.00    -0.226 NA
ATOM      4  C   UNL d   1      52.157  33.109  53.025  0.00  0.00     0.095 A 
ATOM      5  C   UNL d   1      52.427  33.863  53.228  0.00  0.00     0.100 A 
ATOM      6  C   UNL d   1      51.434  33.013  52.642  0.00  0.00     0.020 A 
ATOM      7  C   UNL d   1      51.966  34.522  53.044  0.00  0.00     0.021 A 
ATOM      8  C   UNL d   1      50.973  33.671  52.458  0.00  0.00     0.002 A 
ATOM      9  C   UNL d   1      51.239  34.431  52.659  0.00  0.00     0.002 A 
ENDROOT
BRANCH   1  10
ATOM     10  S   UNL d   1      52.669  31.747  53.177  0.00  0.00     0.338 S 
ATOM     11  O   UNL d   1      53.035  31.801  52.442  0.00  0.00    -0.181 OA
ATOM     12  O   UNL d   1      52.303  31.690  53.913  0.00  0.00    -0.181 OA
BRANCH  10  13
ATOM     13  N   UNL d   1      52.616  30.930  53.097  0.00  0.00    -0.212 N 
ATOM     14  C   UNL d   1      53.037  30.546  52.503  0.00  0.00     0.120 A 
ATOM     15  C   UNL d   1      52.981  29.720  52.425  0.00  0.00     0.142 A 
ATOM     16  O   UNL d   1      52.503  29.293  52.945  0.00  0.00    -0.300 OA
ATOM     17  C   UNL d   1      52.089  29.682  53.533  0.00  0.00     0.142 A 
ATOM     18  C   UNL d   1      52.141  30.495  53.613  0.00  0.00     0.120 A 
ENDBRANCH  10  13
ENDBRANCH   1  10
BRANCH   2  19
ATOM     19  C   UNL d   1      54.027  32.641  53.956  0.00  0.00     0.038 C 
BRANCH  19  20
ATOM     20  C   UNL d   1      54.506  33.095  54.447  0.00  0.00     0.003 A 
ATOM     21  C   UNL d   1      55.156  33.494  54.127  0.00  0.00     0.000 A 
ATOM     22  C   UNL d   1      55.635  33.948  54.617  0.00  0.00     0.000 A 
ATOM     23  C   UNL d   1      55.473  34.007  55.417  0.00  0.00     0.000 A 
ATOM     24  C   UNL d   1      54.820  33.606  55.738  0.00  0.00     0.000 A 
ATOM     25  C   UNL d   1      54.338  33.150  55.247  0.00  0.00     0.000 A 
ENDBRANCH  19  20
ENDBRANCH   2  19
TORSDOF 4
ENDMDL
