MODEL 1
REMARK VINA RESULT:      69.7      0.000      0.000
REMARK  8 active torsions:
REMARK  status: ('A' for Active; 'I' for Inactive)
REMARK    1  A    between atoms: N_2  and  S_1 
REMARK    2  A    between atoms: C_6  and  S_1 
REMARK    3  A    between atoms: C_5  and  N_2 
REMARK    4  A    between atoms: C_4  and  C_3 
REMARK       I    between atoms: N_9  and  C_4 
REMARK    5  A    between atoms: C_14  and  N_9 
REMARK    6  A    between atoms: C_16  and  C_14 
REMARK    7  A    between atoms: O_20  and  C_15 
REMARK    8  A    between atoms: C_23  and  O_20 
ROOT
ATOM      1  C   UNL d   1     -47.772  29.643  35.822  0.00  0.00     0.076 A 
ATOM      2  C   UNL d   1     -48.265  29.038  35.536  0.00  0.00     0.098 A 
ATOM      3  C   UNL d   1     -47.678  29.751  36.633  0.00  0.00     0.006 A 
ATOM      4  C   UNL d   1     -48.663  28.544  36.070  0.00  0.00     0.020 A 
ATOM      5  C   UNL d   1     -48.074  29.258  37.164  0.00  0.00     0.000 A 
ATOM      6  C   UNL d   1     -48.566  28.656  36.883  0.00  0.00     0.002 A 
ENDROOT
BRANCH   2   7
ATOM      7  N   UNL d   1     -48.360  28.929  34.725  0.00  0.00    -0.158 NA
BRANCH   7   8
ATOM      8  S   UNL d   1     -48.857  28.335  34.442  0.00  0.00     0.285 S 
ATOM      9  O   UNL d   1     -49.415  28.900  34.229  0.00  0.00    -0.198 OA
ATOM     10  O   UNL d   1     -48.292  27.769  34.658  0.00  0.00    -0.198 OA
BRANCH   8  11
ATOM     11  C   UNL d   1     -49.356  27.744  34.158  0.00  0.00     0.105 A 
ATOM     12  C   UNL d   1     -49.142  26.952  34.231  0.00  0.00     0.015 A 
ATOM     13  C   UNL d   1     -49.642  26.362  33.947  0.00  0.00     0.025 A 
ATOM     14  C   UNL d   1     -50.358  26.564  33.590  0.00  0.00     0.100 A 
ATOM     15  C   UNL d   1     -50.572  27.363  33.518  0.00  0.00     0.025 A 
ATOM     16  C   UNL d   1     -50.071  27.948  33.802  0.00  0.00     0.015 A 
BRANCH  14  17
ATOM     17  O   UNL d   1     -50.857  25.976  33.306  0.00  0.00    -0.305 OA
BRANCH  17  18
ATOM     18  C   UNL d   1     -51.676  26.052  33.391  0.00  0.00     0.123 C 
ATOM     19  C   UNL d   1     -52.149  25.377  33.435  0.00  0.00     0.029 C 
ENDBRANCH  17  18
ENDBRANCH  14  17
ENDBRANCH   8  11
ENDBRANCH   7   8
ENDBRANCH   2   7
BRANCH   1  20
ATOM     20  C   UNL d   1     -47.375  30.136  35.292  0.00  0.00     0.281 C 
ATOM     21  N   UNL d   1     -47.660  30.896  35.142  0.00  0.00    -0.204 NA
ATOM     22  O   UNL d   1     -46.694  29.867  34.912  0.00  0.00    -0.265 OA
BRANCH  21  23
ATOM     23  C   UNL d   1     -47.259  31.385  34.610  0.00  0.00     0.127 C 
BRANCH  23  24
ATOM     24  C   UNL d   1     -47.626  32.064  34.318  0.00  0.00     0.119 A 
ATOM     25  O   UNL d   1     -48.292  32.425  34.634  0.00  0.00    -0.304 OA
ATOM     26  C   UNL d   1     -48.471  33.084  34.171  0.00  0.00     0.123 A 
ATOM     27  C   UNL d   1     -47.910  33.126  33.567  0.00  0.00     0.029 A 
ATOM     28  C   UNL d   1     -47.387  32.494  33.658  0.00  0.00     0.028 A 
ENDBRANCH  23  24
ENDBRANCH  21  23
ENDBRANCH   1  20
TORSDOF 8
ENDMDL
