MODEL 1
REMARK VINA RESULT:      60.9      0.000      0.000
REMARK  10 active torsions:
REMARK  status: ('A' for Active; 'I' for Inactive)
REMARK    1  A    between atoms: C_16  and  N_1 
REMARK    2  A    between atoms: S_10  and  C_2 
REMARK    3  A    between atoms: N_8  and  C_9 
REMARK    4  A    between atoms: C_18  and  S_10 
REMARK    5  A    between atoms: C_12  and  C_18 
REMARK       I    between atoms: N_19  and  C_12 
REMARK    6  A    between atoms: C_27  and  C_16 
REMARK    7  A    between atoms: C_25  and  N_19 
REMARK    8  A    between atoms: O_22  and  C_26 
REMARK    9  A    between atoms: C_26  and  C_25 
REMARK   10  A    between atoms: C_29  and  C_27 
ROOT
ATOM      1  N   UNL d   1     -54.833-101.084 -43.754  0.00  0.00    -0.253 N 
ATOM      2  C   UNL d   1     -54.760-100.256 -43.748  0.00  0.00     0.182 A 
ATOM      3  C   UNL d   1     -54.865-101.504 -43.050  0.00  0.00     0.268 A 
ATOM      4  C   UNL d   1     -54.824-101.087 -42.336  0.00  0.00     0.076 A 
ATOM      5  N   UNL d   1     -54.720 -99.852 -43.038  0.00  0.00    -0.222 NA
ATOM      6  C   UNL d   1     -54.751-100.267 -42.330  0.00  0.00     0.088 A 
ATOM      7  C   UNL d   1     -54.856-101.511 -41.640  0.00  0.00     0.024 A 
ATOM      8  C   UNL d   1     -54.816-101.106 -40.910  0.00  0.00     0.065 A 
ATOM      9  O   UNL d   1     -54.937-102.325 -43.056  0.00  0.00    -0.267 OA
ATOM     10  C   UNL d   1     -54.711 -99.863 -41.616  0.00  0.00     0.021 A 
ATOM     11  C   UNL d   1     -54.743-100.277 -40.916  0.00  0.00     0.019 A 
ENDROOT
BRANCH   2  12
ATOM     12  S   UNL d   1     -54.728 -99.841 -44.473  0.00  0.00    -0.044 SA
BRANCH  12  13
ATOM     13  C   UNL d   1     -55.084 -99.100 -44.531  0.00  0.00     0.101 C 
BRANCH  13  14
ATOM     14  C   UNL d   1     -55.853 -98.975 -44.251  0.00  0.00     0.286 C 
ATOM     15  O   UNL d   1     -56.005 -98.942 -43.451  0.00  0.00    -0.265 OA
ATOM     16  N   UNL d   1     -56.480 -98.882 -44.780  0.00  0.00    -0.204 NA
BRANCH  16  17
ATOM     17  C   UNL d   1     -57.262 -98.755 -44.502  0.00  0.00     0.129 C 
BRANCH  17  18
ATOM     18  C   UNL d   1     -57.767 -99.386 -44.447  0.00  0.00     0.137 C 
BRANCH  18  19
ATOM     19  O   UNL d   1     -58.557 -99.290 -44.655  0.00  0.00    -0.325 OA
ATOM     20  C   UNL d   1     -58.972 -99.916 -44.989  0.00  0.00     0.182 C 
ENDBRANCH  18  19
ENDBRANCH  17  18
ENDBRANCH  16  17
ENDBRANCH  13  14
ENDBRANCH  12  13
ENDBRANCH   2  12
BRANCH   1  21
ATOM     21  C   UNL d   1     -54.873-101.489 -44.485  0.00  0.00     0.085 C 
BRANCH  21  22
ATOM     22  C   UNL d   1     -55.405-102.099 -44.577  0.00  0.00     0.019 C 
BRANCH  22  23
ATOM     23  C   UNL d   1     -55.534-102.425 -45.320  0.00  0.00     0.002 C 
ATOM     24  C   UNL d   1     -55.842-101.956 -45.934  0.00  0.00     0.000 C 
ENDBRANCH  22  23
ENDBRANCH  21  22
ENDBRANCH   1  21
BRANCH   8  25
ATOM     25  N   UNL d   1     -54.848-101.522 -40.201  0.00  0.00    -0.300 N 
ATOM     26  C   UNL d   1     -55.009-102.334 -40.217  0.00  0.00     0.107 A 
ATOM     27  C   UNL d   1     -55.040-102.749 -39.500  0.00  0.00     0.142 A 
ATOM     28  O   UNL d   1     -54.912-102.358 -38.777  0.00  0.00    -0.300 OA
ATOM     29  C   UNL d   1     -54.752-101.546 -38.774  0.00  0.00     0.142 A 
ATOM     30  C   UNL d   1     -54.718-101.118 -39.482  0.00  0.00     0.107 A 
ENDBRANCH   8  25
TORSDOF 10
ENDMDL
