MODEL 1
REMARK VINA RESULT:      63.4      0.000      0.000
REMARK  5 active torsions:
REMARK  status: ('A' for Active; 'I' for Inactive)
REMARK    1  A    between atoms: C_8  and  C_1 
REMARK    2  A    between atoms: N_9  and  C_8 
REMARK    3  A    between atoms: C_15  and  C_8 
REMARK    4  A    between atoms: C_16  and  N_11 
REMARK    5  A    between atoms: C_19  and  C_16 
ROOT
ATOM      1  C   UNL d   1      14.632  13.790  -1.309  0.00  0.00     0.075 C 
ENDROOT
BRANCH   1   2
ATOM      2  C   UNL d   1      14.891  14.535  -1.057  0.00  0.00     0.106 A 
ATOM      3  C   UNL d   1      14.516  15.018  -0.489  0.00  0.00     0.290 A 
ATOM      4  N   UNL d   1      14.960  15.709  -0.408  0.00  0.00    -0.169 N 
ATOM      5  O   UNL d   1      13.820  14.834  -0.079  0.00  0.00    -0.265 OA
ATOM      6  N   UNL d   1      15.009  16.429  -0.015  0.00  0.00    -0.138 NA
ATOM      7  C   UNL d   1      15.607  15.658  -0.923  0.00  0.00     0.200 A 
ATOM      8  C   UNL d   1      15.681  16.827  -0.280  0.00  0.00     0.222 A 
ATOM      9  N   UNL d   1      16.051  16.349  -0.842  0.00  0.00    -0.197 NA
ATOM     10  S   UNL d   1      15.566  14.938  -1.322  0.00  0.00    -0.042 SA
ENDBRANCH   1   2
BRANCH   1  11
ATOM     11  N   UNL d   1      14.175  13.732  -1.992  0.00  0.00    -0.301 N 
ATOM     12  C   UNL d   1      14.401  14.147  -2.672  0.00  0.00     0.100 A 
ATOM     13  C   UNL d   1      13.946  14.093  -3.362  0.00  0.00     0.100 A 
ATOM     14  N   UNL d   1      13.257  13.619  -3.373  0.00  0.00    -0.300 N 
ATOM     15  C   UNL d   1      13.040  13.209  -2.688  0.00  0.00     0.100 A 
ATOM     16  C   UNL d   1      13.497  13.266  -2.004  0.00  0.00     0.100 A 
BRANCH  14  17
ATOM     17  C   UNL d   1      12.806  13.564  -4.053  0.00  0.00     0.080 C 
BRANCH  17  18
ATOM     18  C   UNL d   1      13.040  13.063  -4.664  0.00  0.00     0.018 A 
ATOM     19  C   UNL d   1      12.787  12.280  -4.679  0.00  0.00     0.002 A 
ATOM     20  C   UNL d   1      13.017  11.781  -5.283  0.00  0.00     0.000 A 
ATOM     21  C   UNL d   1      13.508  12.062  -5.885  0.00  0.00     0.000 A 
ATOM     22  C   UNL d   1      13.766  12.849  -5.876  0.00  0.00     0.000 A 
ATOM     23  C   UNL d   1      13.529  13.346  -5.262  0.00  0.00     0.002 A 
ENDBRANCH  17  18
ENDBRANCH  14  17
ENDBRANCH   1  11
BRANCH   1  24
ATOM     24  C   UNL d   1      14.831  13.119  -0.880  0.00  0.00     0.017 A 
ATOM     25  C   UNL d   1      15.629  12.909  -0.812  0.00  0.00     0.002 A 
ATOM     26  C   UNL d   1      15.827  12.231  -0.378  0.00  0.00     0.000 A 
ATOM     27  C   UNL d   1      15.255  11.783  -0.028  0.00  0.00     0.000 A 
ATOM     28  C   UNL d   1      14.451  12.013  -0.109  0.00  0.00     0.000 A 
ATOM     29  C   UNL d   1      14.247  12.671  -0.529  0.00  0.00     0.002 A 
ENDBRANCH   1  24
TORSDOF 5
ENDMDL
