MODEL 1
REMARK VINA RESULT:      -4.6      0.000      0.000
REMARK  4 active torsions:
REMARK  status: ('A' for Active; 'I' for Inactive)
REMARK    1  A    between atoms: C_7  and  N_2 
REMARK    2  A    between atoms: C_10  and  C_7 
REMARK    3  A    between atoms: O_8  and  C_10 
REMARK    4  A    between atoms: C_9  and  O_8 
ROOT
ATOM      1  C   UNL d   1      58.167   0.455  29.268  0.00  0.00     0.296 A 
ATOM      2  N   UNL d   1      58.616   0.453  29.958  0.00  0.00    -0.266 N 
ATOM      3  S   UNL d   1      58.658   0.181  28.646  0.00  0.00    -0.025 SA
ATOM      4  C   UNL d   1      59.377   0.182  29.772  0.00  0.00     0.074 A 
ATOM      5  C   UNL d   1      59.403   0.015  28.968  0.00  0.00     0.050 A 
ATOM      6  O   UNL d   1      57.381   0.682  29.195  0.00  0.00    -0.259 OA
ATOM      7  C   UNL d   1      60.047   0.070  30.243  0.00  0.00     0.018 A 
ATOM      8  C   UNL d   1      60.100  -0.268  28.618  0.00  0.00     0.008 A 
ATOM      9  C   UNL d   1      60.744  -0.213  29.898  0.00  0.00     0.002 A 
ATOM     10  C   UNL d   1      60.770  -0.380  29.095  0.00  0.00     0.001 A 
ENDROOT
BRANCH   2  11
ATOM     11  C   UNL d   1      58.353   0.682  30.707  0.00  0.00     0.110 C 
BRANCH  11  12
ATOM     12  C   UNL d   1      57.724   0.291  31.065  0.00  0.00     0.142 C 
BRANCH  12  13
ATOM     13  O   UNL d   1      57.588   0.358  31.879  0.00  0.00    -0.304 OA
BRANCH  13  14
ATOM     14  C   UNL d   1      56.931  -0.003  32.223  0.00  0.00     0.100 A 
ATOM     15  C   UNL d   1      56.817  -0.816  32.138  0.00  0.00     0.025 A 
ATOM     16  C   UNL d   1      56.163  -1.174  32.481  0.00  0.00     0.002 A 
ATOM     17  C   UNL d   1      55.623  -0.719  32.907  0.00  0.00     0.000 A 
ATOM     18  C   UNL d   1      55.740   0.097  32.990  0.00  0.00     0.002 A 
ATOM     19  C   UNL d   1      56.399   0.447  32.643  0.00  0.00     0.025 A 
ENDBRANCH  13  14
ENDBRANCH  12  13
ENDBRANCH  11  12
ENDBRANCH   2  11
TORSDOF 4
ENDMDL
MODEL 2
REMARK VINA RESULT:      -3.9      1.793      4.350
REMARK  4 active torsions:
REMARK  status: ('A' for Active; 'I' for Inactive)
REMARK    1  A    between atoms: C_7  and  N_2 
REMARK    2  A    between atoms: C_10  and  C_7 
REMARK    3  A    between atoms: O_8  and  C_10 
REMARK    4  A    between atoms: C_9  and  O_8 
ROOT
ATOM      1  C   UNL d   1      57.852   0.301  31.407  0.00  0.00     0.296 A 
ATOM      2  N   UNL d   1      57.401  -0.360  31.213  0.00  0.00    -0.266 N 
ATOM      3  S   UNL d   1      57.649   0.525  32.190  0.00  0.00    -0.025 SA
ATOM      4  C   UNL d   1      56.922  -0.547  31.864  0.00  0.00     0.074 A 
ATOM      5  C   UNL d   1      57.074  -0.005  32.462  0.00  0.00     0.050 A 
ATOM      6  O   UNL d   1      58.401   0.677  30.927  0.00  0.00    -0.259 OA
ATOM      7  C   UNL d   1      56.367  -1.149  31.978  0.00  0.00     0.018 A 
ATOM      8  C   UNL d   1      56.675  -0.053  33.188  0.00  0.00     0.008 A 
ATOM      9  C   UNL d   1      55.966  -1.201  32.699  0.00  0.00     0.002 A 
ATOM     10  C   UNL d   1      56.118  -0.659  33.297  0.00  0.00     0.001 A 
ENDROOT
BRANCH   2  11
ATOM     11  C   UNL d   1      57.421  -0.765  30.495  0.00  0.00     0.110 C 
BRANCH  11  12
ATOM     12  C   UNL d   1      58.127  -1.083  30.215  0.00  0.00     0.142 C 
BRANCH  12  13
ATOM     13  O   UNL d   1      58.153  -1.506  29.504  0.00  0.00    -0.304 OA
BRANCH  13  14
ATOM     14  C   UNL d   1      58.844  -1.893  29.275  0.00  0.00     0.100 A 
ATOM     15  C   UNL d   1      58.933  -2.700  29.425  0.00  0.00     0.025 A 
ATOM     16  C   UNL d   1      59.621  -3.084  29.196  0.00  0.00     0.002 A 
ATOM     17  C   UNL d   1      60.219  -2.661  28.817  0.00  0.00     0.000 A 
ATOM     18  C   UNL d   1      60.127  -1.852  28.667  0.00  0.00     0.002 A 
ATOM     19  C   UNL d   1      59.434  -1.475  28.900  0.00  0.00     0.025 A 
ENDBRANCH  13  14
ENDBRANCH  12  13
ENDBRANCH  11  12
ENDBRANCH   2  11
TORSDOF 4
ENDMDL
MODEL 3
REMARK VINA RESULT:      -3.8      9.593     10.086
REMARK  4 active torsions:
REMARK  status: ('A' for Active; 'I' for Inactive)
REMARK    1  A    between atoms: C_7  and  N_2 
REMARK    2  A    between atoms: C_10  and  C_7 
REMARK    3  A    between atoms: O_8  and  C_10 
REMARK    4  A    between atoms: C_9  and  O_8 
ROOT
ATOM      1  C   UNL d   1      60.158  -9.817  32.512  0.00  0.00     0.296 A 
ATOM      2  N   UNL d   1      59.555  -9.818  33.072  0.00  0.00    -0.266 N 
ATOM      3  S   UNL d   1      59.799  -9.817  31.754  0.00  0.00    -0.025 SA
ATOM      4  C   UNL d   1      58.829  -9.818  32.672  0.00  0.00     0.074 A 
ATOM      5  C   UNL d   1      58.978  -9.818  31.864  0.00  0.00     0.050 A 
ATOM      6  O   UNL d   1      60.965  -9.817  32.661  0.00  0.00    -0.259 OA
ATOM      7  C   UNL d   1      58.051  -9.818  32.952  0.00  0.00     0.018 A 
ATOM      8  C   UNL d   1      58.353  -9.818  31.319  0.00  0.00     0.008 A 
ATOM      9  C   UNL d   1      57.425  -9.818  32.412  0.00  0.00     0.002 A 
ATOM     10  C   UNL d   1      57.574  -9.818  31.605  0.00  0.00     0.001 A 
ENDROOT
BRANCH   2  11
ATOM     11  C   UNL d   1      59.656  -9.818  33.891  0.00  0.00     0.110 C 
BRANCH  11  12
ATOM     12  C   UNL d   1      59.854  -9.124  34.287  0.00  0.00     0.142 C 
BRANCH  12  13
ATOM     13  O   UNL d   1      59.911  -9.105  35.112  0.00  0.00    -0.304 OA
BRANCH  13  14
ATOM     14  C   UNL d   1      59.948  -8.384  35.511  0.00  0.00     0.100 A 
ATOM     15  C   UNL d   1      59.272  -8.080  35.875  0.00  0.00     0.025 A 
ATOM     16  C   UNL d   1      59.309  -7.362  36.272  0.00  0.00     0.002 A 
ATOM     17  C   UNL d   1      60.022  -6.949  36.303  0.00  0.00     0.000 A 
ATOM     18  C   UNL d   1      60.699  -7.256  35.937  0.00  0.00     0.002 A 
ATOM     19  C   UNL d   1      60.652  -7.976  35.542  0.00  0.00     0.025 A 
ENDBRANCH  13  14
ENDBRANCH  12  13
ENDBRANCH  11  12
ENDBRANCH   2  11
TORSDOF 4
ENDMDL
MODEL 4
REMARK VINA RESULT:      -3.7      1.821      4.588
REMARK  4 active torsions:
REMARK  status: ('A' for Active; 'I' for Inactive)
REMARK    1  A    between atoms: C_7  and  N_2 
REMARK    2  A    between atoms: C_10  and  C_7 
REMARK    3  A    between atoms: O_8  and  C_10 
REMARK    4  A    between atoms: C_9  and  O_8 
ROOT
ATOM      1  C   UNL d   1      57.659   0.660  33.045  0.00  0.00     0.296 A 
ATOM      2  N   UNL d   1      57.021   0.658  32.525  0.00  0.00    -0.266 N 
ATOM      3  S   UNL d   1      57.350   0.635  33.825  0.00  0.00    -0.025 SA
ATOM      4  C   UNL d   1      56.322   0.633  32.972  0.00  0.00     0.074 A 
ATOM      5  C   UNL d   1      56.524   0.619  33.768  0.00  0.00     0.050 A 
ATOM      6  O   UNL d   1      58.454   0.681  32.844  0.00  0.00    -0.259 OA
ATOM      7  C   UNL d   1      55.528   0.622  32.743  0.00  0.00     0.018 A 
ATOM      8  C   UNL d   1      55.936   0.592  34.353  0.00  0.00     0.008 A 
ATOM      9  C   UNL d   1      54.938   0.596  33.322  0.00  0.00     0.002 A 
ATOM     10  C   UNL d   1      55.140   0.581  34.118  0.00  0.00     0.001 A 
ENDROOT
BRANCH   2  11
ATOM     11  C   UNL d   1      57.068   0.679  31.702  0.00  0.00     0.110 C 
BRANCH  11  12
ATOM     12  C   UNL d   1      57.548   0.146  31.298  0.00  0.00     0.142 C 
BRANCH  12  13
ATOM     13  O   UNL d   1      57.407  -0.039  30.504  0.00  0.00    -0.304 OA
BRANCH  13  14
ATOM     14  C   UNL d   1      58.008  -0.355  30.036  0.00  0.00     0.100 A 
ATOM     15  C   UNL d   1      58.133  -1.171  30.023  0.00  0.00     0.025 A 
ATOM     16  C   UNL d   1      58.731  -1.485  29.557  0.00  0.00     0.002 A 
ATOM     17  C   UNL d   1      59.205  -0.982  29.106  0.00  0.00     0.000 A 
ATOM     18  C   UNL d   1      59.078  -0.164  29.122  0.00  0.00     0.002 A 
ATOM     19  C   UNL d   1      58.475   0.142  29.591  0.00  0.00     0.025 A 
ENDBRANCH  13  14
ENDBRANCH  12  13
ENDBRANCH  11  12
ENDBRANCH   2  11
TORSDOF 4
ENDMDL
MODEL 5
REMARK VINA RESULT:      -1.6      2.486      5.379
REMARK  4 active torsions:
REMARK  status: ('A' for Active; 'I' for Inactive)
REMARK    1  A    between atoms: C_7  and  N_2 
REMARK    2  A    between atoms: C_10  and  C_7 
REMARK    3  A    between atoms: O_8  and  C_10 
REMARK    4  A    between atoms: C_9  and  O_8 
ROOT
ATOM      1  C   UNL d   1      56.343   0.678  34.241  0.00  0.00     0.296 A 
ATOM      2  N   UNL d   1      55.754   0.676  33.666  0.00  0.00    -0.266 N 
ATOM      3  S   UNL d   1      55.966   0.678  34.990  0.00  0.00    -0.025 SA
ATOM      4  C   UNL d   1      55.018   0.675  34.049  0.00  0.00     0.074 A 
ATOM      5  C   UNL d   1      55.148   0.676  34.859  0.00  0.00     0.050 A 
ATOM      6  O   UNL d   1      57.154   0.680  34.111  0.00  0.00    -0.259 OA
ATOM      7  C   UNL d   1      54.247   0.672  33.750  0.00  0.00     0.018 A 
ATOM      8  C   UNL d   1      54.510   0.675  35.390  0.00  0.00     0.008 A 
ATOM      9  C   UNL d   1      53.608   0.672  34.275  0.00  0.00     0.002 A 
ATOM     10  C   UNL d   1      53.738   0.673  35.085  0.00  0.00     0.001 A 
ENDROOT
BRANCH   2  11
ATOM     11  C   UNL d   1      55.874   0.675  32.849  0.00  0.00     0.110 C 
BRANCH  11  12
ATOM     12  C   UNL d   1      56.459   0.202  32.515  0.00  0.00     0.142 C 
BRANCH  12  13
ATOM     13  O   UNL d   1      56.371  -0.111  31.754  0.00  0.00    -0.304 OA
BRANCH  13  14
ATOM     14  C   UNL d   1      57.026  -0.195  31.260  0.00  0.00     0.100 A 
ATOM     15  C   UNL d   1      57.307  -0.949  31.074  0.00  0.00     0.025 A 
ATOM     16  C   UNL d   1      57.959  -1.032  30.582  0.00  0.00     0.002 A 
ATOM     17  C   UNL d   1      58.329  -0.361  30.276  0.00  0.00     0.000 A 
ATOM     18  C   UNL d   1      58.045   0.394  30.465  0.00  0.00     0.002 A 
ATOM     19  C   UNL d   1      57.391   0.467  30.959  0.00  0.00     0.025 A 
ENDBRANCH  13  14
ENDBRANCH  12  13
ENDBRANCH  11  12
ENDBRANCH   2  11
TORSDOF 4
ENDMDL
