MODEL 1
REMARK VINA RESULT:      -3.5      0.000      0.000
REMARK  3 active torsions:
REMARK  status: ('A' for Active; 'I' for Inactive)
REMARK       I    between atoms: N_4  and  C_1 
REMARK    1  A    between atoms: O_11  and  C_3 
REMARK    2  A    between atoms: C_6  and  N_4 
REMARK    3  A    between atoms: O_12  and  C_7 
ROOT
ATOM      1  C   UNL d   1     -41.342-122.336 -50.819  0.00  0.00     0.046 A 
ATOM      2  C   UNL d   1     -41.232-122.296 -51.634  0.00  0.00     0.118 A 
ATOM      3  C   UNL d   1     -41.452-123.068 -50.449  0.00  0.00     0.102 A 
ATOM      4  C   UNL d   1     -41.232-122.990 -52.083  0.00  0.00     0.116 A 
ATOM      5  C   UNL d   1     -41.342-123.723 -51.714  0.00  0.00     0.028 A 
ATOM      6  C   UNL d   1     -41.452-123.757 -50.897  0.00  0.00     0.022 A 
ENDROOT
BRANCH   3   7
ATOM      7  N   UNL d   1     -41.562-123.107 -49.630  0.00  0.00    -0.056 NA
ATOM      8  C   UNL d   1     -42.303-123.253 -49.317  0.00  0.00     0.787 C 
ATOM      9  N   UNL d   1     -42.412-123.291 -48.508  0.00  0.00     0.064 N 
ATOM     10  N   UNL d   1     -42.945-123.363 -49.827  0.00  0.00     0.064 N 
ENDBRANCH   3   7
BRANCH   2  11
ATOM     11  O   UNL d   1     -41.123-121.571 -51.999  0.00  0.00    -0.326 OA
ATOM     12  C   UNL d   1     -41.169-120.878 -51.559  0.00  0.00     0.181 C 
ENDBRANCH   2  11
BRANCH   4  13
ATOM     13  O   UNL d   1     -41.123-122.952 -52.893  0.00  0.00    -0.326 OA
ATOM     14  C   UNL d   1     -41.206-123.631 -53.352  0.00  0.00     0.181 C 
ENDBRANCH   4  13
TORSDOF 3
ENDMDL
MODEL 2
REMARK VINA RESULT:      -3.2      2.406      3.186
REMARK  3 active torsions:
REMARK  status: ('A' for Active; 'I' for Inactive)
REMARK       I    between atoms: N_4  and  C_1 
REMARK    1  A    between atoms: O_11  and  C_3 
REMARK    2  A    between atoms: C_6  and  N_4 
REMARK    3  A    between atoms: O_12  and  C_7 
ROOT
ATOM      1  C   UNL d   1     -41.144-122.003 -52.601  0.00  0.00     0.046 A 
ATOM      2  C   UNL d   1     -41.151-122.155 -51.792  0.00  0.00     0.118 A 
ATOM      3  C   UNL d   1     -41.130-122.631 -53.141  0.00  0.00     0.102 A 
ATOM      4  C   UNL d   1     -41.144-122.935 -51.519  0.00  0.00     0.116 A 
ATOM      5  C   UNL d   1     -41.130-123.563 -52.059  0.00  0.00     0.028 A 
ATOM      6  C   UNL d   1     -41.123-123.406 -52.869  0.00  0.00     0.022 A 
ENDROOT
BRANCH   3   7
ATOM      7  N   UNL d   1     -41.123-122.477 -53.954  0.00  0.00    -0.056 NA
ATOM      8  C   UNL d   1     -41.588-122.915 -54.463  0.00  0.00     0.787 C 
ATOM      9  N   UNL d   1     -41.581-122.763 -55.267  0.00  0.00     0.064 N 
ATOM     10  N   UNL d   1     -42.068-123.517 -54.160  0.00  0.00     0.064 N 
ENDBRANCH   3   7
BRANCH   2  11
ATOM     11  O   UNL d   1     -41.165-121.534 -51.257  0.00  0.00    -0.326 OA
ATOM     12  C   UNL d   1     -41.377-120.781 -51.508  0.00  0.00     0.181 C 
ENDBRANCH   2  11
BRANCH   4  13
ATOM     13  O   UNL d   1     -41.151-123.087 -50.715  0.00  0.00    -0.326 OA
ATOM     14  C   UNL d   1     -41.412-123.817 -50.436  0.00  0.00     0.181 C 
ENDBRANCH   4  13
TORSDOF 3
ENDMDL
MODEL 3
REMARK VINA RESULT:      -2.7      2.150      3.337
REMARK  3 active torsions:
REMARK  status: ('A' for Active; 'I' for Inactive)
REMARK       I    between atoms: N_4  and  C_1 
REMARK    1  A    between atoms: O_11  and  C_3 
REMARK    2  A    between atoms: C_6  and  N_4 
REMARK    3  A    between atoms: O_12  and  C_7 
ROOT
ATOM      1  C   UNL d   1     -42.550-123.154 -50.187  0.00  0.00     0.046 A 
ATOM      2  C   UNL d   1     -42.554-123.320 -49.381  0.00  0.00     0.118 A 
ATOM      3  C   UNL d   1     -41.832-123.096 -50.595  0.00  0.00     0.102 A 
ATOM      4  C   UNL d   1     -41.840-123.429 -48.979  0.00  0.00     0.116 A 
ATOM      5  C   UNL d   1     -41.123-123.371 -49.387  0.00  0.00     0.028 A 
ATOM      6  C   UNL d   1     -41.123-123.204 -50.195  0.00  0.00     0.022 A 
ENDROOT
BRANCH   3   7
ATOM      7  N   UNL d   1     -41.829-122.929 -51.406  0.00  0.00    -0.056 NA
ATOM      8  C   UNL d   1     -41.574-122.202 -51.679  0.00  0.00     0.787 C 
ATOM      9  N   UNL d   1     -41.571-122.037 -52.480  0.00  0.00     0.064 N 
ATOM     10  N   UNL d   1     -41.318-121.631 -51.138  0.00  0.00     0.064 N 
ENDBRANCH   3   7
BRANCH   2  11
ATOM     11  O   UNL d   1     -43.265-123.377 -48.976  0.00  0.00    -0.326 OA
ATOM     12  C   UNL d   1     -43.903-123.764 -49.321  0.00  0.00     0.181 C 
ENDBRANCH   2  11
BRANCH   4  13
ATOM     13  O   UNL d   1     -41.843-123.594 -48.178  0.00  0.00    -0.326 OA
ATOM     14  C   UNL d   1     -41.181-123.420 -47.719  0.00  0.00     0.181 C 
ENDBRANCH   4  13
TORSDOF 3
ENDMDL
MODEL 4
REMARK VINA RESULT:      -2.2      1.350      1.901
REMARK  3 active torsions:
REMARK  status: ('A' for Active; 'I' for Inactive)
REMARK       I    between atoms: N_4  and  C_1 
REMARK    1  A    between atoms: O_11  and  C_3 
REMARK    2  A    between atoms: C_6  and  N_4 
REMARK    3  A    between atoms: O_12  and  C_7 
ROOT
ATOM      1  C   UNL d   1     -42.488-122.757 -49.460  0.00  0.00     0.046 A 
ATOM      2  C   UNL d   1     -42.211-122.695 -50.233  0.00  0.00     0.118 A 
ATOM      3  C   UNL d   1     -42.163-123.320 -48.947  0.00  0.00     0.102 A 
ATOM      4  C   UNL d   1     -41.609-123.196 -50.497  0.00  0.00     0.116 A 
ATOM      5  C   UNL d   1     -41.285-123.759 -49.984  0.00  0.00     0.028 A 
ATOM      6  C   UNL d   1     -41.565-123.817 -49.210  0.00  0.00     0.022 A 
ENDROOT
BRANCH   3   7
ATOM      7  N   UNL d   1     -42.442-123.381 -48.171  0.00  0.00    -0.056 NA
ATOM      8  C   UNL d   1     -41.955-123.200 -47.539  0.00  0.00     0.787 C 
ATOM      9  N   UNL d   1     -42.230-123.261 -46.772  0.00  0.00     0.064 N 
ATOM     10  N   UNL d   1     -41.178-122.955 -47.683  0.00  0.00     0.064 N 
ENDBRANCH   3   7
BRANCH   2  11
ATOM     11  O   UNL d   1     -42.532-122.138 -50.742  0.00  0.00    -0.326 OA
ATOM     12  C   UNL d   1     -43.263-121.802 -50.574  0.00  0.00     0.181 C 
ENDBRANCH   2  11
BRANCH   4  13
ATOM     13  O   UNL d   1     -41.334-123.136 -51.264  0.00  0.00    -0.326 OA
ATOM     14  C   UNL d   1     -41.166-123.817 -51.697  0.00  0.00     0.181 C 
ENDBRANCH   4  13
TORSDOF 3
ENDMDL
MODEL 5
REMARK VINA RESULT:      -1.4      2.594      3.648
REMARK  3 active torsions:
REMARK  status: ('A' for Active; 'I' for Inactive)
REMARK       I    between atoms: N_4  and  C_1 
REMARK    1  A    between atoms: O_11  and  C_3 
REMARK    2  A    between atoms: C_6  and  N_4 
REMARK    3  A    between atoms: O_12  and  C_7 
ROOT
ATOM      1  C   UNL d   1     -41.436-122.919 -52.818  0.00  0.00     0.046 A 
ATOM      2  C   UNL d   1     -41.574-122.798 -52.015  0.00  0.00     0.118 A 
ATOM      3  C   UNL d   1     -41.273-122.275 -53.313  0.00  0.00     0.102 A 
ATOM      4  C   UNL d   1     -41.551-122.032 -51.704  0.00  0.00     0.116 A 
ATOM      5  C   UNL d   1     -41.388-121.389 -52.199  0.00  0.00     0.028 A 
ATOM      6  C   UNL d   1     -41.249-121.515 -53.003  0.00  0.00     0.022 A 
ENDROOT
BRANCH   3   7
ATOM      7  N   UNL d   1     -41.134-122.398 -54.119  0.00  0.00    -0.056 NA
ATOM      8  C   UNL d   1     -41.718-122.246 -54.669  0.00  0.00     0.787 C 
ATOM      9  N   UNL d   1     -41.581-122.367 -55.466  0.00  0.00     0.064 N 
ATOM     10  N   UNL d   1     -42.455-121.967 -54.414  0.00  0.00     0.064 N 
ENDBRANCH   3   7
BRANCH   2  11
ATOM     11  O   UNL d   1     -41.736-123.435 -51.525  0.00  0.00    -0.326 OA
ATOM     12  C   UNL d   1     -41.122-123.817 -51.135  0.00  0.00     0.181 C 
ENDBRANCH   2  11
BRANCH   4  13
ATOM     13  O   UNL d   1     -41.688-121.911 -50.907  0.00  0.00    -0.326 OA
ATOM     14  C   UNL d   1     -41.818-121.148 -50.623  0.00  0.00     0.181 C 
ENDBRANCH   4  13
TORSDOF 3
ENDMDL
MODEL 6
REMARK VINA RESULT:      -1.2      1.603      2.481
REMARK  3 active torsions:
REMARK  status: ('A' for Active; 'I' for Inactive)
REMARK       I    between atoms: N_4  and  C_1 
REMARK    1  A    between atoms: O_11  and  C_3 
REMARK    2  A    between atoms: C_6  and  N_4 
REMARK    3  A    between atoms: O_12  and  C_7 
ROOT
ATOM      1  C   UNL d   1     -41.155-122.916 -52.965  0.00  0.00     0.046 A 
ATOM      2  C   UNL d   1     -41.362-122.621 -53.705  0.00  0.00     0.118 A 
ATOM      3  C   UNL d   1     -41.333-122.484 -52.281  0.00  0.00     0.102 A 
ATOM      4  C   UNL d   1     -41.747-121.892 -53.766  0.00  0.00     0.116 A 
ATOM      5  C   UNL d   1     -41.924-121.460 -53.082  0.00  0.00     0.028 A 
ATOM      6  C   UNL d   1     -41.715-121.759 -52.342  0.00  0.00     0.022 A 
ENDROOT
BRANCH   3   7
ATOM      7  N   UNL d   1     -41.125-122.781 -51.538  0.00  0.00    -0.056 NA
ATOM      8  C   UNL d   1     -41.509-122.523 -50.865  0.00  0.00     0.787 C 
ATOM      9  N   UNL d   1     -41.303-122.817 -50.130  0.00  0.00     0.064 N 
ATOM     10  N   UNL d   1     -42.111-121.959 -50.932  0.00  0.00     0.064 N 
ENDBRANCH   3   7
BRANCH   2  11
ATOM     11  O   UNL d   1     -41.186-123.049 -54.382  0.00  0.00    -0.326 OA
ATOM     12  C   UNL d   1     -41.552-123.772 -54.517  0.00  0.00     0.181 C 
ENDBRANCH   2  11
BRANCH   4  13
ATOM     13  O   UNL d   1     -41.953-121.598 -54.500  0.00  0.00    -0.326 OA
ATOM     14  C   UNL d   1     -42.676-121.217 -54.604  0.00  0.00     0.181 C 
ENDBRANCH   4  13
TORSDOF 3
ENDMDL
