MODEL 1
REMARK VINA RESULT:     -10.6      0.000      0.000
REMARK  3 active torsions:
REMARK  status: ('A' for Active; 'I' for Inactive)
REMARK    1  A    between atoms: N_6  and  C_1 
REMARK    2  A    between atoms: C_11  and  C_2 
REMARK    3  A    between atoms: C_5  and  C_8 
REMARK       I    between atoms: C_8  and  N_6 
ROOT
ATOM      1  N   UNL d   1      53.892  34.329  54.197  0.00  0.00    -0.200 NA
ATOM      2  C   UNL d   1      53.295  34.891  54.034  0.00  0.00     0.302 C 
ATOM      3  O   UNL d   1      53.404  35.688  54.268  0.00  0.00    -0.263 OA
ENDROOT
BRANCH   1   4
ATOM      4  C   UNL d   1      53.790  33.577  53.977  0.00  0.00     0.119 A 
ATOM      5  C   UNL d   1      53.956  32.955  54.405  0.00  0.00     0.084 A 
ATOM      6  C   UNL d   1      53.769  32.320  53.972  0.00  0.00     0.013 A 
ATOM      7  C   UNL d   1      53.824  31.542  54.136  0.00  0.00     0.001 A 
ATOM      8  C   UNL d   1      53.493  32.560  53.291  0.00  0.00     0.031 A 
ATOM      9  C   UNL d   1      53.590  31.022  53.585  0.00  0.00     0.001 A 
ATOM     10  C   UNL d   1      53.311  31.275  52.894  0.00  0.00     0.006 A 
ATOM     11  S   UNL d   1      53.500  33.338  53.279  0.00  0.00    -0.068 SA
BRANCH   5  12
ATOM     12  C   UNL d   1      54.253  32.942  55.131  0.00  0.00     0.299 C 
ATOM     13  O   UNL d   1      53.812  32.655  55.726  0.00  0.00    -0.264 OA
ATOM     14  N   UNL d   1      54.979  33.206  55.282  0.00  0.00    -0.102 N 
ENDBRANCH   5  12
ENDBRANCH   1   4
BRANCH   2  15
ATOM     15  C   UNL d   1      52.601  34.669  53.645  0.00  0.00     0.158 A 
ATOM     16  O   UNL d   1      51.914  34.361  53.991  0.00  0.00    -0.302 OA
ATOM     17  C   UNL d   1      51.356  34.214  53.401  0.00  0.00     0.100 A 
ATOM     18  C   UNL d   1      50.581  33.912  53.414  0.00  0.00     0.025 A 
ATOM     19  C   UNL d   1      51.696  34.434  52.672  0.00  0.00     0.025 A 
ATOM     20  C   UNL d   1      50.148  33.827  52.718  0.00  0.00     0.002 A 
ATOM     21  C   UNL d   1      50.485  34.047  51.979  0.00  0.00     0.000 A 
ATOM     22  C   UNL d   1      51.264  34.350  51.967  0.00  0.00     0.002 A 
ATOM     23  C   UNL d   1      52.464  34.714  52.822  0.00  0.00     0.032 A 
ENDBRANCH   2  15
TORSDOF 3
ENDMDL
MODEL 2
REMARK VINA RESULT:      -9.6      0.943      3.312
REMARK  3 active torsions:
REMARK  status: ('A' for Active; 'I' for Inactive)
REMARK    1  A    between atoms: N_6  and  C_1 
REMARK    2  A    between atoms: C_11  and  C_2 
REMARK    3  A    between atoms: C_5  and  C_8 
REMARK       I    between atoms: C_8  and  N_6 
ROOT
ATOM      1  N   UNL d   1      53.820  34.159  54.888  0.00  0.00    -0.200 NA
ATOM      2  C   UNL d   1      54.324  33.494  54.946  0.00  0.00     0.302 C 
ATOM      3  O   UNL d   1      55.018  33.543  55.412  0.00  0.00    -0.263 OA
ENDROOT
BRANCH   1   4
ATOM      4  C   UNL d   1      53.164  34.115  54.449  0.00  0.00     0.119 A 
ATOM      5  C   UNL d   1      52.894  34.671  53.985  0.00  0.00     0.084 A 
ATOM      6  C   UNL d   1      52.231  34.394  53.655  0.00  0.00     0.013 A 
ATOM      7  C   UNL d   1      51.727  34.729  53.135  0.00  0.00     0.001 A 
ATOM      8  C   UNL d   1      52.105  33.678  53.919  0.00  0.00     0.031 A 
ATOM      9  C   UNL d   1      51.096  34.311  52.898  0.00  0.00     0.001 A 
ATOM     10  C   UNL d   1      50.976  33.583  53.173  0.00  0.00     0.006 A 
ATOM     11  S   UNL d   1      52.677  33.491  54.413  0.00  0.00    -0.068 SA
BRANCH   5  12
ATOM     12  C   UNL d   1      53.207  35.379  53.856  0.00  0.00     0.299 C 
ATOM     13  O   UNL d   1      53.091  35.957  54.387  0.00  0.00    -0.264 OA
ATOM     14  N   UNL d   1      53.633  35.528  53.212  0.00  0.00    -0.102 N 
ENDBRANCH   5  12
ENDBRANCH   1   4
BRANCH   2  15
ATOM     15  C   UNL d   1      54.143  32.793  54.550  0.00  0.00     0.158 A 
ATOM     16  O   UNL d   1      54.312  32.610  53.759  0.00  0.00    -0.302 OA
ATOM     17  C   UNL d   1      54.034  31.852  53.591  0.00  0.00     0.100 A 
ATOM     18  C   UNL d   1      54.045  31.382  52.905  0.00  0.00     0.025 A 
ATOM     19  C   UNL d   1      53.684  31.551  54.286  0.00  0.00     0.025 A 
ATOM     20  C   UNL d   1      53.716  30.626  52.904  0.00  0.00     0.002 A 
ATOM     21  C   UNL d   1      53.361  30.317  53.602  0.00  0.00     0.000 A 
ATOM     22  C   UNL d   1      53.351  30.790  54.290  0.00  0.00     0.002 A 
ATOM     23  C   UNL d   1      53.751  32.132  54.878  0.00  0.00     0.032 A 
ENDBRANCH   2  15
TORSDOF 3
ENDMDL
MODEL 3
REMARK VINA RESULT:      -8.7      1.484      2.993
REMARK  3 active torsions:
REMARK  status: ('A' for Active; 'I' for Inactive)
REMARK    1  A    between atoms: N_6  and  C_1 
REMARK    2  A    between atoms: C_11  and  C_2 
REMARK    3  A    between atoms: C_5  and  C_8 
REMARK       I    between atoms: C_8  and  N_6 
ROOT
ATOM      1  N   UNL d   1      52.539  34.032  52.911  0.00  0.00    -0.200 NA
ATOM      2  C   UNL d   1      52.108  33.405  52.562  0.00  0.00     0.302 C 
ATOM      3  O   UNL d   1      51.488  33.580  52.027  0.00  0.00    -0.263 OA
ENDROOT
BRANCH   1   4
ATOM      4  C   UNL d   1      53.124  33.869  53.417  0.00  0.00     0.119 A 
ATOM      5  C   UNL d   1      53.253  34.230  54.088  0.00  0.00     0.084 A 
ATOM      6  C   UNL d   1      53.890  33.892  54.412  0.00  0.00     0.013 A 
ATOM      7  C   UNL d   1      54.268  34.042  55.098  0.00  0.00     0.001 A 
ATOM      8  C   UNL d   1      54.140  33.334  53.939  0.00  0.00     0.031 A 
ATOM      9  C   UNL d   1      54.905  33.605  55.283  0.00  0.00     0.001 A 
ATOM     10  C   UNL d   1      55.152  33.039  54.794  0.00  0.00     0.006 A 
ATOM     11  S   UNL d   1      53.674  33.308  53.317  0.00  0.00    -0.068 SA
BRANCH   5  12
ATOM     12  C   UNL d   1      52.840  34.819  54.400  0.00  0.00     0.299 C 
ATOM     13  O   UNL d   1      52.296  34.660  54.956  0.00  0.00    -0.264 OA
ATOM     14  N   UNL d   1      52.953  35.564  54.173  0.00  0.00    -0.102 N 
ENDBRANCH   5  12
ENDBRANCH   1   4
BRANCH   2  15
ATOM     15  C   UNL d   1      52.288  32.620  52.741  0.00  0.00     0.158 A 
ATOM     16  O   UNL d   1      52.899  32.164  52.416  0.00  0.00    -0.302 OA
ATOM     17  C   UNL d   1      52.881  31.409  52.750  0.00  0.00     0.100 A 
ATOM     18  C   UNL d   1      53.346  30.729  52.642  0.00  0.00     0.025 A 
ATOM     19  C   UNL d   1      52.248  31.389  53.293  0.00  0.00     0.025 A 
ATOM     20  C   UNL d   1      53.191  30.038  53.064  0.00  0.00     0.002 A 
ATOM     21  C   UNL d   1      52.555  30.011  53.614  0.00  0.00     0.000 A 
ATOM     22  C   UNL d   1      52.087  30.695  53.721  0.00  0.00     0.002 A 
ATOM     23  C   UNL d   1      51.883  32.136  53.288  0.00  0.00     0.032 A 
ENDBRANCH   2  15
TORSDOF 3
ENDMDL
MODEL 4
REMARK VINA RESULT:      -8.4      1.208      2.305
REMARK  3 active torsions:
REMARK  status: ('A' for Active; 'I' for Inactive)
REMARK    1  A    between atoms: N_6  and  C_1 
REMARK    2  A    between atoms: C_11  and  C_2 
REMARK    3  A    between atoms: C_5  and  C_8 
REMARK       I    between atoms: C_8  and  N_6 
ROOT
ATOM      1  N   UNL d   1      53.579  32.636  53.395  0.00  0.00    -0.200 NA
ATOM      2  C   UNL d   1      52.948  32.358  52.922  0.00  0.00     0.302 C 
ATOM      3  O   UNL d   1      53.009  31.608  52.554  0.00  0.00    -0.263 OA
ENDROOT
BRANCH   1   4
ATOM      4  C   UNL d   1      53.524  33.344  53.743  0.00  0.00     0.119 A 
ATOM      5  C   UNL d   1      53.781  33.519  54.451  0.00  0.00     0.084 A 
ATOM      6  C   UNL d   1      53.611  34.282  54.574  0.00  0.00     0.013 A 
ATOM      7  C   UNL d   1      53.748  34.751  55.205  0.00  0.00     0.001 A 
ATOM      8  C   UNL d   1      53.256  34.560  53.946  0.00  0.00     0.031 A 
ATOM      9  C   UNL d   1      53.512  35.508  55.171  0.00  0.00     0.001 A 
ATOM     10  C   UNL d   1      53.151  35.782  54.527  0.00  0.00     0.006 A 
ATOM     11  S   UNL d   1      53.195  33.989  53.421  0.00  0.00    -0.068 SA
BRANCH   5  12
ATOM     12  C   UNL d   1      54.141  33.043  54.958  0.00  0.00     0.299 C 
ATOM     13  O   UNL d   1      53.707  32.625  55.475  0.00  0.00    -0.264 OA
ATOM     14  N   UNL d   1      54.925  32.970  54.967  0.00  0.00    -0.102 N 
ENDBRANCH   5  12
ENDBRANCH   1   4
BRANCH   2  15
ATOM     15  C   UNL d   1      52.268  32.815  52.816  0.00  0.00     0.158 A 
ATOM     16  O   UNL d   1      52.138  33.383  52.228  0.00  0.00    -0.302 OA
ATOM     17  C   UNL d   1      51.385  33.707  52.325  0.00  0.00     0.100 A 
ATOM     18  C   UNL d   1      50.958  34.288  51.912  0.00  0.00     0.025 A 
ATOM     19  C   UNL d   1      51.035  33.336  52.985  0.00  0.00     0.025 A 
ATOM     20  C   UNL d   1      50.197  34.501  52.144  0.00  0.00     0.002 A 
ATOM     21  C   UNL d   1      49.838  34.131  52.809  0.00  0.00     0.000 A 
ATOM     22  C   UNL d   1      50.268  33.547  53.225  0.00  0.00     0.002 A 
ATOM     23  C   UNL d   1      51.580  32.785  53.288  0.00  0.00     0.032 A 
ENDBRANCH   2  15
TORSDOF 3
ENDMDL
MODEL 5
REMARK VINA RESULT:      -8.2      1.599      3.777
REMARK  3 active torsions:
REMARK  status: ('A' for Active; 'I' for Inactive)
REMARK    1  A    between atoms: N_6  and  C_1 
REMARK    2  A    between atoms: C_11  and  C_2 
REMARK    3  A    between atoms: C_5  and  C_8 
REMARK       I    between atoms: C_8  and  N_6 
ROOT
ATOM      1  N   UNL d   1      52.687  31.723  53.023  0.00  0.00    -0.200 NA
ATOM      2  C   UNL d   1      53.331  31.476  53.497  0.00  0.00     0.302 C 
ATOM      3  O   UNL d   1      53.521  30.661  53.541  0.00  0.00    -0.263 OA
ENDROOT
BRANCH   1   4
ATOM      4  C   UNL d   1      52.506  32.491  52.980  0.00  0.00     0.119 A 
ATOM      5  C   UNL d   1      51.805  32.795  53.092  0.00  0.00     0.084 A 
ATOM      6  C   UNL d   1      51.875  33.577  52.996  0.00  0.00     0.013 A 
ATOM      7  C   UNL d   1      51.333  34.160  53.046  0.00  0.00     0.001 A 
ATOM      8  C   UNL d   1      52.612  33.739  52.828  0.00  0.00     0.031 A 
ATOM      9  C   UNL d   1      51.568  34.907  52.920  0.00  0.00     0.001 A 
ATOM     10  C   UNL d   1      52.321  35.062  52.750  0.00  0.00     0.006 A 
ATOM     11  S   UNL d   1      53.016  33.074  52.815  0.00  0.00    -0.068 SA
BRANCH   5  12
ATOM     12  C   UNL d   1      51.142  32.414  53.266  0.00  0.00     0.299 C 
ATOM     13  O   UNL d   1      50.785  32.555  53.961  0.00  0.00    -0.264 OA
ATOM     14  N   UNL d   1      50.823  31.895  52.768  0.00  0.00    -0.102 N 
ENDBRANCH   5  12
ENDBRANCH   1   4
BRANCH   2  15
ATOM     15  C   UNL d   1      53.778  32.026  53.920  0.00  0.00     0.158 A 
ATOM     16  O   UNL d   1      53.644  32.285  54.696  0.00  0.00    -0.302 OA
ATOM     17  C   UNL d   1      54.222  32.837  54.901  0.00  0.00     0.100 A 
ATOM     18  C   UNL d   1      54.369  33.276  55.591  0.00  0.00     0.025 A 
ATOM     19  C   UNL d   1      54.729  32.928  54.244  0.00  0.00     0.025 A 
ATOM     20  C   UNL d   1      55.005  33.798  55.634  0.00  0.00     0.002 A 
ATOM     21  C   UNL d   1      55.519  33.895  54.975  0.00  0.00     0.000 A 
ATOM     22  C   UNL d   1      55.371  33.453  54.282  0.00  0.00     0.002 A 
ATOM     23  C   UNL d   1      54.454  32.428  53.639  0.00  0.00     0.032 A 
ENDBRANCH   2  15
TORSDOF 3
ENDMDL
MODEL 6
REMARK VINA RESULT:      -7.9      1.412      3.067
REMARK  3 active torsions:
REMARK  status: ('A' for Active; 'I' for Inactive)
REMARK    1  A    between atoms: N_6  and  C_1 
REMARK    2  A    between atoms: C_11  and  C_2 
REMARK    3  A    between atoms: C_5  and  C_8 
REMARK       I    between atoms: C_8  and  N_6 
ROOT
ATOM      1  N   UNL d   1      52.135  34.354  53.038  0.00  0.00    -0.200 NA
ATOM      2  C   UNL d   1      52.570  34.851  53.552  0.00  0.00     0.302 C 
ATOM      3  O   UNL d   1      52.395  35.669  53.579  0.00  0.00    -0.263 OA
ENDROOT
BRANCH   1   4
ATOM      4  C   UNL d   1      52.299  33.581  53.011  0.00  0.00     0.119 A 
ATOM      5  C   UNL d   1      51.780  33.009  53.052  0.00  0.00     0.084 A 
ATOM      6  C   UNL d   1      52.183  32.330  53.003  0.00  0.00     0.013 A 
ATOM      7  C   UNL d   1      51.933  31.573  53.015  0.00  0.00     0.001 A 
ATOM      8  C   UNL d   1      52.935  32.495  52.934  0.00  0.00     0.031 A 
ATOM      9  C   UNL d   1      52.473  30.995  52.956  0.00  0.00     0.001 A 
ATOM     10  C   UNL d   1      53.237  31.173  52.886  0.00  0.00     0.006 A 
ATOM     11  S   UNL d   1      53.023  33.268  52.938  0.00  0.00    -0.068 SA
BRANCH   5  12
ATOM     12  C   UNL d   1      51.003  33.075  53.126  0.00  0.00     0.299 C 
ATOM     13  O   UNL d   1      50.664  32.909  53.825  0.00  0.00    -0.264 OA
ATOM     14  N   UNL d   1      50.550  33.301  52.523  0.00  0.00    -0.102 N 
ENDBRANCH   5  12
ENDBRANCH   1   4
BRANCH   2  15
ATOM     15  C   UNL d   1      53.168  34.542  54.030  0.00  0.00     0.158 A 
ATOM     16  O   UNL d   1      53.079  34.199  54.779  0.00  0.00    -0.302 OA
ATOM     17  C   UNL d   1      53.819  33.964  55.059  0.00  0.00     0.100 A 
ATOM     18  C   UNL d   1      54.070  33.597  55.761  0.00  0.00     0.025 A 
ATOM     19  C   UNL d   1      54.384  34.161  54.478  0.00  0.00     0.025 A 
ATOM     20  C   UNL d   1      54.866  33.426  55.889  0.00  0.00     0.002 A 
ATOM     21  C   UNL d   1      55.441  33.622  55.306  0.00  0.00     0.000 A 
ATOM     22  C   UNL d   1      55.187  33.992  54.601  0.00  0.00     0.002 A 
ATOM     23  C   UNL d   1      53.982  34.518  53.842  0.00  0.00     0.032 A 
ENDBRANCH   2  15
TORSDOF 3
ENDMDL
