MODEL 1
REMARK VINA RESULT:      -8.7      0.000      0.000
REMARK  2 active torsions:
REMARK  status: ('A' for Active; 'I' for Inactive)
REMARK       I    between atoms: C_6  and  N_7 
REMARK    1  A    between atoms: C_9  and  C_6 
REMARK    2  A    between atoms: N_7  and  C_13 
ROOT
ATOM      1  N   UNL d   1     -51.064  14.872  22.210  0.00  0.00    -0.169 NA
ATOM      2  C   UNL d   1     -50.880  14.185  21.801  0.00  0.00     0.282 A 
ATOM      3  C   UNL d   1     -50.812  14.783  22.985  0.00  0.00     0.282 A 
ATOM      4  C   UNL d   1     -50.509  13.664  22.331  0.00  0.00     0.064 A 
ATOM      5  C   UNL d   1     -50.471  14.040  23.056  0.00  0.00     0.063 A 
ATOM      6  C   UNL d   1     -50.125  13.650  23.698  0.00  0.00     0.006 A 
ATOM      7  C   UNL d   1     -50.207  12.902  22.229  0.00  0.00     0.024 A 
ATOM      8  O   UNL d   1     -51.044  14.053  21.004  0.00  0.00    -0.265 OA
ATOM      9  O   UNL d   1     -50.884  15.338  23.591  0.00  0.00    -0.265 OA
ATOM     10  C   UNL d   1     -49.864  12.516  22.866  0.00  0.00     0.085 A 
ATOM     11  C   UNL d   1     -49.821  12.889  23.605  0.00  0.00     0.019 A 
ENDROOT
BRANCH  10  12
ATOM     12  N   UNL d   1     -49.563  11.754  22.765  0.00  0.00    -0.208 NA
ATOM     13  C   UNL d   1     -48.756  11.645  22.656  0.00  0.00     0.279 C 
ATOM     14  O   UNL d   1     -48.460  10.885  22.556  0.00  0.00    -0.265 OA
BRANCH  13  15
ATOM     15  C   UNL d   1     -48.248  12.284  22.647  0.00  0.00     0.058 A 
ATOM     16  C   UNL d   1     -48.054  12.635  21.924  0.00  0.00     0.005 A 
ATOM     17  C   UNL d   1     -47.545  13.278  21.902  0.00  0.00     0.000 A 
ATOM     18  C   UNL d   1     -47.222  13.578  22.609  0.00  0.00     0.000 A 
ATOM     19  C   UNL d   1     -47.419  13.224  23.329  0.00  0.00     0.000 A 
ATOM     20  C   UNL d   1     -46.705  14.229  22.595  0.00  0.00     0.000 C 
ATOM     21  C   UNL d   1     -47.931  12.580  23.339  0.00  0.00     0.005 A 
ENDBRANCH  13  15
ENDBRANCH  10  12
TORSDOF 2
ENDMDL
MODEL 2
REMARK VINA RESULT:      -8.6      1.468      3.411
REMARK  2 active torsions:
REMARK  status: ('A' for Active; 'I' for Inactive)
REMARK       I    between atoms: C_6  and  N_7 
REMARK    1  A    between atoms: C_9  and  C_6 
REMARK    2  A    between atoms: N_7  and  C_13 
ROOT
ATOM      1  N   UNL d   1     -46.429  12.748  23.374  0.00  0.00    -0.169 NA
ATOM      2  C   UNL d   1     -47.093  12.277  23.269  0.00  0.00     0.282 A 
ATOM      3  C   UNL d   1     -46.473  13.372  22.843  0.00  0.00     0.282 A 
ATOM      4  C   UNL d   1     -47.553  12.614  22.665  0.00  0.00     0.064 A 
ATOM      5  C   UNL d   1     -47.165  13.287  22.409  0.00  0.00     0.063 A 
ATOM      6  C   UNL d   1     -47.496  13.742  21.804  0.00  0.00     0.006 A 
ATOM      7  C   UNL d   1     -48.271  12.382  22.330  0.00  0.00     0.024 A 
ATOM      8  O   UNL d   1     -47.257  11.592  23.698  0.00  0.00    -0.265 OA
ATOM      9  O   UNL d   1     -45.924  13.980  22.755  0.00  0.00    -0.265 OA
ATOM     10  C   UNL d   1     -48.599  12.834  21.729  0.00  0.00     0.085 A 
ATOM     11  C   UNL d   1     -48.213  13.518  21.463  0.00  0.00     0.019 A 
ENDROOT
BRANCH  10  12
ATOM     12  N   UNL d   1     -49.317  12.603  21.393  0.00  0.00    -0.208 NA
ATOM     13  C   UNL d   1     -50.008  13.002  21.589  0.00  0.00     0.279 C 
ATOM     14  O   UNL d   1     -50.720  12.768  21.252  0.00  0.00    -0.265 OA
BRANCH  13  15
ATOM     15  C   UNL d   1     -49.991  13.626  22.115  0.00  0.00     0.058 A 
ATOM     16  C   UNL d   1     -49.842  14.388  21.832  0.00  0.00     0.005 A 
ATOM     17  C   UNL d   1     -49.823  15.024  22.351  0.00  0.00     0.000 A 
ATOM     18  C   UNL d   1     -49.954  14.902  23.165  0.00  0.00     0.000 A 
ATOM     19  C   UNL d   1     -50.103  14.138  23.443  0.00  0.00     0.000 A 
ATOM     20  C   UNL d   1     -49.937  15.541  23.696  0.00  0.00     0.000 C 
ATOM     21  C   UNL d   1     -50.120  13.508  22.913  0.00  0.00     0.005 A 
ENDBRANCH  13  15
ENDBRANCH  10  12
TORSDOF 2
ENDMDL
MODEL 3
REMARK VINA RESULT:      -8.4      2.035      4.027
REMARK  2 active torsions:
REMARK  status: ('A' for Active; 'I' for Inactive)
REMARK       I    between atoms: C_6  and  N_7 
REMARK    1  A    between atoms: C_9  and  C_6 
REMARK    2  A    between atoms: N_7  and  C_13 
ROOT
ATOM      1  N   UNL d   1     -45.249  12.199  22.659  0.00  0.00    -0.169 NA
ATOM      2  C   UNL d   1     -45.437  12.926  22.325  0.00  0.00     0.282 A 
ATOM      3  C   UNL d   1     -45.815  12.024  23.225  0.00  0.00     0.282 A 
ATOM      4  C   UNL d   1     -46.129  13.202  22.692  0.00  0.00     0.064 A 
ATOM      5  C   UNL d   1     -46.354  12.642  23.243  0.00  0.00     0.063 A 
ATOM      6  C   UNL d   1     -47.033  12.769  23.698  0.00  0.00     0.006 A 
ATOM      7  C   UNL d   1     -46.568  13.893  22.582  0.00  0.00     0.024 A 
ATOM      8  O   UNL d   1     -45.003  13.298  21.733  0.00  0.00    -0.265 OA
ATOM      9  O   UNL d   1     -45.843  11.348  23.696  0.00  0.00    -0.265 OA
ATOM     10  C   UNL d   1     -47.241  14.018  23.033  0.00  0.00     0.085 A 
ATOM     11  C   UNL d   1     -47.478  13.456  23.595  0.00  0.00     0.019 A 
ENDROOT
BRANCH  10  12
ATOM     12  N   UNL d   1     -47.681  14.708  22.924  0.00  0.00    -0.208 NA
ATOM     13  C   UNL d   1     -48.411  14.673  22.549  0.00  0.00     0.279 C 
ATOM     14  O   UNL d   1     -48.845  15.363  22.442  0.00  0.00    -0.265 OA
BRANCH  13  15
ATOM     15  C   UNL d   1     -48.707  13.960  22.283  0.00  0.00     0.058 A 
ATOM     16  C   UNL d   1     -48.566  13.731  21.502  0.00  0.00     0.005 A 
ATOM     17  C   UNL d   1     -48.858  13.016  21.223  0.00  0.00     0.000 A 
ATOM     18  C   UNL d   1     -49.298  12.521  21.728  0.00  0.00     0.000 A 
ATOM     19  C   UNL d   1     -49.437  12.754  22.508  0.00  0.00     0.000 A 
ATOM     20  C   UNL d   1     -49.598  11.796  21.453  0.00  0.00     0.000 C 
ATOM     21  C   UNL d   1     -49.139  13.473  22.777  0.00  0.00     0.005 A 
ENDBRANCH  13  15
ENDBRANCH  10  12
TORSDOF 2
ENDMDL
MODEL 4
REMARK VINA RESULT:      -7.8      2.029      3.384
REMARK  2 active torsions:
REMARK  status: ('A' for Active; 'I' for Inactive)
REMARK       I    between atoms: C_6  and  N_7 
REMARK    1  A    between atoms: C_9  and  C_6 
REMARK    2  A    between atoms: N_7  and  C_13 
ROOT
ATOM      1  N   UNL d   1     -45.708  14.139  22.215  0.00  0.00    -0.169 NA
ATOM      2  C   UNL d   1     -45.769  13.326  22.313  0.00  0.00     0.282 A 
ATOM      3  C   UNL d   1     -46.352  14.489  22.584  0.00  0.00     0.282 A 
ATOM      4  C   UNL d   1     -46.459  13.173  22.748  0.00  0.00     0.064 A 
ATOM      5  C   UNL d   1     -46.811  13.893  22.910  0.00  0.00     0.063 A 
ATOM      6  C   UNL d   1     -47.516  13.913  23.341  0.00  0.00     0.006 A 
ATOM      7  C   UNL d   1     -46.797  12.465  23.008  0.00  0.00     0.024 A 
ATOM      8  O   UNL d   1     -45.229  12.776  22.023  0.00  0.00    -0.265 OA
ATOM      9  O   UNL d   1     -46.514  15.296  22.623  0.00  0.00    -0.265 OA
ATOM     10  C   UNL d   1     -47.496  12.486  23.435  0.00  0.00     0.085 A 
ATOM     11  C   UNL d   1     -47.861  13.211  23.605  0.00  0.00     0.019 A 
ENDROOT
BRANCH  10  12
ATOM     12  N   UNL d   1     -47.834  11.778  23.695  0.00  0.00    -0.208 NA
ATOM     13  C   UNL d   1     -48.545  11.522  23.373  0.00  0.00     0.279 C 
ATOM     14  O   UNL d   1     -48.878  10.818  23.635  0.00  0.00    -0.265 OA
BRANCH  13  15
ATOM     15  C   UNL d   1     -48.922  11.961  22.797  0.00  0.00     0.058 A 
ATOM     16  C   UNL d   1     -49.491  12.517  23.021  0.00  0.00     0.005 A 
ATOM     17  C   UNL d   1     -49.876  12.965  22.451  0.00  0.00     0.000 A 
ATOM     18  C   UNL d   1     -49.694  12.859  21.645  0.00  0.00     0.000 A 
ATOM     19  C   UNL d   1     -49.125  12.302  21.426  0.00  0.00     0.000 A 
ATOM     20  C   UNL d   1     -50.080  13.308  21.062  0.00  0.00     0.000 C 
ATOM     21  C   UNL d   1     -48.744  11.858  22.006  0.00  0.00     0.005 A 
ENDBRANCH  13  15
ENDBRANCH  10  12
TORSDOF 2
ENDMDL
MODEL 5
REMARK VINA RESULT:      -7.8      1.621      2.221
REMARK  2 active torsions:
REMARK  status: ('A' for Active; 'I' for Inactive)
REMARK       I    between atoms: C_6  and  N_7 
REMARK    1  A    between atoms: C_9  and  C_6 
REMARK    2  A    between atoms: N_7  and  C_13 
ROOT
ATOM      1  N   UNL d   1     -50.706  12.386  22.330  0.00  0.00    -0.169 NA
ATOM      2  C   UNL d   1     -50.285  12.057  22.953  0.00  0.00     0.282 A 
ATOM      3  C   UNL d   1     -50.192  12.485  21.699  0.00  0.00     0.282 A 
ATOM      4  C   UNL d   1     -49.500  11.953  22.703  0.00  0.00     0.064 A 
ATOM      5  C   UNL d   1     -49.452  12.218  21.931  0.00  0.00     0.063 A 
ATOM      6  C   UNL d   1     -48.728  12.182  21.533  0.00  0.00     0.006 A 
ATOM      7  C   UNL d   1     -48.837  11.649  23.092  0.00  0.00     0.024 A 
ATOM      8  O   UNL d   1     -50.603  11.871  23.690  0.00  0.00    -0.265 OA
ATOM      9  O   UNL d   1     -50.379  12.798  20.959  0.00  0.00    -0.265 OA
ATOM     10  C   UNL d   1     -48.120  11.613  22.696  0.00  0.00     0.085 A 
ATOM     11  C   UNL d   1     -48.061  11.880  21.914  0.00  0.00     0.019 A 
ENDROOT
BRANCH  10  12
ATOM     12  N   UNL d   1     -47.457  11.310  23.084  0.00  0.00    -0.208 NA
ATOM     13  C   UNL d   1     -46.848  11.813  23.309  0.00  0.00     0.279 C 
ATOM     14  O   UNL d   1     -46.191  11.507  23.695  0.00  0.00    -0.265 OA
BRANCH  13  15
ATOM     15  C   UNL d   1     -46.893  12.613  23.152  0.00  0.00     0.058 A 
ATOM     16  C   UNL d   1     -46.555  12.908  22.458  0.00  0.00     0.005 A 
ATOM     17  C   UNL d   1     -46.593  13.710  22.289  0.00  0.00     0.000 A 
ATOM     18  C   UNL d   1     -46.973  14.230  22.819  0.00  0.00     0.000 A 
ATOM     19  C   UNL d   1     -47.309  13.930  23.512  0.00  0.00     0.000 A 
ATOM     20  C   UNL d   1     -47.015  15.043  22.655  0.00  0.00     0.000 C 
ATOM     21  C   UNL d   1     -47.265  13.124  23.671  0.00  0.00     0.005 A 
ENDBRANCH  13  15
ENDBRANCH  10  12
TORSDOF 2
ENDMDL
MODEL 6
REMARK VINA RESULT:      -7.7      1.433      3.218
REMARK  2 active torsions:
REMARK  status: ('A' for Active; 'I' for Inactive)
REMARK       I    between atoms: C_6  and  N_7 
REMARK    1  A    between atoms: C_9  and  C_6 
REMARK    2  A    between atoms: N_7  and  C_13 
ROOT
ATOM      1  N   UNL d   1     -48.642  11.125  23.578  0.00  0.00    -0.169 NA
ATOM      2  C   UNL d   1     -49.401  11.291  23.312  0.00  0.00     0.282 A 
ATOM      3  C   UNL d   1     -48.109  11.505  23.084  0.00  0.00     0.282 A 
ATOM      4  C   UNL d   1     -49.335  11.781  22.644  0.00  0.00     0.064 A 
ATOM      5  C   UNL d   1     -48.538  11.907  22.511  0.00  0.00     0.063 A 
ATOM      6  C   UNL d   1     -48.302  12.380  21.876  0.00  0.00     0.006 A 
ATOM      7  C   UNL d   1     -49.908  12.118  22.154  0.00  0.00     0.024 A 
ATOM      8  O   UNL d   1     -50.093  11.011  23.660  0.00  0.00    -0.265 OA
ATOM      9  O   UNL d   1     -47.287  11.490  23.146  0.00  0.00    -0.265 OA
ATOM     10  C   UNL d   1     -49.673  12.587  21.524  0.00  0.00     0.085 A 
ATOM     11  C   UNL d   1     -48.868  12.721  21.381  0.00  0.00     0.019 A 
ENDROOT
BRANCH  10  12
ATOM     12  N   UNL d   1     -50.245  12.924  21.033  0.00  0.00    -0.208 NA
ATOM     13  C   UNL d   1     -50.483  13.700  21.156  0.00  0.00     0.279 C 
ATOM     14  O   UNL d   1     -51.053  14.032  20.666  0.00  0.00    -0.265 OA
BRANCH  13  15
ATOM     15  C   UNL d   1     -50.159  14.143  21.761  0.00  0.00     0.058 A 
ATOM     16  C   UNL d   1     -49.463  14.566  21.623  0.00  0.00     0.005 A 
ATOM     17  C   UNL d   1     -49.127  15.015  22.223  0.00  0.00     0.000 A 
ATOM     18  C   UNL d   1     -49.488  15.044  22.973  0.00  0.00     0.000 A 
ATOM     19  C   UNL d   1     -50.184  14.619  23.106  0.00  0.00     0.000 A 
ATOM     20  C   UNL d   1     -49.154  15.496  23.585  0.00  0.00     0.000 C 
ATOM     21  C   UNL d   1     -50.512  14.172  22.497  0.00  0.00     0.005 A 
ENDBRANCH  13  15
ENDBRANCH  10  12
TORSDOF 2
ENDMDL
MODEL 7
REMARK VINA RESULT:      -7.4      1.456      2.394
REMARK  2 active torsions:
REMARK  status: ('A' for Active; 'I' for Inactive)
REMARK       I    between atoms: C_6  and  N_7 
REMARK    1  A    between atoms: C_9  and  C_6 
REMARK    2  A    between atoms: N_7  and  C_13 
ROOT
ATOM      1  N   UNL d   1     -50.791  15.168  22.488  0.00  0.00    -0.169 NA
ATOM      2  C   UNL d   1     -50.125  15.321  22.944  0.00  0.00     0.282 A 
ATOM      3  C   UNL d   1     -50.564  14.702  21.854  0.00  0.00     0.282 A 
ATOM      4  C   UNL d   1     -49.479  14.943  22.586  0.00  0.00     0.064 A 
ATOM      5  C   UNL d   1     -49.757  14.565  21.916  0.00  0.00     0.063 A 
ATOM      6  C   UNL d   1     -49.231  14.138  21.442  0.00  0.00     0.006 A 
ATOM      7  C   UNL d   1     -48.681  14.906  22.797  0.00  0.00     0.024 A 
ATOM      8  O   UNL d   1     -50.121  15.772  23.634  0.00  0.00    -0.265 OA
ATOM      9  O   UNL d   1     -51.053  14.417  21.255  0.00  0.00    -0.265 OA
ATOM     10  C   UNL d   1     -48.160  14.482  22.325  0.00  0.00     0.085 A 
ATOM     11  C   UNL d   1     -48.432  14.095  21.645  0.00  0.00     0.019 A 
ENDROOT
BRANCH  10  12
ATOM     12  N   UNL d   1     -47.362  14.444  22.536  0.00  0.00    -0.208 NA
ATOM     13  C   UNL d   1     -47.046  13.740  22.818  0.00  0.00     0.279 C 
ATOM     14  O   UNL d   1     -46.252  13.707  23.026  0.00  0.00    -0.265 OA
BRANCH  13  15
ATOM     15  C   UNL d   1     -47.515  13.076  22.893  0.00  0.00     0.058 A 
ATOM     16  C   UNL d   1     -47.899  12.932  23.610  0.00  0.00     0.005 A 
ATOM     17  C   UNL d   1     -48.373  12.268  23.698  0.00  0.00     0.000 A 
ATOM     18  C   UNL d   1     -48.468  11.737  23.063  0.00  0.00     0.000 A 
ATOM     19  C   UNL d   1     -48.082  11.885  22.348  0.00  0.00     0.000 A 
ATOM     20  C   UNL d   1     -48.946  11.062  23.144  0.00  0.00     0.000 C 
ATOM     21  C   UNL d   1     -47.609  12.554  22.271  0.00  0.00     0.005 A 
ENDBRANCH  13  15
ENDBRANCH  10  12
TORSDOF 2
ENDMDL
MODEL 8
REMARK VINA RESULT:      -7.4      1.641      3.153
REMARK  2 active torsions:
REMARK  status: ('A' for Active; 'I' for Inactive)
REMARK       I    between atoms: C_6  and  N_7 
REMARK    1  A    between atoms: C_9  and  C_6 
REMARK    2  A    between atoms: N_7  and  C_13 
ROOT
ATOM      1  N   UNL d   1     -49.528  11.426  22.233  0.00  0.00    -0.169 NA
ATOM      2  C   UNL d   1     -49.187  11.997  21.752  0.00  0.00     0.282 A 
ATOM      3  C   UNL d   1     -49.319  11.587  23.009  0.00  0.00     0.282 A 
ATOM      4  C   UNL d   1     -48.761  12.518  22.239  0.00  0.00     0.064 A 
ATOM      5  C   UNL d   1     -48.847  12.258  23.009  0.00  0.00     0.063 A 
ATOM      6  C   UNL d   1     -48.479  12.674  23.622  0.00  0.00     0.006 A 
ATOM      7  C   UNL d   1     -48.312  13.188  22.062  0.00  0.00     0.024 A 
ATOM      8  O   UNL d   1     -49.265  12.030  20.932  0.00  0.00    -0.265 OA
ATOM      9  O   UNL d   1     -49.540  11.155  23.675  0.00  0.00    -0.265 OA
ATOM     10  C   UNL d   1     -47.947  13.600  22.671  0.00  0.00     0.085 A 
ATOM     11  C   UNL d   1     -48.029  13.345  23.455  0.00  0.00     0.019 A 
ENDROOT
BRANCH  10  12
ATOM     12  N   UNL d   1     -47.498  14.270  22.495  0.00  0.00    -0.208 NA
ATOM     13  C   UNL d   1     -47.850  15.012  22.505  0.00  0.00     0.279 C 
ATOM     14  O   UNL d   1     -47.400  15.677  22.330  0.00  0.00    -0.265 OA
BRANCH  13  15
ATOM     15  C   UNL d   1     -48.641  15.094  22.687  0.00  0.00     0.058 A 
ATOM     16  C   UNL d   1     -49.196  15.121  22.075  0.00  0.00     0.005 A 
ATOM     17  C   UNL d   1     -49.995  15.202  22.246  0.00  0.00     0.000 A 
ATOM     18  C   UNL d   1     -50.248  15.258  23.037  0.00  0.00     0.000 A 
ATOM     19  C   UNL d   1     -49.690  15.230  23.646  0.00  0.00     0.000 A 
ATOM     20  C   UNL d   1     -51.055  15.340  23.218  0.00  0.00     0.000 C 
ATOM     21  C   UNL d   1     -48.892  15.148  23.463  0.00  0.00     0.005 A 
ENDBRANCH  13  15
ENDBRANCH  10  12
TORSDOF 2
ENDMDL
MODEL 9
REMARK VINA RESULT:      -6.6      8.488     10.421
REMARK  2 active torsions:
REMARK  status: ('A' for Active; 'I' for Inactive)
REMARK       I    between atoms: C_6  and  N_7 
REMARK    1  A    between atoms: C_9  and  C_6 
REMARK    2  A    between atoms: N_7  and  C_13 
ROOT
ATOM      1  N   UNL d   1     -40.166  13.817  17.235  0.00  0.00    -0.169 NA
ATOM      2  C   UNL d   1     -39.569  13.770  17.797  0.00  0.00     0.282 A 
ATOM      3  C   UNL d   1     -40.556  14.530  17.336  0.00  0.00     0.282 A 
ATOM      4  C   UNL d   1     -39.593  14.465  18.252  0.00  0.00     0.064 A 
ATOM      5  C   UNL d   1     -40.202  14.927  17.961  0.00  0.00     0.063 A 
ATOM      6  C   UNL d   1     -40.358  15.660  18.310  0.00  0.00     0.006 A 
ATOM      7  C   UNL d   1     -39.130  14.719  18.887  0.00  0.00     0.024 A 
ATOM      8  O   UNL d   1     -39.049  13.136  17.880  0.00  0.00    -0.265 OA
ATOM      9  O   UNL d   1     -41.193  14.807  16.891  0.00  0.00    -0.265 OA
ATOM     10  C   UNL d   1     -39.286  15.447  19.232  0.00  0.00     0.085 A 
ATOM     11  C   UNL d   1     -39.902  15.922  18.945  0.00  0.00     0.019 A 
ENDROOT
BRANCH  10  12
ATOM     12  N   UNL d   1     -38.825  15.702  19.868  0.00  0.00    -0.208 NA
ATOM     13  C   UNL d   1     -39.090  15.589  20.637  0.00  0.00     0.279 C 
ATOM     14  O   UNL d   1     -38.627  15.844  21.266  0.00  0.00    -0.265 OA
BRANCH  13  15
ATOM     15  C   UNL d   1     -39.807  15.226  20.780  0.00  0.00     0.058 A 
ATOM     16  C   UNL d   1     -39.826  14.415  20.935  0.00  0.00     0.005 A 
ATOM     17  C   UNL d   1     -40.541  14.039  21.080  0.00  0.00     0.000 A 
ATOM     18  C   UNL d   1     -41.251  14.476  21.070  0.00  0.00     0.000 A 
ATOM     19  C   UNL d   1     -41.227  15.287  20.914  0.00  0.00     0.000 A 
ATOM     20  C   UNL d   1     -41.979  14.102  21.216  0.00  0.00     0.000 C 
ATOM     21  C   UNL d   1     -40.504  15.653  20.770  0.00  0.00     0.005 A 
ENDBRANCH  13  15
ENDBRANCH  10  12
TORSDOF 2
ENDMDL
