MODEL 1
REMARK VINA RESULT:      12.6      0.000      0.000
REMARK  2 active torsions:
REMARK  status: ('A' for Active; 'I' for Inactive)
REMARK    1  A    between atoms: N_2  and  S_1 
REMARK    2  A    between atoms: C_3  and  S_1 
ROOT
ATOM      1  N   UNL d   1     -51.102  25.054  33.313  0.00  0.00    -0.231 N 
ATOM      2  C   UNL d   1     -51.127  25.875  33.313  0.00  0.00     0.075 A 
ATOM      3  C   UNL d   1     -50.421  26.302  33.310  0.00  0.00     0.017 A 
ATOM      4  C   UNL d   1     -50.377  24.648  33.310  0.00  0.00     0.092 A 
ATOM      5  C   UNL d   1     -51.851  26.284  33.317  0.00  0.00     0.018 A 
ATOM      6  C   UNL d   1     -49.677  25.075  33.306  0.00  0.00     0.020 A 
ATOM      7  C   UNL d   1     -49.698  25.908  33.307  0.00  0.00     0.003 A 
ATOM      8  C   UNL d   1     -50.450  27.139  33.311  0.00  0.00     0.002 A 
ATOM      9  C   UNL d   1     -51.884  27.110  33.317  0.00  0.00     0.002 A 
ATOM     10  C   UNL d   1     -51.180  27.541  33.314  0.00  0.00     0.000 A 
ENDROOT
BRANCH   1  11
ATOM     11  S   UNL d   1     -51.808  24.628  33.316  0.00  0.00     0.277 S 
ATOM     12  O   UNL d   1     -51.382  23.922  33.327  0.00  0.00    -0.199 OA
ATOM     13  O   UNL d   1     -52.228  25.325  33.306  0.00  0.00    -0.199 OA
BRANCH  11  14
ATOM     14  C   UNL d   1     -52.503  24.211  33.319  0.00  0.00     0.133 A 
ATOM     15  S   UNL d   1     -52.559  23.390  33.318  0.00  0.00    -0.074 SA
ATOM     16  C   UNL d   1     -53.390  23.193  33.323  0.00  0.00     0.036 A 
ATOM     17  C   UNL d   1     -53.794  23.907  33.326  0.00  0.00     0.008 A 
ATOM     18  C   UNL d   1     -53.298  24.535  33.324  0.00  0.00     0.020 A 
ENDBRANCH  11  14
ENDBRANCH   1  11
TORSDOF 2
ENDMDL
MODEL 2
REMARK VINA RESULT:      15.2      1.044      3.012
REMARK  2 active torsions:
REMARK  status: ('A' for Active; 'I' for Inactive)
REMARK    1  A    between atoms: N_2  and  S_1 
REMARK    2  A    between atoms: C_3  and  S_1 
ROOT
ATOM      1  N   UNL d   1     -51.204  24.885  33.335  0.00  0.00    -0.231 N 
ATOM      2  C   UNL d   1     -51.952  24.545  33.327  0.00  0.00     0.075 A 
ATOM      3  C   UNL d   1     -52.025  23.724  33.316  0.00  0.00     0.017 A 
ATOM      4  C   UNL d   1     -50.520  24.412  33.332  0.00  0.00     0.092 A 
ATOM      5  C   UNL d   1     -52.638  25.015  33.330  0.00  0.00     0.018 A 
ATOM      6  C   UNL d   1     -50.596  23.596  33.321  0.00  0.00     0.020 A 
ATOM      7  C   UNL d   1     -51.353  23.248  33.313  0.00  0.00     0.003 A 
ATOM      8  C   UNL d   1     -52.789  23.381  33.307  0.00  0.00     0.002 A 
ATOM      9  C   UNL d   1     -53.395  24.681  33.322  0.00  0.00     0.002 A 
ATOM     10  C   UNL d   1     -53.472  23.860  33.311  0.00  0.00     0.000 A 
ENDROOT
BRANCH   1  11
ATOM     11  S   UNL d   1     -51.133  25.706  33.347  0.00  0.00     0.277 S 
ATOM     12  O   UNL d   1     -50.312  25.634  33.389  0.00  0.00    -0.199 OA
ATOM     13  O   UNL d   1     -51.943  25.777  33.306  0.00  0.00    -0.199 OA
BRANCH  11  14
ATOM     14  C   UNL d   1     -51.064  26.513  33.358  0.00  0.00     0.133 A 
ATOM     15  S   UNL d   1     -50.354  26.926  33.306  0.00  0.00    -0.074 SA
ATOM     16  C   UNL d   1     -50.542  27.758  33.340  0.00  0.00     0.036 A 
ATOM     17  C   UNL d   1     -51.358  27.805  33.411  0.00  0.00     0.008 A 
ATOM     18  C   UNL d   1     -51.703  27.083  33.425  0.00  0.00     0.020 A 
ENDBRANCH  11  14
ENDBRANCH   1  11
TORSDOF 2
ENDMDL
