MODEL 1
REMARK VINA RESULT:      43.5      0.000      0.000
REMARK  6 active torsions:
REMARK  status: ('A' for Active; 'I' for Inactive)
REMARK    1  A    between atoms: C_8  and  C_3 
REMARK    2  A    between atoms: C_6  and  O_10 
REMARK    3  A    between atoms: S_9  and  C_8 
REMARK    4  A    between atoms: C_16  and  S_9 
REMARK    5  A    between atoms: O_10  and  C_17 
REMARK    6  A    between atoms: C_17  and  C_16 
ROOT
ATOM      1  S   UNL d   1     -54.727-102.465 -39.235  0.00  0.00    -0.081 SA
ENDROOT
BRANCH   1   2
ATOM      2  C   UNL d   1     -54.957-101.821 -39.692  0.00  0.00     0.074 C 
BRANCH   2   3
ATOM      3  C   UNL d   1     -54.874-101.848 -40.510  0.00  0.00     0.169 A 
ATOM      4  N   UNL d   1     -54.728-102.215 -41.248  0.00  0.00    -0.225 NA
ATOM      5  C   UNL d   1     -54.793-101.630 -41.845  0.00  0.00     0.101 A 
ATOM      6  C   UNL d   1     -54.979-100.911 -41.468  0.00  0.00     0.101 A 
ATOM      7  C   UNL d   1     -54.712-101.646 -42.671  0.00  0.00     0.021 A 
ATOM      8  N   UNL d   1     -55.030-101.036 -40.645  0.00  0.00    -0.225 NA
ATOM      9  C   UNL d   1     -55.079-100.220 -41.925  0.00  0.00     0.021 A 
ATOM     10  C   UNL d   1     -54.996-100.252 -42.736  0.00  0.00     0.002 A 
ATOM     11  C   UNL d   1     -54.812-100.964 -43.109  0.00  0.00     0.002 A 
ENDBRANCH   2   3
ENDBRANCH   1   2
BRANCH   1  12
ATOM     12  C   UNL d   1     -55.132-102.641 -38.540  0.00  0.00     0.062 C 
BRANCH  12  13
ATOM     13  C   UNL d   1     -54.990-102.202 -37.858  0.00  0.00     0.130 C 
BRANCH  13  14
ATOM     14  O   UNL d   1     -54.781-102.591 -37.162  0.00  0.00    -0.305 OA
BRANCH  14  15
ATOM     15  C   UNL d   1     -54.942-101.900 -36.742  0.00  0.00     0.100 A 
ATOM     16  C   UNL d   1     -55.330-101.937 -36.024  0.00  0.00     0.023 A 
ATOM     17  C   UNL d   1     -55.562-102.674 -35.718  0.00  0.00     0.002 C 
ATOM     18  C   UNL d   1     -55.493-101.248 -35.602  0.00  0.00     0.002 A 
ATOM     19  C   UNL d   1     -55.264-100.520 -35.904  0.00  0.00     0.000 A 
ATOM     20  C   UNL d   1     -54.871-100.484 -36.632  0.00  0.00     0.002 A 
ATOM     21  C   UNL d   1     -54.712-101.179 -37.048  0.00  0.00     0.025 A 
ENDBRANCH  14  15
ENDBRANCH  13  14
ENDBRANCH  12  13
ENDBRANCH   1  12
TORSDOF 6
ENDMDL
