MODEL 1
REMARK VINA RESULT:      -4.2      0.000      0.000
REMARK  2 active torsions:
REMARK  status: ('A' for Active; 'I' for Inactive)
REMARK    1  A    between atoms: N_7  and  C_3 
REMARK       I    between atoms: C_8  and  N_7 
REMARK    2  A    between atoms: C_9  and  C_8 
ROOT
ATOM      1  N   UNL d   1     -41.690-122.445 -50.678  0.00  0.00    -0.190 NA
ATOM      2  C   UNL d   1     -42.042-123.108 -50.337  0.00  0.00     0.281 C 
ATOM      3  O   UNL d   1     -42.255-123.751 -50.808  0.00  0.00    -0.265 OA
ENDROOT
BRANCH   1   4
ATOM      4  C   UNL d   1     -41.551-122.425 -51.493  0.00  0.00     0.159 A 
ATOM      5  N   UNL d   1     -41.443-121.706 -51.877  0.00  0.00    -0.241 N 
ATOM      6  C   UNL d   1     -41.305-121.686 -52.683  0.00  0.00     0.343 A 
ATOM      7  C   UNL d   1     -41.474-121.001 -51.446  0.00  0.00     0.105 C 
ATOM      8  N   UNL d   1     -41.274-122.389 -53.113  0.00  0.00    -0.224 N 
ATOM      9  O   UNL d   1     -41.196-120.961 -53.068  0.00  0.00    -0.245 OA
ATOM     10  C   UNL d   1     -41.380-123.121 -52.742  0.00  0.00     0.271 A 
ATOM     11  C   UNL d   1     -41.134-122.369 -53.929  0.00  0.00     0.107 C 
ATOM     12  C   UNL d   1     -41.520-123.128 -51.924  0.00  0.00     0.099 A 
ATOM     13  O   UNL d   1     -41.349-123.817 -53.168  0.00  0.00    -0.266 OA
ENDBRANCH   1   4
BRANCH   2  14
ATOM     14  C   UNL d   1     -42.181-123.127 -49.524  0.00  0.00     0.069 A 
ATOM     15  C   UNL d   1     -42.907-122.932 -49.248  0.00  0.00     0.062 A 
ATOM     16  C   UNL d   1     -43.061-122.946 -48.443  0.00  0.00     0.012 A 
ATOM     17 CL   UNL d   1     -43.513-122.715 -49.777  0.00  0.00    -0.082 Cl
ATOM     18  C   UNL d   1     -42.464-123.162 -47.916  0.00  0.00     0.008 A 
ATOM     19  C   UNL d   1     -41.730-123.357 -48.205  0.00  0.00     0.035 A 
ATOM     20  C   UNL d   1     -41.571-123.344 -49.012  0.00  0.00     0.012 A 
ATOM     21 BR   UNL d   1     -41.127-123.575 -47.663  0.00  0.00    -0.049 Br
ENDBRANCH   2  14
TORSDOF 2
ENDMDL
MODEL 2
REMARK VINA RESULT:      -3.7      1.489      2.376
REMARK  2 active torsions:
REMARK  status: ('A' for Active; 'I' for Inactive)
REMARK    1  A    between atoms: N_7  and  C_3 
REMARK       I    between atoms: C_8  and  N_7 
REMARK    2  A    between atoms: C_9  and  C_8 
ROOT
ATOM      1  N   UNL d   1     -42.123-122.669 -52.647  0.00  0.00    -0.190 NA
ATOM      2  C   UNL d   1     -41.704-122.254 -52.072  0.00  0.00     0.281 C 
ATOM      3  O   UNL d   1     -41.166-121.669 -52.294  0.00  0.00    -0.265 OA
ENDROOT
BRANCH   1   4
ATOM      4  C   UNL d   1     -42.004-122.500 -53.448  0.00  0.00     0.159 A 
ATOM      5  N   UNL d   1     -41.659-123.059 -53.942  0.00  0.00    -0.241 N 
ATOM      6  C   UNL d   1     -41.542-122.891 -54.735  0.00  0.00     0.343 A 
ATOM      7  C   UNL d   1     -41.430-123.791 -53.638  0.00  0.00     0.105 C 
ATOM      8  N   UNL d   1     -41.771-122.159 -55.039  0.00  0.00    -0.224 N 
ATOM      9  O   UNL d   1     -41.194-123.454 -55.231  0.00  0.00    -0.245 OA
ATOM     10  C   UNL d   1     -42.119-121.586 -54.555  0.00  0.00     0.271 A 
ATOM     11  C   UNL d   1     -41.652-121.989 -55.840  0.00  0.00     0.107 C 
ATOM     12  C   UNL d   1     -42.233-121.768 -53.752  0.00  0.00     0.099 A 
ATOM     13  O   UNL d   1     -42.346-120.861 -54.856  0.00  0.00    -0.266 OA
ENDBRANCH   1   4
BRANCH   2  14
ATOM     14  C   UNL d   1     -41.823-122.424 -51.273  0.00  0.00     0.069 A 
ATOM     15  C   UNL d   1     -42.346-121.984 -50.855  0.00  0.00     0.062 A 
ATOM     16  C   UNL d   1     -42.476-122.140 -50.061  0.00  0.00     0.012 A 
ATOM     17 CL   UNL d   1     -42.763-121.364 -51.224  0.00  0.00    -0.082 Cl
ATOM     18  C   UNL d   1     -42.066-122.753 -49.692  0.00  0.00     0.008 A 
ATOM     19  C   UNL d   1     -41.537-123.195 -50.124  0.00  0.00     0.035 A 
ATOM     20  C   UNL d   1     -41.404-123.041 -50.921  0.00  0.00     0.012 A 
ATOM     21 BR   UNL d   1     -41.123-123.817 -49.742  0.00  0.00    -0.049 Br
ENDBRANCH   2  14
TORSDOF 2
ENDMDL
MODEL 3
REMARK VINA RESULT:      -2.6      2.009      4.186
REMARK  2 active torsions:
REMARK  status: ('A' for Active; 'I' for Inactive)
REMARK    1  A    between atoms: N_7  and  C_3 
REMARK       I    between atoms: C_8  and  N_7 
REMARK    2  A    between atoms: C_9  and  C_8 
ROOT
ATOM      1  N   UNL d   1     -42.358-123.250 -50.501  0.00  0.00    -0.190 NA
ATOM      2  C   UNL d   1     -41.689-122.848 -50.764  0.00  0.00     0.281 C 
ATOM      3  O   UNL d   1     -41.123-122.588 -50.223  0.00  0.00    -0.265 OA
ENDROOT
BRANCH   1   4
ATOM      4  C   UNL d   1     -42.464-123.392 -49.693  0.00  0.00     0.159 A 
ATOM      5  N   UNL d   1     -43.220-123.394 -49.368  0.00  0.00    -0.241 N 
ATOM      6  C   UNL d   1     -43.324-123.535 -48.569  0.00  0.00     0.343 A 
ATOM      7  C   UNL d   1     -43.875-123.254 -49.852  0.00  0.00     0.105 C 
ATOM      8  N   UNL d   1     -42.670-123.674 -48.086  0.00  0.00    -0.224 N 
ATOM      9  O   UNL d   1     -44.085-123.537 -48.244  0.00  0.00    -0.245 OA
ATOM     10  C   UNL d   1     -41.903-123.675 -48.397  0.00  0.00     0.271 A 
ATOM     11  C   UNL d   1     -42.776-123.816 -47.278  0.00  0.00     0.107 C 
ATOM     12  C   UNL d   1     -41.810-123.531 -49.210  0.00  0.00     0.099 A 
ATOM     13  O   UNL d   1     -41.255-123.813 -47.919  0.00  0.00    -0.266 OA
ENDBRANCH   1   4
BRANCH   2  14
ATOM     14  C   UNL d   1     -41.584-122.708 -51.570  0.00  0.00     0.069 A 
ATOM     15  C   UNL d   1     -41.565-121.952 -51.835  0.00  0.00     0.062 A 
ATOM     16  C   UNL d   1     -41.462-121.795 -52.633  0.00  0.00     0.012 A 
ATOM     17 CL   UNL d   1     -41.649-121.318 -51.301  0.00  0.00    -0.082 Cl
ATOM     18  C   UNL d   1     -41.378-122.420 -53.164  0.00  0.00     0.008 A 
ATOM     19  C   UNL d   1     -41.399-123.184 -52.888  0.00  0.00     0.035 A 
ATOM     20  C   UNL d   1     -41.502-123.345 -52.088  0.00  0.00     0.012 A 
ATOM     21 BR   UNL d   1     -41.313-123.815 -53.435  0.00  0.00    -0.049 Br
ENDBRANCH   2  14
TORSDOF 2
ENDMDL
MODEL 4
REMARK VINA RESULT:      -1.9      2.290      4.335
REMARK  2 active torsions:
REMARK  status: ('A' for Active; 'I' for Inactive)
REMARK    1  A    between atoms: N_7  and  C_3 
REMARK       I    between atoms: C_8  and  N_7 
REMARK    2  A    between atoms: C_9  and  C_8 
ROOT
ATOM      1  N   UNL d   1     -42.183-122.214 -52.316  0.00  0.00    -0.190 NA
ATOM      2  C   UNL d   1     -41.907-122.788 -52.839  0.00  0.00     0.281 C 
ATOM      3  O   UNL d   1     -41.669-123.525 -52.555  0.00  0.00    -0.265 OA
ENDROOT
BRANCH   1   4
ATOM      4  C   UNL d   1     -42.222-122.376 -51.506  0.00  0.00     0.159 A 
ATOM      5  N   UNL d   1     -41.713-121.997 -50.983  0.00  0.00    -0.241 N 
ATOM      6  C   UNL d   1     -41.752-122.159 -50.182  0.00  0.00     0.343 A 
ATOM      7  C   UNL d   1     -41.162-121.452 -51.268  0.00  0.00     0.105 C 
ATOM      8  N   UNL d   1     -42.302-122.703 -49.897  0.00  0.00    -0.224 N 
ATOM      9  O   UNL d   1     -41.239-121.777 -49.657  0.00  0.00    -0.245 OA
ATOM     10  C   UNL d   1     -42.821-123.093 -50.410  0.00  0.00     0.271 A 
ATOM     11  C   UNL d   1     -42.341-122.866 -49.087  0.00  0.00     0.107 C 
ATOM     12  C   UNL d   1     -42.772-122.921 -51.221  0.00  0.00     0.099 A 
ATOM     13  O   UNL d   1     -43.366-123.632 -50.128  0.00  0.00    -0.266 OA
ENDBRANCH   1   4
BRANCH   2  14
ATOM     14  C   UNL d   1     -41.869-122.624 -53.647  0.00  0.00     0.069 A 
ATOM     15  C   UNL d   1     -41.481-123.132 -54.130  0.00  0.00     0.062 A 
ATOM     16  C   UNL d   1     -41.435-122.983 -54.934  0.00  0.00     0.012 A 
ATOM     17 CL   UNL d   1     -41.123-123.816 -53.818  0.00  0.00    -0.082 Cl
ATOM     18  C   UNL d   1     -41.789-122.307 -55.247  0.00  0.00     0.008 A 
ATOM     19  C   UNL d   1     -42.180-121.797 -54.750  0.00  0.00     0.035 A 
ATOM     20  C   UNL d   1     -42.229-121.942 -53.942  0.00  0.00     0.012 A 
ATOM     21 BR   UNL d   1     -42.538-121.110 -55.075  0.00  0.00    -0.049 Br
ENDBRANCH   2  14
TORSDOF 2
ENDMDL
