MODEL 1
REMARK VINA RESULT:      82.6      0.000      0.000
REMARK  7 active torsions:
REMARK  status: ('A' for Active; 'I' for Inactive)
REMARK    1  A    between atoms: N_3  and  S_1 
REMARK    2  A    between atoms: C_6  and  S_1 
REMARK    3  A    between atoms: N_2  and  C_5 
REMARK    4  A    between atoms: C_4  and  N_3 
REMARK    5  A    between atoms: C_5  and  C_4 
REMARK    6  A    between atoms: C_10  and  C_5 
REMARK    7  A    between atoms: O_26  and  C_20 
ROOT
ATOM      1  C   UNL d   1     -51.933  25.684  34.668  0.00  0.00     0.084 C 
ENDROOT
BRANCH   1   2
ATOM      2  N   UNL d   1     -52.357  25.059  34.335  0.00  0.00    -0.300 N 
ATOM      3  C   UNL d   1     -52.347  24.326  34.694  0.00  0.00     0.100 A 
ATOM      4  C   UNL d   1     -52.771  23.701  34.361  0.00  0.00     0.100 A 
ATOM      5  N   UNL d   1     -53.202  23.819  33.667  0.00  0.00    -0.299 N 
ATOM      6  C   UNL d   1     -53.208  24.562  33.307  0.00  0.00     0.100 A 
ATOM      7  C   UNL d   1     -53.626  23.190  33.334  0.00  0.00     0.100 C 
ATOM      8  C   UNL d   1     -52.787  25.177  33.641  0.00  0.00     0.100 A 
ENDBRANCH   1   2
BRANCH   1   9
ATOM      9  C   UNL d   1     -52.220  26.066  35.339  0.00  0.00     0.130 C 
BRANCH   9  10
ATOM     10  N   UNL d   1     -51.862  25.939  36.072  0.00  0.00    -0.155 NA
BRANCH  10  11
ATOM     11  S   UNL d   1     -51.716  26.575  36.577  0.00  0.00     0.285 S 
ATOM     12  O   UNL d   1     -51.505  27.039  35.924  0.00  0.00    -0.198 OA
ATOM     13  O   UNL d   1     -51.570  27.212  37.080  0.00  0.00    -0.198 OA
BRANCH  11  14
ATOM     14  C   UNL d   1     -51.932  26.099  37.229  0.00  0.00     0.105 A 
ATOM     15  C   UNL d   1     -51.410  25.989  37.844  0.00  0.00     0.015 A 
ATOM     16  C   UNL d   1     -51.627  25.514  38.493  0.00  0.00     0.025 A 
ATOM     17  C   UNL d   1     -52.370  25.158  38.507  0.00  0.00     0.094 A 
ATOM     18  C   UNL d   1     -52.897  25.276  37.873  0.00  0.00     0.025 A 
ATOM     19  C   UNL d   1     -52.675  25.743  37.244  0.00  0.00     0.015 A 
BRANCH  17  20
ATOM     20  O   UNL d   1     -52.596  24.680  39.152  0.00  0.00    -0.328 OA
ATOM     21  C   UNL d   1     -53.317  24.281  39.142  0.00  0.00     0.181 C 
ENDBRANCH  17  20
ENDBRANCH  11  14
ENDBRANCH  10  11
ENDBRANCH   9  10
ENDBRANCH   1   9
BRANCH   1  22
ATOM     22  C   UNL d   1     -51.214  25.929  34.325  0.00  0.00     0.018 A 
ATOM     23  C   UNL d   1     -51.150  26.681  33.993  0.00  0.00     0.004 A 
ATOM     24  C   UNL d   1     -50.439  26.923  33.654  0.00  0.00     0.030 A 
ATOM     25  C   UNL d   1     -49.791  26.414  33.646  0.00  0.00     0.140 A 
ATOM     26  C   UNL d   1     -49.855  25.661  33.978  0.00  0.00     0.030 A 
ATOM     27  F   UNL d   1     -49.080  26.656  33.307  0.00  0.00    -0.204 F 
ATOM     28  C   UNL d   1     -50.565  25.418  34.317  0.00  0.00     0.004 A 
ENDBRANCH   1  22
TORSDOF 7
ENDMDL
MODEL 2
REMARK VINA RESULT:      85.2      2.552      4.057
REMARK  7 active torsions:
REMARK  status: ('A' for Active; 'I' for Inactive)
REMARK    1  A    between atoms: N_3  and  S_1 
REMARK    2  A    between atoms: C_6  and  S_1 
REMARK    3  A    between atoms: N_2  and  C_5 
REMARK    4  A    between atoms: C_4  and  N_3 
REMARK    5  A    between atoms: C_5  and  C_4 
REMARK    6  A    between atoms: C_10  and  C_5 
REMARK    7  A    between atoms: O_26  and  C_20 
ROOT
ATOM      1  C   UNL d   1     -49.874  26.537  33.795  0.00  0.00     0.084 C 
ENDROOT
BRANCH   1   2
ATOM      2  N   UNL d   1     -49.426  27.153  34.112  0.00  0.00    -0.300 N 
ATOM      3  C   UNL d   1     -49.135  27.736  33.620  0.00  0.00     0.100 A 
ATOM      4  C   UNL d   1     -48.686  28.352  33.937  0.00  0.00     0.100 A 
ATOM      5  N   UNL d   1     -48.534  28.376  34.748  0.00  0.00    -0.299 N 
ATOM      6  C   UNL d   1     -48.830  27.784  35.240  0.00  0.00     0.100 A 
ATOM      7  C   UNL d   1     -48.084  28.996  35.064  0.00  0.00     0.100 C 
ATOM      8  C   UNL d   1     -49.273  27.177  34.922  0.00  0.00     0.100 A 
ENDBRANCH   1   2
BRANCH   1   9
ATOM      9  C   UNL d   1     -50.603  26.695  33.444  0.00  0.00     0.130 C 
BRANCH   9  10
ATOM     10  N   UNL d   1     -51.254  26.217  33.611  0.00  0.00    -0.155 NA
BRANCH  10  11
ATOM     11  S   UNL d   1     -52.016  26.533  33.591  0.00  0.00     0.285 S 
ATOM     12  O   UNL d   1     -51.699  27.272  33.393  0.00  0.00    -0.198 OA
ATOM     13  O   UNL d   1     -52.777  26.851  33.570  0.00  0.00    -0.198 OA
BRANCH  11  14
ATOM     14  C   UNL d   1     -52.327  25.783  33.791  0.00  0.00     0.105 A 
ATOM     15  C   UNL d   1     -52.187  25.143  33.309  0.00  0.00     0.015 A 
ATOM     16  C   UNL d   1     -52.497  24.396  33.510  0.00  0.00     0.025 A 
ATOM     17  C   UNL d   1     -52.944  24.312  34.197  0.00  0.00     0.094 A 
ATOM     18  C   UNL d   1     -53.081  24.974  34.685  0.00  0.00     0.025 A 
ATOM     19  C   UNL d   1     -52.773  25.698  34.478  0.00  0.00     0.015 A 
BRANCH  17  20
ATOM     20  O   UNL d   1     -53.258  23.569  34.407  0.00  0.00    -0.328 OA
ATOM     21  C   UNL d   1     -53.029  23.202  35.109  0.00  0.00     0.181 C 
ENDBRANCH  17  20
ENDBRANCH  11  14
ENDBRANCH  10  11
ENDBRANCH   9  10
ENDBRANCH   1   9
BRANCH   1  22
ATOM     22  C   UNL d   1     -49.589  25.754  33.830  0.00  0.00     0.018 A 
ATOM     23  C   UNL d   1     -49.883  25.185  33.310  0.00  0.00     0.004 A 
ATOM     24  C   UNL d   1     -49.601  24.411  33.345  0.00  0.00     0.030 A 
ATOM     25  C   UNL d   1     -49.026  24.205  33.899  0.00  0.00     0.140 A 
ATOM     26  C   UNL d   1     -48.732  24.775  34.419  0.00  0.00     0.030 A 
ATOM     27  F   UNL d   1     -48.744  23.432  33.933  0.00  0.00    -0.204 F 
ATOM     28  C   UNL d   1     -49.013  25.549  34.384  0.00  0.00     0.004 A 
ENDBRANCH   1  22
TORSDOF 7
ENDMDL
