MODEL 1
REMARK VINA RESULT:       1.6      0.000      0.000
REMARK  4 active torsions:
REMARK  status: ('A' for Active; 'I' for Inactive)
REMARK    1  A    between atoms: N_5  and  C_1 
REMARK    2  A    between atoms: C_8  and  C_2 
REMARK       I    between atoms: C_7  and  N_5 
REMARK    3  A    between atoms: C_10  and  C_7 
REMARK    4  A    between atoms: N_9  and  C_8 
ROOT
ATOM      1  C   UNL d   1     -41.420-121.742 -51.889  0.00  0.00     0.115 A 
ATOM      2  C   UNL d   1     -41.347-122.091 -51.148  0.00  0.00     0.042 A 
ATOM      3  S   UNL d   1     -41.343-120.914 -51.792  0.00  0.00    -0.068 SA
ATOM      4  C   UNL d   1     -41.226-121.484 -50.591  0.00  0.00     0.009 A 
ATOM      5  C   UNL d   1     -41.226-120.766 -51.005  0.00  0.00     0.031 A 
ATOM      6  C   UNL d   1     -41.123-121.572 -49.775  0.00  0.00     0.001 C 
ATOM      7  C   UNL d   1     -41.124-120.013 -50.674  0.00  0.00     0.007 C 
ENDROOT
BRANCH   1   8
ATOM      8  N   UNL d   1     -41.546-122.212 -52.556  0.00  0.00    -0.201 NA
ATOM      9  C   UNL d   1     -41.630-121.864 -53.297  0.00  0.00     0.280 C 
ATOM     10  O   UNL d   1     -41.588-121.044 -53.371  0.00  0.00    -0.265 OA
BRANCH   9  11
ATOM     11  C   UNL d   1     -41.755-122.334 -53.963  0.00  0.00     0.058 A 
ATOM     12  C   UNL d   1     -42.095-122.008 -54.638  0.00  0.00     0.007 A 
ATOM     13  C   UNL d   1     -42.222-122.483 -55.312  0.00  0.00     0.030 A 
ATOM     14  C   UNL d   1     -42.008-123.278 -55.303  0.00  0.00     0.140 A 
ATOM     15  C   UNL d   1     -41.668-123.603 -54.627  0.00  0.00     0.030 A 
ATOM     16  F   UNL d   1     -42.134-123.747 -55.969  0.00  0.00    -0.204 F 
ATOM     17  C   UNL d   1     -41.541-123.129 -53.953  0.00  0.00     0.007 A 
ENDBRANCH   9  11
ENDBRANCH   1   8
BRANCH   2  18
ATOM     18  C   UNL d   1     -41.387-122.907 -50.982  0.00  0.00     0.082 C 
BRANCH  18  19
ATOM     19  N   UNL d   1     -41.845-123.178 -50.350  0.00  0.00    -0.302 N 
ATOM     20  C   UNL d   1     -41.381-123.361 -49.692  0.00  0.00     0.080 A 
ATOM     21  C   UNL d   1     -41.617-123.643 -48.961  0.00  0.00     0.019 A 
ATOM     22  C   UNL d   1     -42.380-123.817 -48.697  0.00  0.00     0.002 A 
ATOM     23  C   UNL d   1     -43.095-123.751 -49.102  0.00  0.00     0.002 A 
ATOM     24  C   UNL d   1     -43.221-123.491 -49.878  0.00  0.00     0.019 A 
ATOM     25  C   UNL d   1     -42.668-123.237 -50.431  0.00  0.00     0.080 A 
ENDBRANCH  18  19
ENDBRANCH   2  18
TORSDOF 4
ENDMDL
