MODEL 1
REMARK VINA RESULT:      62.9      0.000      0.000
REMARK  3 active torsions:
REMARK  status: ('A' for Active; 'I' for Inactive)
REMARK    1  A    between atoms: N_4  and  C_2 
REMARK    2  A    between atoms: C_10  and  C_3 
REMARK       I    between atoms: C_7  and  N_4 
REMARK    3  A    between atoms: C_8  and  C_7 
ROOT
ATOM      1  N   UNL d   1      60.079  48.404  50.277  0.00  0.00    -0.051 NA
ATOM      2  C   UNL d   1      60.900  48.391  50.284  0.00  0.00     0.760 A 
ATOM      3  C   UNL d   1      59.838  49.056  50.733  0.00  0.00     0.147 A 
ATOM      4  N   UNL d   1      61.174  49.033  50.742  0.00  0.00    -0.019 NA
ATOM      5  S   UNL d   1      60.513  49.433  51.012  0.00  0.00     0.052 SA
ENDROOT
BRANCH   2   6
ATOM      6  N   UNL d   1      61.450  47.876  49.930  0.00  0.00    -0.018 NA
ATOM      7  C   UNL d   1      61.464  47.076  50.129  0.00  0.00     0.301 C 
ATOM      8  O   UNL d   1      60.923  46.781  50.687  0.00  0.00    -0.264 OA
BRANCH   7   9
ATOM      9  C   UNL d   1      62.010  46.569  49.776  0.00  0.00     0.088 A 
ATOM     10  S   UNL d   1      61.899  45.754  49.639  0.00  0.00    -0.082 SA
ATOM     11  C   UNL d   1      62.587  45.462  49.273  0.00  0.00     0.036 A 
ATOM     12  C   UNL d   1      63.114  46.090  49.187  0.00  0.00     0.008 A 
ATOM     13  C   UNL d   1      62.758  46.769  49.496  0.00  0.00     0.012 A 
ENDBRANCH   7   9
ENDBRANCH   2   6
BRANCH   3  14
ATOM     14  C   UNL d   1      59.056  49.272  50.871  0.00  0.00     0.026 A 
ATOM     15  C   UNL d   1      58.514  49.273  50.237  0.00  0.00     0.002 A 
ATOM     16  C   UNL d   1      57.724  49.491  50.373  0.00  0.00     0.000 A 
ATOM     17  C   UNL d   1      57.480  49.704  51.130  0.00  0.00     0.000 A 
ATOM     18  C   UNL d   1      58.011  49.705  51.761  0.00  0.00     0.000 A 
ATOM     19  C   UNL d   1      58.798  49.489  51.633  0.00  0.00     0.002 A 
ENDBRANCH   3  14
TORSDOF 3
ENDMDL
