MODEL 1
REMARK VINA RESULT:      40.0      0.000      0.000
REMARK  3 active torsions:
REMARK  status: ('A' for Active; 'I' for Inactive)
REMARK       I    between atoms: N_2  and  C_1 
REMARK    1  A    between atoms: C_9  and  C_1 
REMARK    2  A    between atoms: C_6  and  N_5 
REMARK    3  A    between atoms: N_8  and  C_7 
ROOT
ATOM      1  C   UNL d   1      46.413 -19.099  42.790  0.00  0.00     0.265 C 
ATOM      2  N   UNL d   1      46.284 -18.321  43.031  0.00  0.00    -0.269 N 
ATOM      3  N   UNL d   1      46.025 -16.766  43.509  0.00  0.00    -0.285 N 
ATOM      4  C   UNL d   1      46.054 -17.753  42.470  0.00  0.00     0.102 A 
ATOM      5  C   UNL d   1      46.382 -18.110  43.820  0.00  0.00     0.102 A 
ATOM      6  C   UNL d   1      45.924 -16.971  42.712  0.00  0.00     0.101 A 
ATOM      7  C   UNL d   1      46.255 -17.336  44.069  0.00  0.00     0.101 A 
ATOM      8  O   UNL d   1      46.644 -19.674  43.343  0.00  0.00    -0.267 OA
ENDROOT
BRANCH   3   9
ATOM      9  C   UNL d   1      45.895 -15.986  43.751  0.00  0.00     0.170 A 
ATOM     10  N   UNL d   1      46.428 -15.621  44.258  0.00  0.00    -0.129 NA
ATOM     11  N   UNL d   1      46.298 -14.845  44.499  0.00  0.00    -0.129 NA
ATOM     12  C   UNL d   1      45.632 -14.424  44.233  0.00  0.00     0.170 A 
ATOM     13  C   UNL d   1      45.102 -14.800  43.723  0.00  0.00     0.042 A 
ATOM     14  C   UNL d   1      45.231 -15.577  43.482  0.00  0.00     0.042 A 
BRANCH  12  15
ATOM     15  N   UNL d   1      45.502 -13.648  44.474  0.00  0.00    -0.284 N 
ATOM     16  C   UNL d   1      46.139 -13.164  44.677  0.00  0.00     0.108 A 
ATOM     17  C   UNL d   1      46.010 -12.387  44.918  0.00  0.00     0.142 A 
ATOM     18  O   UNL d   1      45.245 -12.098  44.955  0.00  0.00    -0.300 OA
ATOM     19  C   UNL d   1      44.608 -12.573  44.755  0.00  0.00     0.142 A 
ATOM     20  C   UNL d   1      44.725 -13.355  44.511  0.00  0.00     0.108 A 
ENDBRANCH  12  15
ENDBRANCH   3   9
BRANCH   1  21
ATOM     21  C   UNL d   1      46.316 -19.317  41.997  0.00  0.00     0.057 A 
ATOM     22  C   UNL d   1      46.528 -18.798  41.386  0.00  0.00     0.005 A 
ATOM     23  C   UNL d   1      46.430 -19.018  40.603  0.00  0.00     0.000 A 
ATOM     24  C   UNL d   1      46.644 -18.494  40.004  0.00  0.00     0.000 C 
ATOM     25  C   UNL d   1      46.118 -19.763  40.432  0.00  0.00     0.000 A 
ATOM     26  C   UNL d   1      45.904 -20.288  41.036  0.00  0.00     0.000 A 
ATOM     27  C   UNL d   1      46.007 -20.057  41.814  0.00  0.00     0.005 A 
ENDBRANCH   1  21
TORSDOF 3
ENDMDL
