MODEL 1
REMARK VINA RESULT:      96.9      0.000      0.000
REMARK  2 active torsions:
REMARK  status: ('A' for Active; 'I' for Inactive)
REMARK    1  A    between atoms: C_9  and  C_3 
REMARK    2  A    between atoms: C_8  and  C_4 
ROOT
ATOM      1  N   UNL d   1      59.124  47.841  50.997  0.00  0.00    -0.242 NA
ATOM      2  N   UNL d   1      58.883  49.435  50.658  0.00  0.00    -0.242 NA
ATOM      3  C   UNL d   1      58.382  48.103  50.755  0.00  0.00     0.099 A 
ATOM      4  C   UNL d   1      58.262  48.896  50.587  0.00  0.00     0.099 A 
ATOM      5  C   UNL d   1      59.743  48.376  51.069  0.00  0.00     0.101 A 
ATOM      6  C   UNL d   1      59.623  49.169  50.900  0.00  0.00     0.099 A 
ATOM      7  C   UNL d   1      60.482  48.113  51.310  0.00  0.00     0.042 A 
ATOM      8  C   UNL d   1      60.241  49.707  50.970  0.00  0.00     0.022 A 
ATOM      9  C   UNL d   1      61.103  48.649  51.382  0.00  0.00     0.104 A 
ATOM     10  N   UNL d   1      61.838  48.385  51.622  0.00  0.00    -0.148 N 
ATOM     11  C   UNL d   1      60.983  49.442  51.213  0.00  0.00     0.023 A 
ENDROOT
BRANCH   3  12
ATOM     12  C   UNL d   1      57.768  47.569  50.685  0.00  0.00     0.019 A 
ATOM     13  C   UNL d   1      57.491  47.164  51.358  0.00  0.00     0.002 A 
ATOM     14  C   UNL d   1      56.868  46.620  51.294  0.00  0.00     0.000 A 
ATOM     15  C   UNL d   1      56.518  46.477  50.552  0.00  0.00     0.000 A 
ATOM     16  C   UNL d   1      56.802  46.887  49.879  0.00  0.00     0.000 A 
ATOM     17  C   UNL d   1      57.420  47.426  49.950  0.00  0.00     0.002 A 
ENDBRANCH   3  12
BRANCH   4  18
ATOM     18  C   UNL d   1      57.526  49.163  50.346  0.00  0.00     0.019 A 
ATOM     19  C   UNL d   1      57.343  49.186  49.532  0.00  0.00     0.002 A 
ATOM     20  C   UNL d   1      56.599  49.456  49.281  0.00  0.00     0.000 A 
ATOM     21  C   UNL d   1      56.033  49.705  49.842  0.00  0.00     0.000 A 
ATOM     22  C   UNL d   1      56.213  49.683  50.653  0.00  0.00     0.000 A 
ATOM     23  C   UNL d   1      56.961  49.412  50.907  0.00  0.00     0.002 A 
ENDBRANCH   4  18
TORSDOF 2
ENDMDL
MODEL 2
REMARK VINA RESULT:      97.4      0.358      2.137
REMARK  2 active torsions:
REMARK  status: ('A' for Active; 'I' for Inactive)
REMARK    1  A    between atoms: C_9  and  C_3 
REMARK    2  A    between atoms: C_8  and  C_4 
ROOT
ATOM      1  N   UNL d   1      58.847  49.294  50.655  0.00  0.00    -0.242 NA
ATOM      2  N   UNL d   1      59.027  47.673  50.894  0.00  0.00    -0.242 NA
ATOM      3  C   UNL d   1      58.214  48.784  50.522  0.00  0.00     0.099 A 
ATOM      4  C   UNL d   1      58.303  47.979  50.640  0.00  0.00     0.099 A 
ATOM      5  C   UNL d   1      59.568  48.991  50.907  0.00  0.00     0.101 A 
ATOM      6  C   UNL d   1      59.658  48.186  51.026  0.00  0.00     0.099 A 
ATOM      7  C   UNL d   1      60.198  49.501  51.040  0.00  0.00     0.042 A 
ATOM      8  C   UNL d   1      60.379  47.880  51.278  0.00  0.00     0.022 A 
ATOM      9  C   UNL d   1      60.921  49.199  51.292  0.00  0.00     0.104 A 
ATOM     10  N   UNL d   1      61.547  49.708  51.423  0.00  0.00    -0.148 N 
ATOM     11  C   UNL d   1      61.011  48.393  51.411  0.00  0.00     0.023 A 
ENDROOT
BRANCH   3  12
ATOM     12  C   UNL d   1      57.498  49.087  50.271  0.00  0.00     0.019 A 
ATOM     13  C   UNL d   1      56.960  49.395  50.827  0.00  0.00     0.002 A 
ATOM     14  C   UNL d   1      56.232  49.705  50.580  0.00  0.00     0.000 A 
ATOM     15  C   UNL d   1      56.036  49.708  49.770  0.00  0.00     0.000 A 
ATOM     16  C   UNL d   1      56.582  49.397  49.216  0.00  0.00     0.000 A 
ATOM     17  C   UNL d   1      57.304  49.091  49.468  0.00  0.00     0.002 A 
ENDBRANCH   3  12
BRANCH   4  18
ATOM     18  C   UNL d   1      57.678  47.467  50.510  0.00  0.00     0.019 A 
ATOM     19  C   UNL d   1      57.254  47.162  51.160  0.00  0.00     0.002 A 
ATOM     20  C   UNL d   1      56.618  46.642  51.034  0.00  0.00     0.000 A 
ATOM     21  C   UNL d   1      56.403  46.424  50.257  0.00  0.00     0.000 A 
ATOM     22  C   UNL d   1      56.824  46.727  49.608  0.00  0.00     0.000 A 
ATOM     23  C   UNL d   1      57.463  47.249  49.733  0.00  0.00     0.002 A 
ENDBRANCH   4  18
TORSDOF 2
ENDMDL
