MODEL 1
REMARK VINA RESULT:      -4.0      0.000      0.000
REMARK  2 active torsions:
REMARK  status: ('A' for Active; 'I' for Inactive)
REMARK    1  A    between atoms: N_7  and  C_1 
REMARK       I    between atoms: C_8  and  N_7 
REMARK    2  A    between atoms: C_10  and  C_8 
ROOT
ATOM      1  C   UNL d   1      31.541  16.842 -24.178  0.00  0.00     0.159 A 
ATOM      2  N   UNL d   1      30.120  16.988 -24.368  0.00  0.00    -0.257 N 
ATOM      3  C   UNL d   1      29.992  16.359 -23.839  0.00  0.00     0.150 A 
ATOM      4  C   UNL d   1      30.901  17.221 -24.530  0.00  0.00     0.285 A 
ATOM      5  N   UNL d   1      30.633  15.966 -23.475  0.00  0.00    -0.226 NA
ATOM      6  C   UNL d   1      31.407  16.208 -23.646  0.00  0.00     0.105 A 
ATOM      7  C   UNL d   1      29.231  16.114 -23.665  0.00  0.00     0.035 A 
ATOM      8  C   UNL d   1      29.495  17.365 -24.718  0.00  0.00     0.085 A 
ATOM      9  O   UNL d   1      31.028  17.850 -25.059  0.00  0.00    -0.265 OA
ATOM     10  C   UNL d   1      28.720  17.123 -24.548  0.00  0.00     0.019 A 
ATOM     11  C   UNL d   1      28.581  16.508 -24.031  0.00  0.00     0.004 A 
ATOM     12  C   UNL d   1      32.042  15.834 -23.298  0.00  0.00     0.022 C 
ATOM     13  C   UNL d   1      29.085  15.497 -23.148  0.00  0.00     0.003 C 
ENDROOT
BRANCH   1  14
ATOM     14  N   UNL d   1      32.315  17.083 -24.348  0.00  0.00    -0.202 NA
ATOM     15  C   UNL d   1      32.599  17.794 -24.029  0.00  0.00     0.279 C 
ATOM     16  O   UNL d   1      33.172  17.430 -24.487  0.00  0.00    -0.265 OA
BRANCH  15  17
ATOM     17  C   UNL d   1      32.762  18.513 -23.654  0.00  0.00     0.060 A 
ATOM     18  C   UNL d   1      32.825  18.535 -22.836  0.00  0.00     0.031 A 
ATOM     19  C   UNL d   1      32.988  19.256 -22.461  0.00  0.00     0.119 A 
ATOM     20  O   UNL d   1      33.083  19.453 -21.663  0.00  0.00    -0.300 OA
ATOM     21  C   UNL d   1      33.086  19.942 -22.902  0.00  0.00     0.119 A 
ATOM     22  C   UNL d   1      33.241  20.268 -21.611  0.00  0.00     0.304 A 
ATOM     23  O   UNL d   1      33.241  20.567 -22.396  0.00  0.00    -0.300 OA
ATOM     24  C   UNL d   1      33.021  19.913 -23.732  0.00  0.00     0.026 A 
ATOM     25  C   UNL d   1      32.859  19.197 -24.107  0.00  0.00     0.007 A 
ENDBRANCH  15  17
ENDBRANCH   1  14
TORSDOF 2
ENDMDL
MODEL 2
REMARK VINA RESULT:      -4.0      1.344      4.546
REMARK  2 active torsions:
REMARK  status: ('A' for Active; 'I' for Inactive)
REMARK    1  A    between atoms: N_7  and  C_1 
REMARK       I    between atoms: C_8  and  N_7 
REMARK    2  A    between atoms: C_10  and  C_8 
ROOT
ATOM      1  C   UNL d   1      33.240  18.735 -23.561  0.00  0.00     0.159 A 
ATOM      2  N   UNL d   1      33.240  19.524 -22.356  0.00  0.00    -0.257 N 
ATOM      3  C   UNL d   1      33.240  20.215 -22.817  0.00  0.00     0.150 A 
ATOM      4  C   UNL d   1      33.240  18.788 -22.740  0.00  0.00     0.285 A 
ATOM      5  N   UNL d   1      33.240  20.176 -23.651  0.00  0.00    -0.226 NA
ATOM      6  C   UNL d   1      33.240  19.435 -24.022  0.00  0.00     0.105 A 
ATOM      7  C   UNL d   1      33.240  20.952 -22.458  0.00  0.00     0.035 A 
ATOM      8  C   UNL d   1      33.240  19.568 -21.547  0.00  0.00     0.085 A 
ATOM      9  O   UNL d   1      33.240  18.096 -22.278  0.00  0.00    -0.265 OA
ATOM     10  C   UNL d   1      33.241  20.309 -21.175  0.00  0.00     0.019 A 
ATOM     11  C   UNL d   1      33.241  20.996 -21.616  0.00  0.00     0.004 A 
ATOM     12  C   UNL d   1      33.239  19.382 -24.835  0.00  0.00     0.022 C 
ATOM     13  C   UNL d   1      33.240  21.643 -22.895  0.00  0.00     0.003 C 
ENDROOT
BRANCH   1  14
ATOM     14  N   UNL d   1      33.239  17.995 -23.933  0.00  0.00    -0.202 NA
ATOM     15  C   UNL d   1      32.522  17.594 -24.042  0.00  0.00     0.279 C 
ATOM     16  O   UNL d   1      33.148  17.159 -24.342  0.00  0.00    -0.265 OA
BRANCH  15  17
ATOM     17  C   UNL d   1      31.750  17.299 -24.090  0.00  0.00     0.060 A 
ATOM     18  C   UNL d   1      31.203  17.681 -24.568  0.00  0.00     0.031 A 
ATOM     19  C   UNL d   1      30.431  17.386 -24.616  0.00  0.00     0.119 A 
ATOM     20  O   UNL d   1      29.768  17.642 -25.040  0.00  0.00    -0.300 OA
ATOM     21  C   UNL d   1      30.213  16.718 -24.191  0.00  0.00     0.119 A 
ATOM     22  C   UNL d   1      29.136  17.127 -24.875  0.00  0.00     0.304 A 
ATOM     23  O   UNL d   1      29.426  16.549 -24.339  0.00  0.00    -0.300 OA
ATOM     24  C   UNL d   1      30.773  16.335 -23.707  0.00  0.00     0.026 A 
ATOM     25  C   UNL d   1      31.542  16.627 -23.658  0.00  0.00     0.007 A 
ENDBRANCH  15  17
ENDBRANCH   1  14
TORSDOF 2
ENDMDL
MODEL 3
REMARK VINA RESULT:      -3.3      1.493      4.388
REMARK  2 active torsions:
REMARK  status: ('A' for Active; 'I' for Inactive)
REMARK    1  A    between atoms: N_7  and  C_1 
REMARK       I    between atoms: C_8  and  N_7 
REMARK    2  A    between atoms: C_10  and  C_8 
ROOT
ATOM      1  C   UNL d   1      33.214  18.751 -23.533  0.00  0.00     0.159 A 
ATOM      2  N   UNL d   1      33.227  20.161 -23.238  0.00  0.00    -0.257 N 
ATOM      3  C   UNL d   1      33.228  19.984 -22.426  0.00  0.00     0.150 A 
ATOM      4  C   UNL d   1      33.220  19.535 -23.783  0.00  0.00     0.285 A 
ATOM      5  N   UNL d   1      33.223  19.193 -22.158  0.00  0.00    -0.226 NA
ATOM      6  C   UNL d   1      33.216  18.577 -22.712  0.00  0.00     0.105 A 
ATOM      7  C   UNL d   1      33.235  20.587 -21.872  0.00  0.00     0.035 A 
ATOM      8  C   UNL d   1      33.232  20.930 -23.492  0.00  0.00     0.085 A 
ATOM      9  O   UNL d   1      33.218  19.712 -24.596  0.00  0.00    -0.265 OA
ATOM     10  C   UNL d   1      33.239  21.547 -22.938  0.00  0.00     0.019 A 
ATOM     11  C   UNL d   1      33.240  21.387 -22.138  0.00  0.00     0.004 A 
ATOM     12  C   UNL d   1      33.210  17.801 -22.465  0.00  0.00     0.022 C 
ATOM     13  C   UNL d   1      33.237  20.433 -21.069  0.00  0.00     0.003 C 
ENDROOT
BRANCH   1  14
ATOM     14  N   UNL d   1      33.207  18.135 -24.086  0.00  0.00    -0.202 NA
ATOM     15  C   UNL d   1      32.487  17.777 -24.288  0.00  0.00     0.279 C 
ATOM     16  O   UNL d   1      33.108  17.435 -24.698  0.00  0.00    -0.265 OA
BRANCH  15  17
ATOM     17  C   UNL d   1      31.714  17.507 -24.404  0.00  0.00     0.060 A 
ATOM     18  C   UNL d   1      31.510  16.752 -24.151  0.00  0.00     0.031 A 
ATOM     19  C   UNL d   1      30.736  16.482 -24.268  0.00  0.00     0.119 A 
ATOM     20  O   UNL d   1      30.369  15.765 -24.078  0.00  0.00    -0.300 OA
ATOM     21  C   UNL d   1      30.177  16.961 -24.631  0.00  0.00     0.119 A 
ATOM     22  C   UNL d   1      29.576  15.803 -24.328  0.00  0.00     0.304 A 
ATOM     23  O   UNL d   1      29.465  16.560 -24.675  0.00  0.00    -0.300 OA
ATOM     24  C   UNL d   1      30.391  17.725 -24.885  0.00  0.00     0.026 A 
ATOM     25  C   UNL d   1      31.160  17.997 -24.771  0.00  0.00     0.007 A 
ENDBRANCH  15  17
ENDBRANCH   1  14
TORSDOF 2
ENDMDL
MODEL 4
REMARK VINA RESULT:      -2.0      1.382      2.210
REMARK  2 active torsions:
REMARK  status: ('A' for Active; 'I' for Inactive)
REMARK    1  A    between atoms: N_7  and  C_1 
REMARK       I    between atoms: C_8  and  N_7 
REMARK    2  A    between atoms: C_10  and  C_8 
ROOT
ATOM      1  C   UNL d   1      30.635  15.501 -23.699  0.00  0.00     0.159 A 
ATOM      2  N   UNL d   1      29.267  15.576 -23.256  0.00  0.00    -0.257 N 
ATOM      3  C   UNL d   1      29.017  15.568 -24.048  0.00  0.00     0.150 A 
ATOM      4  C   UNL d   1      30.080  15.542 -23.093  0.00  0.00     0.285 A 
ATOM      5  N   UNL d   1      29.570  15.527 -24.673  0.00  0.00    -0.226 NA
ATOM      6  C   UNL d   1      30.379  15.493 -24.497  0.00  0.00     0.105 A 
ATOM      7  C   UNL d   1      28.219  15.601 -24.231  0.00  0.00     0.035 A 
ATOM      8  C   UNL d   1      28.726  15.616 -22.654  0.00  0.00     0.085 A 
ATOM      9  O   UNL d   1      30.330  15.549 -22.300  0.00  0.00    -0.265 OA
ATOM     10  C   UNL d   1      27.917  15.650 -22.829  0.00  0.00     0.019 A 
ATOM     11  C   UNL d   1      27.658  15.643 -23.603  0.00  0.00     0.004 A 
ATOM     12  C   UNL d   1      30.929  15.452 -25.097  0.00  0.00     0.022 C 
ATOM     13  C   UNL d   1      27.954  15.594 -25.004  0.00  0.00     0.003 C 
ENDROOT
BRANCH   1  14
ATOM     14  N   UNL d   1      31.444  15.467 -23.525  0.00  0.00    -0.202 NA
ATOM     15  C   UNL d   1      31.891  16.165 -23.526  0.00  0.00     0.279 C 
ATOM     16  O   UNL d   1      32.359  15.520 -23.340  0.00  0.00    -0.265 OA
BRANCH  15  17
ATOM     17  C   UNL d   1      32.222  16.923 -23.560  0.00  0.00     0.060 A 
ATOM     18  C   UNL d   1      32.286  17.301 -24.287  0.00  0.00     0.031 A 
ATOM     19  C   UNL d   1      32.618  18.059 -24.320  0.00  0.00     0.119 A 
ATOM     20  O   UNL d   1      32.756  18.573 -24.954  0.00  0.00    -0.300 OA
ATOM     21  C   UNL d   1      32.879  18.431 -23.636  0.00  0.00     0.119 A 
ATOM     22  C   UNL d   1      33.105  19.268 -24.658  0.00  0.00     0.304 A 
ATOM     23  O   UNL d   1      33.179  19.168 -23.827  0.00  0.00    -0.300 OA
ATOM     24  C   UNL d   1      32.811  18.042 -22.903  0.00  0.00     0.026 A 
ATOM     25  C   UNL d   1      32.481  17.287 -22.866  0.00  0.00     0.007 A 
ENDBRANCH  15  17
ENDBRANCH   1  14
TORSDOF 2
ENDMDL
