MODEL 1
REMARK VINA RESULT:      -0.8      0.000      0.000
REMARK  3 active torsions:
REMARK  status: ('A' for Active; 'I' for Inactive)
REMARK    1  A    between atoms: C_6  and  N_3 
REMARK    2  A    between atoms: C_5  and  C_4 
REMARK    3  A    between atoms: O_18  and  C_14 
ROOT
ATOM      1  C   UNL d   1     -41.421-121.053 -51.087  0.00  0.00     0.366 A 
ATOM      2  C   UNL d   1     -41.342-120.896 -51.893  0.00  0.00     0.308 A 
ATOM      3  N   UNL d   1     -41.570-121.650 -52.078  0.00  0.00    -0.272 N 
ATOM      4  C   UNL d   1     -41.655-121.826 -51.257  0.00  0.00     0.115 A 
ATOM      5  O   UNL d   1     -41.123-120.245 -52.347  0.00  0.00    -0.265 OA
ATOM      6  F   UNL d   1     -41.176-120.265 -51.062  0.00  0.00    -0.188 F 
ATOM      7  F   UNL d   1     -41.381-120.830 -50.297  0.00  0.00    -0.188 F 
ENDROOT
BRANCH   3   8
ATOM      8  C   UNL d   1     -41.682-122.094 -52.785  0.00  0.00     0.067 A 
ATOM      9  C   UNL d   1     -42.331-121.944 -53.256  0.00  0.00     0.020 A 
ATOM     10  C   UNL d   1     -42.454-122.371 -53.952  0.00  0.00     0.026 A 
ATOM     11  C   UNL d   1     -41.906-122.951 -54.158  0.00  0.00     0.094 A 
ATOM     12  C   UNL d   1     -41.249-123.113 -53.694  0.00  0.00     0.026 A 
ATOM     13  C   UNL d   1     -41.125-122.686 -52.998  0.00  0.00     0.020 A 
BRANCH  11  14
ATOM     14  O   UNL d   1     -42.020-123.392 -54.863  0.00  0.00    -0.328 OA
ATOM     15  C   UNL d   1     -42.372-123.033 -55.528  0.00  0.00     0.181 C 
ENDBRANCH  11  14
ENDBRANCH   3   8
BRANCH   4  16
ATOM     16  C   UNL d   1     -41.880-122.496 -50.819  0.00  0.00     0.045 A 
ATOM     17  C   UNL d   1     -42.642-122.546 -50.526  0.00  0.00     0.141 A 
ATOM     18  F   UNL d   1     -43.197-121.931 -50.661  0.00  0.00    -0.204 F 
ATOM     19  C   UNL d   1     -42.858-123.232 -50.083  0.00  0.00     0.030 A 
ATOM     20  C   UNL d   1     -42.298-123.817 -49.966  0.00  0.00     0.002 A 
ATOM     21  C   UNL d   1     -41.539-123.772 -50.256  0.00  0.00     0.000 A 
ATOM     22  C   UNL d   1     -41.312-123.099 -50.696  0.00  0.00     0.004 A 
ENDBRANCH   4  16
TORSDOF 3
ENDMDL
MODEL 2
REMARK VINA RESULT:       0.8      1.472      3.263
REMARK  3 active torsions:
REMARK  status: ('A' for Active; 'I' for Inactive)
REMARK    1  A    between atoms: C_6  and  N_3 
REMARK    2  A    between atoms: C_5  and  C_4 
REMARK    3  A    between atoms: O_18  and  C_14 
ROOT
ATOM      1  C   UNL d   1     -41.320-120.927 -52.735  0.00  0.00     0.366 A 
ATOM      2  C   UNL d   1     -41.357-120.853 -51.914  0.00  0.00     0.308 A 
ATOM      3  N   UNL d   1     -41.560-121.632 -51.837  0.00  0.00    -0.272 N 
ATOM      4  C   UNL d   1     -41.526-121.724 -52.675  0.00  0.00     0.115 A 
ATOM      5  O   UNL d   1     -41.239-120.243 -51.373  0.00  0.00    -0.265 OA
ATOM      6  F   UNL d   1     -41.123-120.130 -52.650  0.00  0.00    -0.188 F 
ATOM      7  F   UNL d   1     -41.191-120.620 -53.487  0.00  0.00    -0.188 F 
ENDROOT
BRANCH   3   8
ATOM      8  C   UNL d   1     -41.736-122.153 -51.199  0.00  0.00     0.067 A 
ATOM      9  C   UNL d   1     -42.494-122.182 -50.900  0.00  0.00     0.020 A 
ATOM     10  C   UNL d   1     -42.681-122.688 -50.275  0.00  0.00     0.026 A 
ATOM     11  C   UNL d   1     -42.084-123.161 -49.961  0.00  0.00     0.094 A 
ATOM     12  C   UNL d   1     -41.316-123.142 -50.251  0.00  0.00     0.026 A 
ATOM     13  C   UNL d   1     -41.129-122.637 -50.877  0.00  0.00     0.020 A 
BRANCH  11  14
ATOM     14  O   UNL d   1     -42.261-123.679 -49.325  0.00  0.00    -0.328 OA
ATOM     15  C   UNL d   1     -42.339-123.380 -48.551  0.00  0.00     0.181 C 
ENDBRANCH  11  14
ENDBRANCH   3   8
BRANCH   4  16
ATOM     16  C   UNL d   1     -41.651-122.355 -53.203  0.00  0.00     0.045 A 
ATOM     17  C   UNL d   1     -42.278-122.321 -53.725  0.00  0.00     0.141 A 
ATOM     18  F   UNL d   1     -42.797-121.661 -53.735  0.00  0.00    -0.204 F 
ATOM     19  C   UNL d   1     -42.394-122.968 -54.256  0.00  0.00     0.030 A 
ATOM     20  C   UNL d   1     -41.875-123.600 -54.227  0.00  0.00     0.002 A 
ATOM     21  C   UNL d   1     -41.248-123.637 -53.708  0.00  0.00     0.000 A 
ATOM     22  C   UNL d   1     -41.123-123.004 -53.178  0.00  0.00     0.004 A 
ENDBRANCH   4  16
TORSDOF 3
ENDMDL
