MODEL 1
REMARK VINA RESULT:      -3.0      0.000      0.000
REMARK  3 active torsions:
REMARK  status: ('A' for Active; 'I' for Inactive)
REMARK    1  A    between atoms: C_2  and  C_1 
REMARK    2  A    between atoms: C_5  and  C_2 
REMARK    3  A    between atoms: C_4  and  C_3 
ROOT
ATOM      1  C   UNL d   1      31.665  16.747 -23.956  0.00  0.00     0.045 A 
ATOM      2  C   UNL d   1      32.432  16.614 -23.681  0.00  0.00     0.068 A 
ATOM      3  C   UNL d   1      31.375  17.513 -24.032  0.00  0.00     0.003 A 
ATOM      4  C   UNL d   1      32.913  17.257 -23.482  0.00  0.00     0.006 A 
ATOM      5  C   UNL d   1      31.850  18.154 -23.835  0.00  0.00     0.000 A 
ATOM      6  C   UNL d   1      32.627  18.025 -23.557  0.00  0.00     0.000 A 
ENDROOT
BRANCH   1   7
ATOM      7  C   UNL d   1      31.180  16.102 -24.157  0.00  0.00     0.196 C 
ATOM      8  O   UNL d   1      31.506  15.453 -24.544  0.00  0.00    -0.287 OA
BRANCH   7   9
ATOM      9  C   UNL d   1      30.376  16.112 -23.969  0.00  0.00     0.039 A 
ATOM     10  C   UNL d   1      30.113  15.813 -23.240  0.00  0.00     0.005 A 
ATOM     11  C   UNL d   1      29.305  15.826 -23.057  0.00  0.00     0.030 A 
ATOM     12  C   UNL d   1      28.766  16.133 -23.594  0.00  0.00     0.140 A 
ATOM     13  C   UNL d   1      29.026  16.429 -24.315  0.00  0.00     0.030 A 
ATOM     14  F   UNL d   1      27.958  16.140 -23.399  0.00  0.00    -0.204 F 
ATOM     15  C   UNL d   1      29.828  16.421 -24.508  0.00  0.00     0.005 A 
ENDBRANCH   7   9
ENDBRANCH   1   7
BRANCH   2  16
ATOM     16  C   UNL d   1      32.710  15.843 -23.609  0.00  0.00     0.211 C 
ATOM     17  O   UNL d   1      32.665  15.453 -22.880  0.00  0.00    -0.644 OA
ATOM     18  O   UNL d   1      33.032  15.471 -24.266  0.00  0.00    -0.644 OA
ENDBRANCH   2  16
TORSDOF 3
ENDMDL
MODEL 2
REMARK VINA RESULT:      -2.6      1.869      3.242
REMARK  3 active torsions:
REMARK  status: ('A' for Active; 'I' for Inactive)
REMARK    1  A    between atoms: C_2  and  C_1 
REMARK    2  A    between atoms: C_5  and  C_2 
REMARK    3  A    between atoms: C_4  and  C_3 
ROOT
ATOM      1  C   UNL d   1      31.568  17.169 -24.503  0.00  0.00     0.045 A 
ATOM      2  C   UNL d   1      31.316  16.385 -24.445  0.00  0.00     0.068 A 
ATOM      3  C   UNL d   1      31.031  17.770 -24.669  0.00  0.00     0.003 A 
ATOM      4  C   UNL d   1      30.516  16.203 -24.554  0.00  0.00     0.006 A 
ATOM      5  C   UNL d   1      30.237  17.593 -24.778  0.00  0.00     0.000 A 
ATOM      6  C   UNL d   1      29.976  16.800 -24.720  0.00  0.00     0.000 A 
ENDROOT
BRANCH   1   7
ATOM      7  C   UNL d   1      32.372  17.354 -24.394  0.00  0.00     0.196 C 
ATOM      8  O   UNL d   1      32.949  16.829 -24.654  0.00  0.00    -0.287 OA
BRANCH   7   9
ATOM      9  C   UNL d   1      32.589  18.061 -24.027  0.00  0.00     0.039 A 
ATOM     10  C   UNL d   1      32.590  18.118 -23.198  0.00  0.00     0.005 A 
ATOM     11  C   UNL d   1      32.809  18.830 -22.835  0.00  0.00     0.030 A 
ATOM     12  C   UNL d   1      33.024  19.477 -23.292  0.00  0.00     0.140 A 
ATOM     13  C   UNL d   1      33.022  19.421 -24.112  0.00  0.00     0.030 A 
ATOM     14  F   UNL d   1      33.241  20.185 -22.916  0.00  0.00    -0.204 F 
ATOM     15  C   UNL d   1      32.806  18.717 -24.484  0.00  0.00     0.005 A 
ENDBRANCH   7   9
ENDBRANCH   1   7
BRANCH   2  16
ATOM     16  C   UNL d   1      31.863  15.793 -24.279  0.00  0.00     0.211 C 
ATOM     17  O   UNL d   1      31.973  15.538 -23.499  0.00  0.00    -0.644 OA
ATOM     18  O   UNL d   1      32.293  15.462 -24.895  0.00  0.00    -0.644 OA
ENDBRANCH   2  16
TORSDOF 3
ENDMDL
MODEL 3
REMARK VINA RESULT:      -2.6      1.282      1.762
REMARK  3 active torsions:
REMARK  status: ('A' for Active; 'I' for Inactive)
REMARK    1  A    between atoms: C_2  and  C_1 
REMARK    2  A    between atoms: C_5  and  C_2 
REMARK    3  A    between atoms: C_4  and  C_3 
ROOT
ATOM      1  C   UNL d   1      31.291  16.483 -24.088  0.00  0.00     0.045 A 
ATOM      2  C   UNL d   1      31.938  16.985 -23.986  0.00  0.00     0.068 A 
ATOM      3  C   UNL d   1      31.301  15.720 -23.780  0.00  0.00     0.003 A 
ATOM      4  C   UNL d   1      32.602  16.719 -23.571  0.00  0.00     0.006 A 
ATOM      5  C   UNL d   1      31.959  15.453 -23.368  0.00  0.00     0.000 A 
ATOM      6  C   UNL d   1      32.617  15.957 -23.262  0.00  0.00     0.000 A 
ENDROOT
BRANCH   1   7
ATOM      7  C   UNL d   1      30.622  16.749 -24.505  0.00  0.00     0.196 C 
ATOM      8  O   UNL d   1      30.710  17.314 -25.097  0.00  0.00    -0.287 OA
BRANCH   7   9
ATOM      9  C   UNL d   1      29.874  16.449 -24.326  0.00  0.00     0.039 A 
ATOM     10  C   UNL d   1      29.583  15.784 -24.731  0.00  0.00     0.005 A 
ATOM     11  C   UNL d   1      28.832  15.486 -24.547  0.00  0.00     0.030 A 
ATOM     12  C   UNL d   1      28.377  15.846 -23.968  0.00  0.00     0.140 A 
ATOM     13  C   UNL d   1      28.664  16.504 -23.568  0.00  0.00     0.030 A 
ATOM     14  F   UNL d   1      27.625  15.539 -23.793  0.00  0.00    -0.204 F 
ATOM     15  C   UNL d   1      29.410  16.809 -23.742  0.00  0.00     0.005 A 
ENDBRANCH   7   9
ENDBRANCH   1   7
BRANCH   2  16
ATOM     16  C   UNL d   1      31.915  17.746 -24.299  0.00  0.00     0.211 C 
ATOM     17  O   UNL d   1      32.142  17.879 -25.084  0.00  0.00    -0.644 OA
ATOM     18  O   UNL d   1      31.666  18.367 -23.822  0.00  0.00    -0.644 OA
ENDBRANCH   2  16
TORSDOF 3
ENDMDL
MODEL 4
REMARK VINA RESULT:      -2.4      1.942      3.374
REMARK  3 active torsions:
REMARK  status: ('A' for Active; 'I' for Inactive)
REMARK    1  A    between atoms: C_2  and  C_1 
REMARK    2  A    between atoms: C_5  and  C_2 
REMARK    3  A    between atoms: C_4  and  C_3 
ROOT
ATOM      1  C   UNL d   1      29.446  16.851 -24.383  0.00  0.00     0.045 A 
ATOM      2  C   UNL d   1      28.742  16.755 -23.964  0.00  0.00     0.068 A 
ATOM      3  C   UNL d   1      29.617  17.564 -24.756  0.00  0.00     0.003 A 
ATOM      4  C   UNL d   1      28.204  17.382 -23.918  0.00  0.00     0.006 A 
ATOM      5  C   UNL d   1      29.086  18.189 -24.712  0.00  0.00     0.000 A 
ATOM      6  C   UNL d   1      28.371  18.097 -24.288  0.00  0.00     0.000 A 
ENDROOT
BRANCH   1   7
ATOM      7  C   UNL d   1      29.989  16.222 -24.431  0.00  0.00     0.196 C 
ATOM      8  O   UNL d   1      29.712  15.453 -24.526  0.00  0.00    -0.287 OA
BRANCH   7   9
ATOM      9  C   UNL d   1      30.800  16.368 -24.383  0.00  0.00     0.039 A 
ATOM     10  C   UNL d   1      31.243  16.494 -25.075  0.00  0.00     0.005 A 
ATOM     11  C   UNL d   1      32.056  16.641 -25.021  0.00  0.00     0.030 A 
ATOM     12  C   UNL d   1      32.424  16.661 -24.288  0.00  0.00     0.140 A 
ATOM     13  C   UNL d   1      31.986  16.536 -23.603  0.00  0.00     0.030 A 
ATOM     14  F   UNL d   1      33.241  16.809 -24.247  0.00  0.00    -0.204 F 
ATOM     15  C   UNL d   1      31.175  16.390 -23.645  0.00  0.00     0.005 A 
ENDBRANCH   7   9
ENDBRANCH   1   7
BRANCH   2  16
ATOM     16  C   UNL d   1      28.582  16.036 -23.596  0.00  0.00     0.211 C 
ATOM     17  O   UNL d   1      28.824  15.908 -22.815  0.00  0.00    -0.644 OA
ATOM     18  O   UNL d   1      28.182  15.454 -24.014  0.00  0.00    -0.644 OA
ENDBRANCH   2  16
TORSDOF 3
ENDMDL
MODEL 5
REMARK VINA RESULT:      -1.5      6.013      7.106
REMARK  3 active torsions:
REMARK  status: ('A' for Active; 'I' for Inactive)
REMARK    1  A    between atoms: C_2  and  C_1 
REMARK    2  A    between atoms: C_5  and  C_2 
REMARK    3  A    between atoms: C_4  and  C_3 
ROOT
ATOM      1  C   UNL d   1      32.848  22.052 -21.552  0.00  0.00     0.045 A 
ATOM      2  C   UNL d   1      32.685  21.873 -20.764  0.00  0.00     0.068 A 
ATOM      3  C   UNL d   1      32.954  21.451 -22.105  0.00  0.00     0.003 A 
ATOM      4  C   UNL d   1      32.628  21.082 -20.526  0.00  0.00     0.006 A 
ATOM      5  C   UNL d   1      32.898  20.665 -21.872  0.00  0.00     0.000 A 
ATOM      6  C   UNL d   1      32.733  20.478 -21.074  0.00  0.00     0.000 A 
ENDROOT
BRANCH   1   7
ATOM      7  C   UNL d   1      32.906  22.846 -21.793  0.00  0.00     0.196 C 
ATOM      8  O   UNL d   1      33.139  23.420 -21.251  0.00  0.00    -0.287 OA
BRANCH   7   9
ATOM      9  C   UNL d   1      32.731  23.058 -22.572  0.00  0.00     0.039 A 
ATOM     10  C   UNL d   1      33.241  22.836 -23.190  0.00  0.00     0.005 A 
ATOM     11  C   UNL d   1      33.060  23.052 -23.969  0.00  0.00     0.030 A 
ATOM     12  C   UNL d   1      32.381  23.483 -24.131  0.00  0.00     0.140 A 
ATOM     13  C   UNL d   1      31.877  23.702 -23.520  0.00  0.00     0.030 A 
ATOM     14  F   UNL d   1      32.211  23.693 -24.917  0.00  0.00    -0.204 F 
ATOM     15  C   UNL d   1      32.047  23.493 -22.740  0.00  0.00     0.005 A 
ENDBRANCH   7   9
ENDBRANCH   1   7
BRANCH   2  16
ATOM     16  C   UNL d   1      32.582  22.483 -20.221  0.00  0.00     0.211 C 
ATOM     17  O   UNL d   1      31.832  22.815 -20.109  0.00  0.00    -0.644 OA
ATOM     18  O   UNL d   1      33.230  22.754 -19.795  0.00  0.00    -0.644 OA
ENDBRANCH   2  16
TORSDOF 3
ENDMDL
MODEL 6
REMARK VINA RESULT:      -0.9      6.804      8.072
REMARK  3 active torsions:
REMARK  status: ('A' for Active; 'I' for Inactive)
REMARK    1  A    between atoms: C_2  and  C_1 
REMARK    2  A    between atoms: C_5  and  C_2 
REMARK    3  A    between atoms: C_4  and  C_3 
ROOT
ATOM      1  C   UNL d   1      32.812  22.226 -20.313  0.00  0.00     0.045 A 
ATOM      2  C   UNL d   1      32.425  22.188 -21.042  0.00  0.00     0.068 A 
ATOM      3  C   UNL d   1      33.069  21.538 -19.941  0.00  0.00     0.003 A 
ATOM      4  C   UNL d   1      32.295  21.454 -21.399  0.00  0.00     0.006 A 
ATOM      5  C   UNL d   1      32.941  20.808 -20.293  0.00  0.00     0.000 A 
ATOM      6  C   UNL d   1      32.550  20.764 -21.031  0.00  0.00     0.000 A 
ENDROOT
BRANCH   1   7
ATOM      7  C   UNL d   1      32.944  22.963 -19.952  0.00  0.00     0.196 C 
ATOM      8  O   UNL d   1      33.225  23.592 -20.402  0.00  0.00    -0.287 OA
BRANCH   7   9
ATOM      9  C   UNL d   1      32.794  23.063 -19.146  0.00  0.00     0.039 A 
ATOM     10  C   UNL d   1      33.241  23.606 -18.703  0.00  0.00     0.005 A 
ATOM     11  C   UNL d   1      33.086  23.702 -17.895  0.00  0.00     0.030 A 
ATOM     12  C   UNL d   1      32.494  23.265 -17.533  0.00  0.00     0.140 A 
ATOM     13  C   UNL d   1      32.052  22.729 -17.972  0.00  0.00     0.030 A 
ATOM     14  F   UNL d   1      32.349  23.371 -16.721  0.00  0.00    -0.204 F 
ATOM     15  C   UNL d   1      32.197  22.624 -18.777  0.00  0.00     0.005 A 
ENDBRANCH   7   9
ENDBRANCH   1   7
BRANCH   2  16
ATOM     16  C   UNL d   1      32.173  22.883 -21.404  0.00  0.00     0.211 C 
ATOM     17  O   UNL d   1      32.672  23.279 -21.933  0.00  0.00    -0.644 OA
ATOM     18  O   UNL d   1      31.424  23.173 -21.234  0.00  0.00    -0.644 OA
ENDBRANCH   2  16
TORSDOF 3
ENDMDL
MODEL 7
REMARK VINA RESULT:      -0.7      2.208      3.148
REMARK  3 active torsions:
REMARK  status: ('A' for Active; 'I' for Inactive)
REMARK    1  A    between atoms: C_2  and  C_1 
REMARK    2  A    between atoms: C_5  and  C_2 
REMARK    3  A    between atoms: C_4  and  C_3 
ROOT
ATOM      1  C   UNL d   1      32.886  18.829 -23.464  0.00  0.00     0.045 A 
ATOM      2  C   UNL d   1      32.846  19.651 -23.529  0.00  0.00     0.068 A 
ATOM      3  C   UNL d   1      33.079  18.475 -22.747  0.00  0.00     0.003 A 
ATOM      4  C   UNL d   1      33.001  20.122 -22.866  0.00  0.00     0.006 A 
ATOM      5  C   UNL d   1      33.233  18.939 -22.088  0.00  0.00     0.000 A 
ATOM      6  C   UNL d   1      33.194  19.772 -22.148  0.00  0.00     0.000 A 
ENDROOT
BRANCH   1   7
ATOM      7  C   UNL d   1      32.731  18.353 -24.129  0.00  0.00     0.196 C 
ATOM      8  O   UNL d   1      33.047  18.560 -24.860  0.00  0.00    -0.287 OA
BRANCH   7   9
ATOM      9  C   UNL d   1      32.262  17.678 -24.056  0.00  0.00     0.039 A 
ATOM     10  C   UNL d   1      31.434  17.743 -24.050  0.00  0.00     0.005 A 
ATOM     11  C   UNL d   1      30.968  17.062 -23.976  0.00  0.00     0.030 A 
ATOM     12  C   UNL d   1      31.323  16.325 -23.910  0.00  0.00     0.140 A 
ATOM     13  C   UNL d   1      32.143  16.261 -23.916  0.00  0.00     0.030 A 
ATOM     14  F   UNL d   1      30.845  15.649 -23.837  0.00  0.00    -0.204 F 
ATOM     15  C   UNL d   1      32.616  16.932 -23.988  0.00  0.00     0.005 A 
ENDBRANCH   7   9
ENDBRANCH   1   7
BRANCH   2  16
ATOM     16  C   UNL d   1      32.653  19.993 -24.252  0.00  0.00     0.211 C 
ATOM     17  O   UNL d   1      33.241  20.123 -24.819  0.00  0.00    -0.644 OA
ATOM     18  O   UNL d   1      31.872  20.202 -24.399  0.00  0.00    -0.644 OA
ENDBRANCH   2  16
TORSDOF 3
ENDMDL
