MODEL 1
REMARK VINA RESULT:      -9.0      0.000      0.000
REMARK  3 active torsions:
REMARK  status: ('A' for Active; 'I' for Inactive)
REMARK    1  A    between atoms: C_8  and  C_2 
REMARK    2  A    between atoms: O_11  and  C_8 
REMARK    3  A    between atoms: C_12  and  O_11 
ROOT
ATOM      1  O   UNL d   1      51.601  34.459  52.798  0.00  0.00    -0.302 OA
ENDROOT
BRANCH   1   2
ATOM      2  C   UNL d   1      50.853  34.183  53.025  0.00  0.00     0.161 C 
BRANCH   2   3
ATOM      3  C   UNL d   1      50.185  34.406  52.594  0.00  0.00     0.188 A 
ATOM      4  N   UNL d   1      49.541  34.872  52.889  0.00  0.00    -0.224 NA
ATOM      5  C   UNL d   1      49.007  34.959  52.289  0.00  0.00     0.101 A 
ATOM      6  C   UNL d   1      49.310  34.546  51.605  0.00  0.00     0.101 A 
ATOM      7  C   UNL d   1      48.271  35.344  52.209  0.00  0.00     0.021 A 
ATOM      8  C   UNL d   1      48.878  34.539  50.903  0.00  0.00     0.021 A 
ATOM      9  N   UNL d   1      50.019  34.220  51.810  0.00  0.00    -0.224 NA
ATOM     10  C   UNL d   1      48.153  34.931  50.860  0.00  0.00     0.002 A 
ATOM     11  C   UNL d   1      47.860  35.331  51.521  0.00  0.00     0.002 A 
ENDBRANCH   2   3
ENDBRANCH   1   2
BRANCH   1  12
ATOM     12  C   UNL d   1      52.239  34.299  53.297  0.00  0.00     0.100 A 
ATOM     13  C   UNL d   1      52.534  33.559  53.404  0.00  0.00     0.025 A 
ATOM     14  C   UNL d   1      53.172  33.427  53.909  0.00  0.00     0.002 A 
ATOM     15  C   UNL d   1      53.466  32.639  54.006  0.00  0.00     0.000 A 
ATOM     16  C   UNL d   1      53.516  34.035  54.307  0.00  0.00     0.000 A 
ATOM     17  C   UNL d   1      54.105  32.507  54.511  0.00  0.00     0.000 A 
ATOM     18  C   UNL d   1      54.473  33.158  54.937  0.00  0.00     0.000 A 
ATOM     19  C   UNL d   1      54.155  33.903  54.812  0.00  0.00     0.000 A 
ATOM     20  C   UNL d   1      53.223  34.828  54.211  0.00  0.00     0.002 A 
ATOM     21  C   UNL d   1      52.584  34.960  53.706  0.00  0.00     0.025 A 
ENDBRANCH   1  12
TORSDOF 3
ENDMDL
MODEL 2
REMARK VINA RESULT:      -8.5      1.142      5.137
REMARK  3 active torsions:
REMARK  status: ('A' for Active; 'I' for Inactive)
REMARK    1  A    between atoms: C_8  and  C_2 
REMARK    2  A    between atoms: O_11  and  C_8 
REMARK    3  A    between atoms: C_12  and  O_11 
ROOT
ATOM      1  O   UNL d   1      50.811  34.017  53.038  0.00  0.00    -0.302 OA
ENDROOT
BRANCH   1   2
ATOM      2  C   UNL d   1      51.539  34.403  52.946  0.00  0.00     0.161 C 
BRANCH   2   3
ATOM      3  C   UNL d   1      52.217  34.089  53.296  0.00  0.00     0.188 A 
ATOM      4  N   UNL d   1      52.615  34.409  53.974  0.00  0.00    -0.224 NA
ATOM      5  C   UNL d   1      53.250  33.934  54.132  0.00  0.00     0.101 A 
ATOM      6  C   UNL d   1      53.259  33.306  53.552  0.00  0.00     0.101 A 
ATOM      7  C   UNL d   1      53.855  33.934  54.706  0.00  0.00     0.021 A 
ATOM      8  C   UNL d   1      53.850  32.732  53.575  0.00  0.00     0.021 A 
ATOM      9  N   UNL d   1      52.629  33.418  53.059  0.00  0.00    -0.224 NA
ATOM     10  C   UNL d   1      54.433  32.763  54.158  0.00  0.00     0.002 A 
ATOM     11  C   UNL d   1      54.424  33.370  54.718  0.00  0.00     0.002 A 
ENDBRANCH   2   3
ENDBRANCH   1   2
BRANCH   1  12
ATOM     12  C   UNL d   1      50.142  34.373  52.711  0.00  0.00     0.100 A 
ATOM     13  C   UNL d   1      49.661  34.863  53.130  0.00  0.00     0.025 A 
ATOM     14  C   UNL d   1      48.998  35.206  52.778  0.00  0.00     0.002 A 
ATOM     15  C   UNL d   1      48.506  35.719  53.238  0.00  0.00     0.000 A 
ATOM     16  C   UNL d   1      48.816  35.060  52.009  0.00  0.00     0.000 A 
ATOM     17  C   UNL d   1      47.843  36.062  52.887  0.00  0.00     0.000 A 
ATOM     18  C   UNL d   1      47.648  35.905  52.063  0.00  0.00     0.000 A 
ATOM     19  C   UNL d   1      48.153  35.403  51.658  0.00  0.00     0.000 A 
ATOM     20  C   UNL d   1      49.309  34.545  51.545  0.00  0.00     0.002 A 
ATOM     21  C   UNL d   1      49.972  34.201  51.896  0.00  0.00     0.025 A 
ENDBRANCH   1  12
TORSDOF 3
ENDMDL
MODEL 3
REMARK VINA RESULT:      -6.8      2.955      4.510
REMARK  3 active torsions:
REMARK  status: ('A' for Active; 'I' for Inactive)
REMARK    1  A    between atoms: C_8  and  C_2 
REMARK    2  A    between atoms: O_11  and  C_8 
REMARK    3  A    between atoms: C_12  and  O_11 
ROOT
ATOM      1  O   UNL d   1      53.058  31.811  53.402  0.00  0.00    -0.302 OA
ENDROOT
BRANCH   1   2
ATOM      2  C   UNL d   1      53.655  32.307  53.694  0.00  0.00     0.161 C 
BRANCH   2   3
ATOM      3  C   UNL d   1      53.488  33.097  53.862  0.00  0.00     0.188 A 
ATOM      4  N   UNL d   1      53.726  33.513  54.562  0.00  0.00    -0.224 NA
ATOM      5  C   UNL d   1      53.448  34.269  54.503  0.00  0.00     0.101 A 
ATOM      6  C   UNL d   1      53.030  34.339  53.761  0.00  0.00     0.101 A 
ATOM      7  C   UNL d   1      53.485  34.948  54.987  0.00  0.00     0.021 A 
ATOM      8  C   UNL d   1      52.684  35.056  53.549  0.00  0.00     0.021 A 
ATOM      9  N   UNL d   1      53.066  33.623  53.391  0.00  0.00    -0.224 NA
ATOM     10  C   UNL d   1      52.740  35.708  54.053  0.00  0.00     0.002 A 
ATOM     11  C   UNL d   1      53.144  35.640  54.770  0.00  0.00     0.002 A 
ENDBRANCH   2   3
ENDBRANCH   1   2
BRANCH   1  12
ATOM     12  C   UNL d   1      53.121  31.001  53.551  0.00  0.00     0.100 A 
ATOM     13  C   UNL d   1      53.213  30.700  54.290  0.00  0.00     0.025 A 
ATOM     14  C   UNL d   1      53.274  29.886  54.410  0.00  0.00     0.002 A 
ATOM     15  C   UNL d   1      53.370  29.591  55.198  0.00  0.00     0.000 A 
ATOM     16  C   UNL d   1      53.244  29.374  53.791  0.00  0.00     0.000 A 
ATOM     17  C   UNL d   1      53.431  28.777  55.318  0.00  0.00     0.000 A 
ATOM     18  C   UNL d   1      53.398  28.229  54.655  0.00  0.00     0.000 A 
ATOM     19  C   UNL d   1      53.305  28.560  53.911  0.00  0.00     0.000 A 
ATOM     20  C   UNL d   1      53.147  29.668  52.999  0.00  0.00     0.002 A 
ATOM     21  C   UNL d   1      53.086  30.482  52.879  0.00  0.00     0.025 A 
ENDBRANCH   1  12
TORSDOF 3
ENDMDL
MODEL 4
REMARK VINA RESULT:      -6.4     10.500     11.141
REMARK  3 active torsions:
REMARK  status: ('A' for Active; 'I' for Inactive)
REMARK    1  A    between atoms: C_8  and  C_2 
REMARK    2  A    between atoms: O_11  and  C_8 
REMARK    3  A    between atoms: C_12  and  O_11 
ROOT
ATOM      1  O   UNL d   1      45.340  26.590  56.557  0.00  0.00    -0.302 OA
ENDROOT
BRANCH   1   2
ATOM      2  C   UNL d   1      44.657  26.132  56.450  0.00  0.00     0.161 C 
BRANCH   2   3
ATOM      3  C   UNL d   1      44.687  25.454  55.982  0.00  0.00     0.188 A 
ATOM      4  N   UNL d   1      44.341  25.370  55.212  0.00  0.00    -0.224 NA
ATOM      5  C   UNL d   1      44.500  24.622  54.951  0.00  0.00     0.101 A 
ATOM      6  C   UNL d   1      44.950  24.223  55.558  0.00  0.00     0.101 A 
ATOM      7  C   UNL d   1      44.324  24.191  54.259  0.00  0.00     0.021 A 
ATOM      8  C   UNL d   1      45.193  23.443  55.446  0.00  0.00     0.021 A 
ATOM      9  N   UNL d   1      45.052  24.741  56.169  0.00  0.00    -0.224 NA
ATOM     10  C   UNL d   1      45.002  23.048  54.747  0.00  0.00     0.002 A 
ATOM     11  C   UNL d   1      44.566  23.433  54.161  0.00  0.00     0.002 A 
ENDBRANCH   2   3
ENDBRANCH   1   2
BRANCH   1  12
ATOM     12  C   UNL d   1      45.272  27.289  56.991  0.00  0.00     0.100 A 
ATOM     13  C   UNL d   1      45.059  27.989  56.660  0.00  0.00     0.025 A 
ATOM     14  C   UNL d   1      44.998  28.673  57.117  0.00  0.00     0.002 A 
ATOM     15  C   UNL d   1      44.773  29.400  56.746  0.00  0.00     0.000 A 
ATOM     16  C   UNL d   1      45.150  28.656  57.907  0.00  0.00     0.000 A 
ATOM     17  C   UNL d   1      44.712  30.083  57.204  0.00  0.00     0.000 A 
ATOM     18  C   UNL d   1      44.874  30.065  58.049  0.00  0.00     0.000 A 
ATOM     19  C   UNL d   1      45.089  29.340  58.364  0.00  0.00     0.000 A 
ATOM     20  C   UNL d   1      45.377  27.927  58.282  0.00  0.00     0.002 A 
ATOM     21  C   UNL d   1      45.438  27.243  57.824  0.00  0.00     0.025 A 
ENDBRANCH   1  12
TORSDOF 3
ENDMDL
MODEL 5
REMARK VINA RESULT:      -6.4      9.795     10.874
REMARK  3 active torsions:
REMARK  status: ('A' for Active; 'I' for Inactive)
REMARK    1  A    between atoms: C_8  and  C_2 
REMARK    2  A    between atoms: O_11  and  C_8 
REMARK    3  A    between atoms: C_12  and  O_11 
ROOT
ATOM      1  O   UNL d   1      44.984  30.601  59.318  0.00  0.00    -0.302 OA
ENDROOT
BRANCH   1   2
ATOM      2  C   UNL d   1      44.429  31.017  59.772  0.00  0.00     0.161 C 
BRANCH   2   3
ATOM      3  C   UNL d   1      44.423  30.934  60.593  0.00  0.00     0.188 A 
ATOM      4  N   UNL d   1      44.496  30.201  61.014  0.00  0.00    -0.224 NA
ATOM      5  C   UNL d   1      44.463  30.368  61.804  0.00  0.00     0.101 A 
ATOM      6  C   UNL d   1      44.369  31.214  61.889  0.00  0.00     0.101 A 
ATOM      7  C   UNL d   1      44.500  29.915  62.503  0.00  0.00     0.021 A 
ATOM      8  C   UNL d   1      44.318  31.549  62.641  0.00  0.00     0.021 A 
ATOM      9  N   UNL d   1      44.347  31.534  61.149  0.00  0.00    -0.224 NA
ATOM     10  C   UNL d   1      44.359  31.069  63.311  0.00  0.00     0.002 A 
ATOM     11  C   UNL d   1      44.450  30.252  63.228  0.00  0.00     0.002 A 
ENDBRANCH   2   3
ENDBRANCH   1   2
BRANCH   1  12
ATOM     12  C   UNL d   1      44.880  30.585  58.500  0.00  0.00     0.100 A 
ATOM     13  C   UNL d   1      44.789  29.903  58.085  0.00  0.00     0.025 A 
ATOM     14  C   UNL d   1      44.686  29.916  57.267  0.00  0.00     0.002 A 
ATOM     15  C   UNL d   1      44.593  29.184  56.851  0.00  0.00     0.000 A 
ATOM     16  C   UNL d   1      44.673  30.611  56.863  0.00  0.00     0.000 A 
ATOM     17  C   UNL d   1      44.490  29.197  56.032  0.00  0.00     0.000 A 
ATOM     18  C   UNL d   1      44.476  29.942  55.600  0.00  0.00     0.000 A 
ATOM     19  C   UNL d   1      44.570  30.624  56.044  0.00  0.00     0.000 A 
ATOM     20  C   UNL d   1      44.767  31.347  57.279  0.00  0.00     0.002 A 
ATOM     21  C   UNL d   1      44.870  31.334  58.097  0.00  0.00     0.025 A 
ENDBRANCH   1  12
TORSDOF 3
ENDMDL
MODEL 6
REMARK VINA RESULT:      -6.2      3.070      5.134
REMARK  3 active torsions:
REMARK  status: ('A' for Active; 'I' for Inactive)
REMARK    1  A    between atoms: C_8  and  C_2 
REMARK    2  A    between atoms: O_11  and  C_8 
REMARK    3  A    between atoms: C_12  and  O_11 
ROOT
ATOM      1  O   UNL d   1      53.503  32.088  53.259  0.00  0.00    -0.302 OA
ENDROOT
BRANCH   1   2
ATOM      2  C   UNL d   1      52.908  31.510  53.267  0.00  0.00     0.161 C 
BRANCH   2   3
ATOM      3  C   UNL d   1      53.051  30.778  53.620  0.00  0.00     0.188 A 
ATOM      4  N   UNL d   1      52.955  30.601  54.444  0.00  0.00    -0.224 NA
ATOM      5  C   UNL d   1      53.153  29.825  54.552  0.00  0.00     0.101 A 
ATOM      6  C   UNL d   1      53.377  29.502  53.793  0.00  0.00     0.101 A 
ATOM      7  C   UNL d   1      53.181  29.312  55.210  0.00  0.00     0.021 A 
ATOM      8  C   UNL d   1      53.609  28.714  53.733  0.00  0.00     0.021 A 
ATOM      9  N   UNL d   1      53.308  30.092  53.246  0.00  0.00    -0.224 NA
ATOM     10  C   UNL d   1      53.624  28.235  54.405  0.00  0.00     0.002 A 
ATOM     11  C   UNL d   1      53.408  28.547  55.138  0.00  0.00     0.002 A 
ENDBRANCH   2   3
ENDBRANCH   1   2
BRANCH   1  12
ATOM     12  C   UNL d   1      53.277  32.874  53.371  0.00  0.00     0.100 A 
ATOM     13  C   UNL d   1      53.521  33.313  53.999  0.00  0.00     0.025 A 
ATOM     14  C   UNL d   1      53.280  34.097  54.085  0.00  0.00     0.002 A 
ATOM     15  C   UNL d   1      53.550  34.540  54.755  0.00  0.00     0.000 A 
ATOM     16  C   UNL d   1      52.796  34.443  53.544  0.00  0.00     0.000 A 
ATOM     17  C   UNL d   1      53.309  35.324  54.842  0.00  0.00     0.000 A 
ATOM     18  C   UNL d   1      52.791  35.694  54.262  0.00  0.00     0.000 A 
ATOM     19  C   UNL d   1      52.556  35.227  53.631  0.00  0.00     0.000 A 
ATOM     20  C   UNL d   1      52.525  34.000  52.871  0.00  0.00     0.002 A 
ATOM     21  C   UNL d   1      52.765  33.215  52.784  0.00  0.00     0.025 A 
ENDBRANCH   1  12
TORSDOF 3
ENDMDL
