MODEL 1
REMARK VINA RESULT:      82.0      0.000      0.000
REMARK  7 active torsions:
REMARK  status: ('A' for Active; 'I' for Inactive)
REMARK    1  A    between atoms: C_12  and  C_1 
REMARK    2  A    between atoms: C_14  and  C_4 
REMARK       I    between atoms: C_10  and  N_9 
REMARK    3  A    between atoms: O_22  and  C_10 
REMARK    4  A    between atoms: O_23  and  C_12 
REMARK    5  A    between atoms: N_13  and  C_14 
REMARK    6  A    between atoms: C_27  and  O_22 
REMARK    7  A    between atoms: C_28  and  O_23 
ROOT
ATOM      1  C   UNL d   1     -50.364  24.648  33.436  0.00  0.00     0.088 A 
ATOM      2  C   UNL d   1     -50.697  25.396  33.409  0.00  0.00     0.034 A 
ATOM      3  C   UNL d   1     -51.524  25.319  33.391  0.00  0.00     0.100 A 
ATOM      4  C   UNL d   1     -50.356  26.153  33.397  0.00  0.00     0.059 A 
ATOM      5  C   UNL d   1     -50.992  24.091  33.436  0.00  0.00     0.105 A 
ATOM      6  O   UNL d   1     -51.697  24.507  33.408  0.00  0.00    -0.307 OA
ATOM      7  C   UNL d   1     -50.831  26.818  33.369  0.00  0.00     0.197 A 
ATOM      8  C   UNL d   1     -51.994  25.994  33.363  0.00  0.00     0.026 A 
ATOM      9  C   UNL d   1     -51.651  26.738  33.352  0.00  0.00     0.041 A 
ATOM     10  O   UNL d   1     -50.494  27.577  33.357  0.00  0.00    -0.286 OA
ATOM     11  C   UNL d   1     -50.906  23.277  33.459  0.00  0.00     0.027 C 
ATOM     12  C   UNL d   1     -52.818  25.916  33.345  0.00  0.00     0.002 A 
ATOM     13  C   UNL d   1     -52.128  27.410  33.323  0.00  0.00     0.003 A 
ATOM     14  C   UNL d   1     -52.941  27.333  33.305  0.00  0.00     0.000 A 
ATOM     15  C   UNL d   1     -53.289  26.578  33.317  0.00  0.00     0.000 A 
ENDROOT
BRANCH   4  16
ATOM     16  C   UNL d   1     -49.529  26.230  33.415  0.00  0.00     0.084 C 
BRANCH  16  17
ATOM     17  N   UNL d   1     -49.190  26.890  33.789  0.00  0.00    -0.300 N 
ATOM     18  C   UNL d   1     -49.239  26.962  34.608  0.00  0.00     0.100 A 
ATOM     19  C   UNL d   1     -48.900  27.623  34.982  0.00  0.00     0.104 A 
ATOM     20  N   UNL d   1     -48.520  28.198  34.533  0.00  0.00    -0.249 N 
ATOM     21  C   UNL d   1     -48.475  28.121  33.710  0.00  0.00     0.104 A 
ATOM     22  C   UNL d   1     -48.193  28.836  34.894  0.00  0.00     0.378 C 
ATOM     23  C   UNL d   1     -48.809  27.469  33.343  0.00  0.00     0.100 A 
ATOM     24  O   UNL d   1     -47.810  29.420  34.454  0.00  0.00    -0.237 OA
BRANCH  22  25
ATOM     25  O   UNL d   1     -48.235  28.920  35.720  0.00  0.00    -0.257 OA
BRANCH  25  26
ATOM     26  C   UNL d   1     -48.011  29.641  36.061  0.00  0.00     0.128 C 
ATOM     27  C   UNL d   1     -47.248  29.724  36.372  0.00  0.00     0.029 C 
ENDBRANCH  25  26
ENDBRANCH  22  25
ENDBRANCH  16  17
ENDBRANCH   4  16
BRANCH   1  28
ATOM     28  C   UNL d   1     -49.560  24.487  33.460  0.00  0.00     0.302 C 
ATOM     29  O   UNL d   1     -49.013  25.079  33.610  0.00  0.00    -0.259 OA
BRANCH  28  30
ATOM     30  O   UNL d   1     -49.299  23.710  33.328  0.00  0.00    -0.271 OA
BRANCH  30  31
ATOM     31  C   UNL d   1     -48.492  23.546  33.306  0.00  0.00     0.126 C 
ATOM     32  C   UNL d   1     -48.082  23.392  34.010  0.00  0.00     0.029 C 
ENDBRANCH  30  31
ENDBRANCH  28  30
ENDBRANCH   1  28
TORSDOF 7
ENDMDL
