MODEL 1
REMARK VINA RESULT:      -5.8      0.000      0.000
REMARK  3 active torsions:
REMARK  status: ('A' for Active; 'I' for Inactive)
REMARK    1  A    between atoms: S_6  and  C_1 
REMARK    2  A    between atoms: C_9  and  S_6 
REMARK    3  A    between atoms: C_7  and  C_9 
ROOT
ATOM      1  C   UNL d   1     -41.417-122.612 -53.460  0.00  0.00     0.191 A 
ATOM      2  N   UNL d   1     -41.365-122.059 -52.865  0.00  0.00    -0.220 NA
ATOM      3  N   UNL d   1     -41.365-123.355 -53.143  0.00  0.00    -0.220 NA
ATOM      4  C   UNL d   1     -41.280-122.475 -52.172  0.00  0.00     0.101 A 
ATOM      5  C   UNL d   1     -41.280-123.282 -52.344  0.00  0.00     0.101 A 
ATOM      6  C   UNL d   1     -41.202-122.214 -51.391  0.00  0.00     0.021 A 
ATOM      7  C   UNL d   1     -41.201-123.817 -51.734  0.00  0.00     0.021 A 
ATOM      8  C   UNL d   1     -41.123-123.579 -50.955  0.00  0.00     0.002 A 
ATOM      9  C   UNL d   1     -41.123-122.772 -50.783  0.00  0.00     0.002 A 
ENDROOT
BRANCH   1  10
ATOM     10  S   UNL d   1     -41.507-122.441 -54.258  0.00  0.00    -0.064 SA
BRANCH  10  11
ATOM     11  C   UNL d   1     -42.142-121.982 -54.515  0.00  0.00     0.162 C 
BRANCH  11  12
ATOM     12  C   UNL d   1     -42.248-121.828 -55.333  0.00  0.00     0.197 C 
ATOM     13  O   UNL d   1     -41.614-121.568 -55.781  0.00  0.00    -0.647 OA
ATOM     14  O   UNL d   1     -42.992-121.943 -55.672  0.00  0.00    -0.647 OA
ENDBRANCH  11  12
ENDBRANCH  10  11
ENDBRANCH   1  10
TORSDOF 3
ENDMDL
MODEL 2
REMARK VINA RESULT:      -5.0      2.349      3.625
REMARK  3 active torsions:
REMARK  status: ('A' for Active; 'I' for Inactive)
REMARK    1  A    between atoms: S_6  and  C_1 
REMARK    2  A    between atoms: C_9  and  S_6 
REMARK    3  A    between atoms: C_7  and  C_9 
ROOT
ATOM      1  C   UNL d   1     -41.454-122.317 -52.629  0.00  0.00     0.191 A 
ATOM      2  N   UNL d   1     -41.128-122.882 -53.116  0.00  0.00    -0.220 NA
ATOM      3  N   UNL d   1     -41.902-121.806 -53.071  0.00  0.00    -0.220 NA
ATOM      4  C   UNL d   1     -41.383-122.712 -53.869  0.00  0.00     0.101 A 
ATOM      5  C   UNL d   1     -41.865-122.042 -53.841  0.00  0.00     0.101 A 
ATOM      6  C   UNL d   1     -41.234-123.090 -54.588  0.00  0.00     0.021 A 
ATOM      7  C   UNL d   1     -42.191-121.760 -54.533  0.00  0.00     0.021 A 
ATOM      8  C   UNL d   1     -42.055-122.120 -55.255  0.00  0.00     0.002 A 
ATOM      9  C   UNL d   1     -41.573-122.790 -55.283  0.00  0.00     0.002 A 
ENDROOT
BRANCH   1  10
ATOM     10  S   UNL d   1     -41.345-122.272 -51.817  0.00  0.00    -0.064 SA
BRANCH  10  11
ATOM     11  C   UNL d   1     -41.728-122.804 -51.317  0.00  0.00     0.162 C 
BRANCH  11  12
ATOM     12  C   UNL d   1     -41.792-122.641 -50.496  0.00  0.00     0.197 C 
ATOM     13  O   UNL d   1     -41.131-122.709 -50.018  0.00  0.00    -0.647 OA
ATOM     14  O   UNL d   1     -42.522-122.415 -50.185  0.00  0.00    -0.647 OA
ENDBRANCH  11  12
ENDBRANCH  10  11
ENDBRANCH   1  10
TORSDOF 3
ENDMDL
MODEL 3
REMARK VINA RESULT:      -4.5      2.698      3.660
REMARK  3 active torsions:
REMARK  status: ('A' for Active; 'I' for Inactive)
REMARK    1  A    between atoms: S_6  and  C_1 
REMARK    2  A    between atoms: C_9  and  S_6 
REMARK    3  A    between atoms: C_7  and  C_9 
ROOT
ATOM      1  C   UNL d   1     -41.350-122.828 -51.906  0.00  0.00     0.191 A 
ATOM      2  N   UNL d   1     -41.514-122.229 -52.432  0.00  0.00    -0.220 NA
ATOM      3  N   UNL d   1     -41.215-123.516 -52.313  0.00  0.00    -0.220 NA
ATOM      4  C   UNL d   1     -41.479-122.560 -53.174  0.00  0.00     0.101 A 
ATOM      5  C   UNL d   1     -41.293-123.360 -53.100  0.00  0.00     0.101 A 
ATOM      6  C   UNL d   1     -41.595-122.224 -53.921  0.00  0.00     0.021 A 
ATOM      7  C   UNL d   1     -41.226-123.815 -53.774  0.00  0.00     0.021 A 
ATOM      8  C   UNL d   1     -41.337-123.501 -54.522  0.00  0.00     0.002 A 
ATOM      9  C   UNL d   1     -41.523-122.701 -54.595  0.00  0.00     0.002 A 
ENDROOT
BRANCH   1  10
ATOM     10  S   UNL d   1     -41.324-122.747 -51.089  0.00  0.00    -0.064 SA
BRANCH  10  11
ATOM     11  C   UNL d   1     -41.928-123.057 -50.622  0.00  0.00     0.162 C 
BRANCH  11  12
ATOM     12  C   UNL d   1     -41.960-122.884 -49.802  0.00  0.00     0.197 C 
ATOM     13  O   UNL d   1     -42.645-122.570 -49.481  0.00  0.00    -0.647 OA
ATOM     14  O   UNL d   1     -41.298-123.033 -49.332  0.00  0.00    -0.647 OA
ENDBRANCH  11  12
ENDBRANCH  10  11
ENDBRANCH   1  10
TORSDOF 3
ENDMDL
MODEL 4
REMARK VINA RESULT:      -4.4      1.905      2.405
REMARK  3 active torsions:
REMARK  status: ('A' for Active; 'I' for Inactive)
REMARK    1  A    between atoms: S_6  and  C_1 
REMARK    2  A    between atoms: C_9  and  S_6 
REMARK    3  A    between atoms: C_7  and  C_9 
ROOT
ATOM      1  C   UNL d   1     -41.584-122.571 -51.168  0.00  0.00     0.191 A 
ATOM      2  N   UNL d   1     -42.281-122.375 -50.795  0.00  0.00    -0.220 NA
ATOM      3  N   UNL d   1     -41.124-123.010 -50.665  0.00  0.00    -0.220 NA
ATOM      4  C   UNL d   1     -42.243-122.700 -50.051  0.00  0.00     0.101 A 
ATOM      5  C   UNL d   1     -41.523-123.096 -49.970  0.00  0.00     0.101 A 
ATOM      6  C   UNL d   1     -42.784-122.686 -49.426  0.00  0.00     0.021 A 
ATOM      7  C   UNL d   1     -41.354-123.471 -49.266  0.00  0.00     0.021 A 
ATOM      8  C   UNL d   1     -41.877-123.467 -48.637  0.00  0.00     0.002 A 
ATOM      9  C   UNL d   1     -42.597-123.072 -48.717  0.00  0.00     0.002 A 
ENDROOT
BRANCH   1  10
ATOM     10  S   UNL d   1     -41.381-122.357 -51.934  0.00  0.00    -0.064 SA
BRANCH  10  11
ATOM     11  C   UNL d   1     -41.390-122.918 -52.538  0.00  0.00     0.162 C 
BRANCH  11  12
ATOM     12  C   UNL d   1     -41.427-122.676 -53.340  0.00  0.00     0.197 C 
ATOM     13  O   UNL d   1     -41.124-121.947 -53.556  0.00  0.00    -0.647 OA
ATOM     14  O   UNL d   1     -41.771-123.177 -53.898  0.00  0.00    -0.647 OA
ENDBRANCH  11  12
ENDBRANCH  10  11
ENDBRANCH   1  10
TORSDOF 3
ENDMDL
