MODEL 1
REMARK VINA RESULT:      46.4      0.000      0.000
REMARK  2 active torsions:
REMARK  status: ('A' for Active; 'I' for Inactive)
REMARK    1  A    between atoms: C_9  and  C_3 
REMARK    2  A    between atoms: C_8  and  C_4 
ROOT
ATOM      1  N   UNL d   1      44.740 -15.571  44.415  0.00  0.00    -0.242 NA
ATOM      2  N   UNL d   1      46.331 -15.174  44.576  0.00  0.00    -0.242 NA
ATOM      3  C   UNL d   1      44.981 -14.788  44.331  0.00  0.00     0.099 A 
ATOM      4  C   UNL d   1      45.771 -14.590  44.411  0.00  0.00     0.099 A 
ATOM      5  C   UNL d   1      45.297 -16.153  44.579  0.00  0.00     0.101 A 
ATOM      6  C   UNL d   1      46.087 -15.955  44.659  0.00  0.00     0.099 A 
ATOM      7  C   UNL d   1      45.055 -16.933  44.662  0.00  0.00     0.042 A 
ATOM      8  C   UNL d   1      46.647 -16.536  44.824  0.00  0.00     0.022 A 
ATOM      9  C   UNL d   1      45.612 -17.517  44.827  0.00  0.00     0.104 A 
ATOM     10  N   UNL d   1      45.370 -18.293  44.909  0.00  0.00    -0.148 N 
ATOM     11  C   UNL d   1      46.403 -17.319  44.907  0.00  0.00     0.023 A 
ENDROOT
BRANCH   3  12
ATOM     12  C   UNL d   1      44.426 -14.211  44.168  0.00  0.00     0.019 A 
ATOM     13  C   UNL d   1      43.858 -14.006  44.742  0.00  0.00     0.002 A 
ATOM     14  C   UNL d   1      43.292 -13.422  44.582  0.00  0.00     0.000 A 
ATOM     15  C   UNL d   1      43.290 -13.037  43.844  0.00  0.00     0.000 A 
ATOM     16  C   UNL d   1      43.863 -13.248  43.271  0.00  0.00     0.000 A 
ATOM     17  C   UNL d   1      44.423 -13.829  43.435  0.00  0.00     0.002 A 
ENDBRANCH   3  12
BRANCH   4  18
ATOM     18  C   UNL d   1      46.017 -13.813  44.329  0.00  0.00     0.019 A 
ATOM     19  C   UNL d   1      45.892 -13.275  44.954  0.00  0.00     0.002 A 
ATOM     20  C   UNL d   1      46.139 -12.485  44.877  0.00  0.00     0.000 A 
ATOM     21  C   UNL d   1      46.511 -12.230  44.175  0.00  0.00     0.000 A 
ATOM     22  C   UNL d   1      46.636 -12.764  43.551  0.00  0.00     0.000 A 
ATOM     23  C   UNL d   1      46.389 -13.558  43.627  0.00  0.00     0.002 A 
ENDBRANCH   4  18
TORSDOF 2
ENDMDL
