MODEL 1
REMARK VINA RESULT:      -5.7      0.000      0.000
REMARK  8 active torsions:
REMARK  status: ('A' for Active; 'I' for Inactive)
REMARK    1  A    between atoms: C_14  and  C_1 
REMARK    2  A    between atoms: C_6  and  C_2 
REMARK    3  A    between atoms: C_19  and  C_4 
REMARK       I    between atoms: N_13  and  C_6 
REMARK    4  A    between atoms: C_7  and  S_18 
REMARK    5  A    between atoms: C_26  and  N_13 
REMARK    6  A    between atoms: C_22  and  C_14 
REMARK    7  A    between atoms: S_18  and  C_22 
REMARK    8  A    between atoms: O_31  and  C_27 
ROOT
ATOM      1  C   UNL d   1     -47.349  13.867  22.525  0.00  0.00     0.076 A 
ATOM      2  C   UNL d   1     -46.531  12.721  22.449  0.00  0.00     0.092 A 
ATOM      3  C   UNL d   1     -47.262  13.055  22.573  0.00  0.00     0.018 A 
ATOM      4  C   UNL d   1     -45.883  13.195  22.277  0.00  0.00     0.120 A 
ATOM      5  N   UNL d   1     -45.966  14.002  22.228  0.00  0.00    -0.238 NA
ATOM      6  C   UNL d   1     -46.701  14.341  22.352  0.00  0.00     0.087 A 
ATOM      7  C   UNL d   1     -46.444  11.909  22.497  0.00  0.00     0.103 C 
ATOM      8  N   UNL d   1     -46.358  11.109  22.544  0.00  0.00    -0.191 NA
ATOM      9  C   UNL d   1     -46.795  15.116  22.309  0.00  0.00     0.021 C 
ENDROOT
BRANCH   4  10
ATOM     10  S   UNL d   1     -45.148  12.856  22.152  0.00  0.00    -0.063 SA
BRANCH  10  11
ATOM     11  C   UNL d   1     -44.510  13.322  21.949  0.00  0.00     0.079 C 
BRANCH  11  12
ATOM     12  C   UNL d   1     -43.903  13.016  21.503  0.00  0.00     0.207 C 
ATOM     13  O   UNL d   1     -44.086  12.535  20.804  0.00  0.00    -0.286 OA
BRANCH  12  14
ATOM     14  C   UNL d   1     -43.125  13.045  21.545  0.00  0.00     0.103 A 
ATOM     15  C   UNL d   1     -42.553  12.554  21.839  0.00  0.00     0.303 A 
ATOM     16  O   UNL d   1     -41.773  12.773  21.784  0.00  0.00    -0.273 OA
ATOM     17  O   UNL d   1     -42.736  11.798  22.211  0.00  0.00    -0.259 OA
ATOM     18  C   UNL d   1     -41.567  13.484  21.436  0.00  0.00     0.103 A 
ATOM     19  C   UNL d   1     -42.134  13.977  21.142  0.00  0.00     0.023 A 
ATOM     20  C   UNL d   1     -40.756  13.700  21.385  0.00  0.00     0.025 A 
ATOM     21  C   UNL d   1     -42.925  13.757  21.196  0.00  0.00     0.011 A 
ATOM     22  C   UNL d   1     -41.929  14.708  20.784  0.00  0.00     0.002 A 
ATOM     23  C   UNL d   1     -41.134  14.930  20.728  0.00  0.00     0.000 A 
ATOM     24  C   UNL d   1     -40.543  14.419  21.033  0.00  0.00     0.002 A 
ENDBRANCH  12  14
ENDBRANCH  11  12
ENDBRANCH  10  11
ENDBRANCH   4  10
BRANCH   3  25
ATOM     25  C   UNL d   1     -47.908  12.583  22.745  0.00  0.00     0.001 A 
ATOM     26  C   UNL d   1     -48.061  12.353  23.523  0.00  0.00     0.002 A 
ATOM     27  C   UNL d   1     -48.715  11.875  23.697  0.00  0.00     0.024 A 
ATOM     28  C   UNL d   1     -49.215  11.628  23.093  0.00  0.00     0.094 A 
ATOM     29  C   UNL d   1     -49.068  11.854  22.314  0.00  0.00     0.024 A 
ATOM     30  C   UNL d   1     -48.413  12.332  22.140  0.00  0.00     0.002 A 
BRANCH  28  31
ATOM     31  O   UNL d   1     -49.848  11.161  23.288  0.00  0.00    -0.328 OA
ATOM     32  C   UNL d   1     -50.606  11.600  23.560  0.00  0.00     0.181 C 
ENDBRANCH  28  31
ENDBRANCH   3  25
BRANCH   1  33
ATOM     33  C   UNL d   1     -48.255  14.373  22.671  0.00  0.00     0.281 C 
ATOM     34  N   UNL d   1     -48.810  14.735  22.259  0.00  0.00    -0.208 NA
ATOM     35  O   UNL d   1     -48.590  14.474  23.546  0.00  0.00    -0.265 OA
BRANCH  34  36
ATOM     36  C   UNL d   1     -49.442  15.056  22.662  0.00  0.00     0.085 A 
ATOM     37  C   UNL d   1     -50.208  14.846  22.441  0.00  0.00     0.019 A 
ATOM     38  C   UNL d   1     -50.862  15.166  22.844  0.00  0.00     0.002 A 
ATOM     39  C   UNL d   1     -50.737  15.702  23.473  0.00  0.00     0.000 A 
ATOM     40  C   UNL d   1     -49.959  15.915  23.697  0.00  0.00     0.002 A 
ATOM     41  C   UNL d   1     -49.316  15.586  23.283  0.00  0.00     0.019 A 
ENDBRANCH  34  36
ENDBRANCH   1  33
TORSDOF 8
ENDMDL
