MODEL 1
REMARK VINA RESULT:      54.5      0.000      0.000
REMARK  3 active torsions:
REMARK  status: ('A' for Active; 'I' for Inactive)
REMARK    1  A    between atoms: N_10  and  C_3 
REMARK    2  A    between atoms: C_15  and  N_4 
REMARK    3  A    between atoms: C_20  and  C_15 
ROOT
ATOM      1  C   UNL d   1      44.579 -16.625  44.220  0.00  0.00     0.191 A 
ATOM      2  C   UNL d   1      45.315 -16.254  44.120  0.00  0.00     0.173 A 
ATOM      3  C   UNL d   1      45.434 -17.536  43.768  0.00  0.00     0.738 A 
ATOM      4  N   UNL d   1      44.747 -15.027  44.576  0.00  0.00    -0.224 N 
ATOM      5  N   UNL d   1      44.655 -17.415  44.003  0.00  0.00    -0.041 NA
ATOM      6  N   UNL d   1      43.933 -16.199  44.496  0.00  0.00    -0.240 N 
ATOM      7  C   UNL d   1      44.016 -15.399  44.674  0.00  0.00     0.343 A 
ATOM      8  C   UNL d   1      45.394 -15.455  44.299  0.00  0.00     0.288 A 
ATOM      9  N   UNL d   1      45.844 -16.822  43.839  0.00  0.00    -0.130 N 
ATOM     10  O   UNL d   1      43.368 -14.970  44.951  0.00  0.00    -0.245 OA
ATOM     11  O   UNL d   1      46.125 -15.083  44.200  0.00  0.00    -0.265 OA
ATOM     12  C   UNL d   1      43.202 -16.571  44.595  0.00  0.00     0.105 C 
ATOM     13  C   UNL d   1      46.638 -16.697  43.662  0.00  0.00     0.118 C 
ENDROOT
BRANCH   4  14
ATOM     14  C   UNL d   1      44.828 -14.222  44.755  0.00  0.00     0.087 C 
BRANCH  14  15
ATOM     15  C   UNL d   1      45.046 -13.689  44.167  0.00  0.00     0.019 A 
ATOM     16  C   UNL d   1      44.462 -13.341  43.683  0.00  0.00     0.014 A 
ATOM     17  C   UNL d   1      44.679 -12.807  43.094  0.00  0.00     0.068 A 
ATOM     18 CL   UNL d   1      44.101 -12.465  42.617  0.00  0.00    -0.082 Cl
ATOM     19  C   UNL d   1      45.467 -12.618  42.983  0.00  0.00     0.068 A 
ATOM     20  C   UNL d   1      46.056 -12.966  43.469  0.00  0.00     0.012 A 
ATOM     21 CL   UNL d   1      45.685 -12.084  42.395  0.00  0.00    -0.082 Cl
ATOM     22  C   UNL d   1      45.830 -13.500  44.057  0.00  0.00     0.002 A 
ENDBRANCH  14  15
ENDBRANCH   4  14
BRANCH   3  23
ATOM     23  N   UNL d   1      45.754 -18.251  43.506  0.00  0.00    -0.059 N 
ATOM     24  N   UNL d   1      45.881 -18.463  42.720  0.00  0.00    -0.151 NA
ATOM     25  C   UNL d   1      46.210 -19.226  42.710  0.00  0.00     0.103 A 
ATOM     26  C   UNL d   1      46.424 -19.653  42.033  0.00  0.00     0.022 C 
ATOM     27  C   UNL d   1      46.282 -19.476  43.495  0.00  0.00     0.041 A 
ATOM     28  C   UNL d   1      46.000 -18.873  43.981  0.00  0.00     0.102 A 
ATOM     29  C   UNL d   1      45.972 -18.894  44.807  0.00  0.00     0.021 C 
ENDBRANCH   3  23
TORSDOF 3
ENDMDL
MODEL 2
REMARK VINA RESULT:      55.2      2.369      4.856
REMARK  3 active torsions:
REMARK  status: ('A' for Active; 'I' for Inactive)
REMARK    1  A    between atoms: N_10  and  C_3 
REMARK    2  A    between atoms: C_15  and  N_4 
REMARK    3  A    between atoms: C_20  and  C_15 
ROOT
ATOM      1  C   UNL d   1      44.505 -15.703  44.356  0.00  0.00     0.191 A 
ATOM      2  C   UNL d   1      45.325 -15.598  44.281  0.00  0.00     0.173 A 
ATOM      3  C   UNL d   1      44.721 -14.444  43.987  0.00  0.00     0.738 A 
ATOM      4  N   UNL d   1      45.522 -16.961  44.656  0.00  0.00    -0.224 N 
ATOM      5  N   UNL d   1      44.135 -14.990  44.175  0.00  0.00    -0.041 NA
ATOM      6  N   UNL d   1      44.197 -16.431  44.580  0.00  0.00    -0.240 N 
ATOM      7  C   UNL d   1      44.706 -17.061  44.730  0.00  0.00     0.343 A 
ATOM      8  C   UNL d   1      45.830 -16.230  44.431  0.00  0.00     0.288 A 
ATOM      9  N   UNL d   1      45.457 -14.816  44.051  0.00  0.00    -0.130 N 
ATOM     10  O   UNL d   1      44.398 -17.793  44.955  0.00  0.00    -0.245 OA
ATOM     11  O   UNL d   1      46.646 -16.130  44.357  0.00  0.00    -0.265 OA
ATOM     12  C   UNL d   1      43.380 -16.531  44.654  0.00  0.00     0.105 C 
ATOM     13  C   UNL d   1      46.191 -14.471  43.912  0.00  0.00     0.118 C 
ENDROOT
BRANCH   4  14
ATOM     14  C   UNL d   1      46.032 -17.596  44.807  0.00  0.00     0.087 C 
BRANCH  14  15
ATOM     15  C   UNL d   1      46.152 -18.174  44.233  0.00  0.00     0.019 A 
ATOM     16  C   UNL d   1      46.275 -18.967  44.460  0.00  0.00     0.014 A 
ATOM     17  C   UNL d   1      46.395 -19.546  43.885  0.00  0.00     0.068 A 
ATOM     18 CL   UNL d   1      46.517 -20.329  44.111  0.00  0.00    -0.082 Cl
ATOM     19  C   UNL d   1      46.393 -19.344  43.093  0.00  0.00     0.068 A 
ATOM     20  C   UNL d   1      46.269 -18.546  42.863  0.00  0.00     0.012 A 
ATOM     21 CL   UNL d   1      46.513 -19.922  42.518  0.00  0.00    -0.082 Cl
ATOM     22  C   UNL d   1      46.150 -17.973  43.444  0.00  0.00     0.002 A 
ENDBRANCH  14  15
ENDBRANCH   4  14
BRANCH   3  23
ATOM     23  N   UNL d   1      44.597 -13.657  43.771  0.00  0.00    -0.059 N 
ATOM     24  N   UNL d   1      44.206 -13.399  43.094  0.00  0.00    -0.151 NA
ATOM     25  C   UNL d   1      44.208 -12.568  43.096  0.00  0.00     0.103 A 
ATOM     26  C   UNL d   1      43.873 -12.080  42.517  0.00  0.00     0.022 C 
ATOM     27  C   UNL d   1      44.603 -12.323  43.780  0.00  0.00     0.041 A 
ATOM     28  C   UNL d   1      44.840 -12.996  44.192  0.00  0.00     0.102 A 
ATOM     29  C   UNL d   1      45.254 -13.002  44.908  0.00  0.00     0.021 C 
ENDBRANCH   3  23
TORSDOF 3
ENDMDL
