MODEL 1
REMARK VINA RESULT:      72.3      0.000      0.000
REMARK  6 active torsions:
REMARK  status: ('A' for Active; 'I' for Inactive)
REMARK    1  A    between atoms: N_3  and  S_1 
REMARK    2  A    between atoms: C_6  and  S_1 
REMARK    3  A    between atoms: N_2  and  C_5 
REMARK    4  A    between atoms: C_4  and  N_3 
REMARK    5  A    between atoms: C_5  and  C_4 
REMARK    6  A    between atoms: C_10  and  C_5 
ROOT
ATOM      1  C   UNL d   1      61.051  48.356  50.601  0.00  0.00     0.086 C 
ENDROOT
BRANCH   1   2
ATOM      2  N   UNL d   1      61.155  48.636  51.378  0.00  0.00    -0.300 N 
ATOM      3  C   UNL d   1      61.546  49.351  51.510  0.00  0.00     0.100 A 
ATOM      4  C   UNL d   1      61.649  49.627  52.281  0.00  0.00     0.100 A 
ATOM      5  N   UNL d   1      61.362  49.191  52.914  0.00  0.00    -0.299 N 
ATOM      6  C   UNL d   1      60.972  48.477  52.782  0.00  0.00     0.100 A 
ATOM      7  C   UNL d   1      61.467  49.472  53.690  0.00  0.00     0.100 C 
ATOM      8  C   UNL d   1      60.867  48.199  52.016  0.00  0.00     0.100 A 
ENDBRANCH   1   2
BRANCH   1   9
ATOM      9  C   UNL d   1      60.819  48.874  50.008  0.00  0.00     0.130 C 
BRANCH   9  10
ATOM     10  N   UNL d   1      60.395  49.556  50.199  0.00  0.00    -0.155 NA
BRANCH  10  11
ATOM     11  S   UNL d   1      59.579  49.584  50.076  0.00  0.00     0.285 S 
ATOM     12  O   UNL d   1      59.441  49.559  50.897  0.00  0.00    -0.198 OA
ATOM     13  O   UNL d   1      59.699  49.609  49.248  0.00  0.00    -0.198 OA
BRANCH  11  14
ATOM     14  C   UNL d   1      58.758  49.612  49.950  0.00  0.00     0.105 A 
ATOM     15  C   UNL d   1      58.242  49.656  50.592  0.00  0.00     0.014 A 
ATOM     16  C   UNL d   1      57.430  49.684  50.469  0.00  0.00     0.012 A 
ATOM     17  C   UNL d   1      57.127  49.669  49.697  0.00  0.00     0.058 A 
ATOM     18  C   UNL d   1      57.643  49.626  49.054  0.00  0.00     0.012 A 
ATOM     19 CL   UNL d   1      56.308  49.697  49.567  0.00  0.00    -0.082 Cl
ATOM     20  C   UNL d   1      58.458  49.597  49.181  0.00  0.00     0.014 A 
ENDBRANCH  11  14
ENDBRANCH  10  11
ENDBRANCH   9  10
ENDBRANCH   1   9
BRANCH   1  21
ATOM     21  C   UNL d   1      61.179  47.560  50.428  0.00  0.00     0.037 A 
ATOM     22  C   UNL d   1      61.621  47.347  49.764  0.00  0.00     0.100 A 
ATOM     23  N   UNL d   1      61.749  46.551  49.591  0.00  0.00    -0.242 NA
ATOM     24  C   UNL d   1      61.437  45.967  50.083  0.00  0.00     0.099 A 
ATOM     25  C   UNL d   1      61.000  46.181  50.740  0.00  0.00     0.021 A 
ATOM     26  C   UNL d   1      60.871  46.977  50.913  0.00  0.00     0.005 A 
ENDBRANCH   1  21
TORSDOF 6
ENDMDL
