MODEL 1
REMARK VINA RESULT:      -3.1      0.000      0.000
REMARK  1 active torsions:
REMARK  status: ('A' for Active; 'I' for Inactive)
REMARK    1  A    between atoms: C_4  and  C_1 
ROOT
ATOM      1  C   UNL d   1      32.771  23.132 -19.067  0.00  0.00     0.168 A 
ATOM      2  N   UNL d   1      32.502  22.480 -19.490  0.00  0.00    -0.225 NA
ATOM      3  N   UNL d   1      33.034  23.700 -19.612  0.00  0.00    -0.225 NA
ATOM      4  C   UNL d   1      32.598  22.642 -20.299  0.00  0.00     0.101 A 
ATOM      5  C   UNL d   1      32.926  23.395 -20.372  0.00  0.00     0.101 A 
ATOM      6  C   UNL d   1      32.426  22.196 -20.977  0.00  0.00     0.021 A 
ATOM      7  C   UNL d   1      33.083  23.701 -21.132  0.00  0.00     0.021 A 
ATOM      8  C   UNL d   1      32.583  22.502 -21.725  0.00  0.00     0.002 A 
ATOM      9  C   UNL d   1      32.911  23.255 -21.803  0.00  0.00     0.002 A 
ENDROOT
BRANCH   1  10
ATOM     10  C   UNL d   1      32.779  23.212 -18.247  0.00  0.00     0.065 A 
ATOM     11  S   UNL d   1      33.237  23.030 -17.718  0.00  0.00    -0.083 SA
ATOM     12  C   UNL d   1      33.070  23.187 -17.037  0.00  0.00     0.035 A 
ATOM     13  C   UNL d   1      32.457  23.521 -16.875  0.00  0.00     0.008 A 
ATOM     14  C   UNL d   1      32.000  23.702 -17.402  0.00  0.00     0.010 A 
ENDBRANCH   1  10
TORSDOF 1
ENDMDL
MODEL 2
REMARK VINA RESULT:      -2.8      3.011      4.669
REMARK  1 active torsions:
REMARK  status: ('A' for Active; 'I' for Inactive)
REMARK    1  A    between atoms: C_4  and  C_1 
ROOT
ATOM      1  C   UNL d   1      32.891  20.287 -22.101  0.00  0.00     0.168 A 
ATOM      2  N   UNL d   1      32.512  20.444 -21.389  0.00  0.00    -0.225 NA
ATOM      3  N   UNL d   1      33.161  21.008 -22.412  0.00  0.00    -0.225 NA
ATOM      4  C   UNL d   1      32.544  21.263 -21.255  0.00  0.00     0.101 A 
ATOM      5  C   UNL d   1      32.945  21.609 -21.888  0.00  0.00     0.101 A 
ATOM      6  C   UNL d   1      32.258  21.734 -20.636  0.00  0.00     0.021 A 
ATOM      7  C   UNL d   1      33.059  22.435 -21.897  0.00  0.00     0.021 A 
ATOM      8  C   UNL d   1      32.373  22.550 -20.649  0.00  0.00     0.002 A 
ATOM      9  C   UNL d   1      32.773  22.900 -21.279  0.00  0.00     0.002 A 
ENDROOT
BRANCH   1  10
ATOM     10  C   UNL d   1      32.990  19.547 -22.450  0.00  0.00     0.065 A 
ATOM     11  S   UNL d   1      33.222  18.901 -22.225  0.00  0.00    -0.083 SA
ATOM     12  C   UNL d   1      33.239  18.351 -22.688  0.00  0.00     0.035 A 
ATOM     13  C   UNL d   1      33.029  18.435 -23.368  0.00  0.00     0.008 A 
ATOM     14  C   UNL d   1      32.797  19.080 -23.593  0.00  0.00     0.010 A 
ENDBRANCH   1  10
TORSDOF 1
ENDMDL
MODEL 3
REMARK VINA RESULT:      -2.7      7.272      8.551
REMARK  1 active torsions:
REMARK  status: ('A' for Active; 'I' for Inactive)
REMARK    1  A    between atoms: C_4  and  C_1 
ROOT
ATOM      1  C   UNL d   1      30.885  16.916 -24.138  0.00  0.00     0.168 A 
ATOM      2  N   UNL d   1      30.806  16.234 -23.684  0.00  0.00    -0.225 NA
ATOM      3  N   UNL d   1      30.123  17.183 -24.333  0.00  0.00    -0.225 NA
ATOM      4  C   UNL d   1      29.996  16.077 -23.596  0.00  0.00     0.101 A 
ATOM      5  C   UNL d   1      29.576  16.663 -23.997  0.00  0.00     0.101 A 
ATOM      6  C   UNL d   1      29.590  15.471 -23.200  0.00  0.00     0.021 A 
ATOM      7  C   UNL d   1      28.742  16.640 -23.999  0.00  0.00     0.021 A 
ATOM      8  C   UNL d   1      28.767  15.452 -23.204  0.00  0.00     0.002 A 
ATOM      9  C   UNL d   1      28.343  16.037 -23.604  0.00  0.00     0.002 A 
ENDROOT
BRANCH   1  10
ATOM     10  C   UNL d   1      31.592  17.274 -24.363  0.00  0.00     0.065 A 
ATOM     11  S   UNL d   1      32.012  17.255 -24.951  0.00  0.00    -0.083 SA
ATOM     12  C   UNL d   1      32.613  17.650 -24.968  0.00  0.00     0.035 A 
ATOM     13  C   UNL d   1      32.800  18.061 -24.411  0.00  0.00     0.008 A 
ATOM     14  C   UNL d   1      32.380  18.080 -23.825  0.00  0.00     0.010 A 
ENDBRANCH   1  10
TORSDOF 1
ENDMDL
MODEL 4
REMARK VINA RESULT:      -2.7      7.554      8.531
REMARK  1 active torsions:
REMARK  status: ('A' for Active; 'I' for Inactive)
REMARK    1  A    between atoms: C_4  and  C_1 
ROOT
ATOM      1  C   UNL d   1      30.333  16.505 -23.999  0.00  0.00     0.168 A 
ATOM      2  N   UNL d   1      30.987  16.241 -23.577  0.00  0.00    -0.225 NA
ATOM      3  N   UNL d   1      30.543  17.212 -24.381  0.00  0.00    -0.225 NA
ATOM      4  C   UNL d   1      31.605  16.783 -23.695  0.00  0.00     0.101 A 
ATOM      5  C   UNL d   1      31.329  17.381 -24.192  0.00  0.00     0.101 A 
ATOM      6  C   UNL d   1      32.385  16.804 -23.412  0.00  0.00     0.021 A 
ATOM      7  C   UNL d   1      31.841  18.005 -24.404  0.00  0.00     0.021 A 
ATOM      8  C   UNL d   1      32.886  17.422 -23.624  0.00  0.00     0.002 A 
ATOM      9  C   UNL d   1      32.614  18.022 -24.120  0.00  0.00     0.002 A 
ENDROOT
BRANCH   1  10
ATOM     10  C   UNL d   1      29.597  16.138 -24.040  0.00  0.00     0.065 A 
ATOM     11  S   UNL d   1      29.280  15.672 -24.493  0.00  0.00    -0.083 SA
ATOM     12  C   UNL d   1      28.607  15.454 -24.363  0.00  0.00     0.035 A 
ATOM     13  C   UNL d   1      28.247  15.694 -23.791  0.00  0.00     0.008 A 
ATOM     14  C   UNL d   1      28.562  16.159 -23.339  0.00  0.00     0.010 A 
ENDBRANCH   1  10
TORSDOF 1
ENDMDL
MODEL 5
REMARK VINA RESULT:      -2.6      2.757      3.818
REMARK  1 active torsions:
REMARK  status: ('A' for Active; 'I' for Inactive)
REMARK    1  A    between atoms: C_4  and  C_1 
ROOT
ATOM      1  C   UNL d   1      32.963  20.885 -21.645  0.00  0.00     0.168 A 
ATOM      2  N   UNL d   1      33.086  20.975 -22.453  0.00  0.00    -0.225 NA
ATOM      3  N   UNL d   1      32.919  20.071 -21.482  0.00  0.00    -0.225 NA
ATOM      4  C   UNL d   1      33.120  20.218 -22.794  0.00  0.00     0.101 A 
ATOM      5  C   UNL d   1      33.016  19.662 -22.192  0.00  0.00     0.101 A 
ATOM      6  C   UNL d   1      33.232  19.968 -23.577  0.00  0.00     0.021 A 
ATOM      7  C   UNL d   1      33.026  18.850 -22.381  0.00  0.00     0.021 A 
ATOM      8  C   UNL d   1      33.240  19.165 -23.758  0.00  0.00     0.002 A 
ATOM      9  C   UNL d   1      33.137  18.606 -23.160  0.00  0.00     0.002 A 
ENDROOT
BRANCH   1  10
ATOM     10  C   UNL d   1      32.893  21.490 -21.091  0.00  0.00     0.065 A 
ATOM     11  S   UNL d   1      33.225  21.659 -20.471  0.00  0.00    -0.083 SA
ATOM     12  C   UNL d   1      33.022  22.248 -20.111  0.00  0.00     0.035 A 
ATOM     13  C   UNL d   1      32.497  22.668 -20.358  0.00  0.00     0.008 A 
ATOM     14  C   UNL d   1      32.167  22.500 -20.977  0.00  0.00     0.010 A 
ENDBRANCH   1  10
TORSDOF 1
ENDMDL
MODEL 6
REMARK VINA RESULT:      -2.4      3.766      5.513
REMARK  1 active torsions:
REMARK  status: ('A' for Active; 'I' for Inactive)
REMARK    1  A    between atoms: C_4  and  C_1 
ROOT
ATOM      1  C   UNL d   1      33.009  19.511 -22.658  0.00  0.00     0.168 A 
ATOM      2  N   UNL d   1      33.172  20.264 -22.947  0.00  0.00    -0.225 NA
ATOM      3  N   UNL d   1      32.866  19.575 -21.842  0.00  0.00    -0.225 NA
ATOM      4  C   UNL d   1      33.130  20.797 -22.312  0.00  0.00     0.101 A 
ATOM      5  C   UNL d   1      32.942  20.370 -21.632  0.00  0.00     0.101 A 
ATOM      6  C   UNL d   1      33.241  21.618 -22.271  0.00  0.00     0.021 A 
ATOM      7  C   UNL d   1      32.864  20.773 -20.905  0.00  0.00     0.021 A 
ATOM      8  C   UNL d   1      33.163  22.011 -21.551  0.00  0.00     0.002 A 
ATOM      9  C   UNL d   1      32.975  21.588 -20.868  0.00  0.00     0.002 A 
ENDROOT
BRANCH   1  10
ATOM     10  C   UNL d   1      32.990  18.813 -23.096  0.00  0.00     0.065 A 
ATOM     11  S   UNL d   1      33.240  18.142 -23.001  0.00  0.00    -0.083 SA
ATOM     12  C   UNL d   1      33.123  17.647 -23.510  0.00  0.00     0.035 A 
ATOM     13  C   UNL d   1      32.763  17.811 -24.108  0.00  0.00     0.008 A 
ATOM     14  C   UNL d   1      32.514  18.481 -24.202  0.00  0.00     0.010 A 
ENDBRANCH   1  10
TORSDOF 1
ENDMDL
