MODEL 1
REMARK VINA RESULT:      -4.3      0.000      0.000
REMARK  5 active torsions:
REMARK  status: ('A' for Active; 'I' for Inactive)
REMARK    1  A    between atoms: N_14  and  C_6 
REMARK    2  A    between atoms: C_20  and  N_14 
REMARK    3  A    between atoms: N_15  and  C_21 
REMARK    4  A    between atoms: C_17  and  C_20 
REMARK    5  A    between atoms: C_21  and  C_17 
ROOT
ATOM      1  N   UNL d   1      58.440  -0.861  29.845  0.00  0.00    -0.183 N 
ATOM      2  C   UNL d   1      59.075  -1.144  29.391  0.00  0.00     0.169 A 
ATOM      3  C   UNL d   1      59.102  -1.926  29.155  0.00  0.00     0.073 A 
ATOM      4  C   UNL d   1      58.492  -2.424  29.374  0.00  0.00     0.185 A 
ATOM      5  N   UNL d   1      57.857  -2.141  29.827  0.00  0.00    -0.142 NA
ATOM      6  C   UNL d   1      58.431  -0.076  30.072  0.00  0.00     0.218 A 
ATOM      7  N   UNL d   1      59.683  -0.634  29.178  0.00  0.00    -0.226 NA
ATOM      8  C   UNL d   1      59.730  -2.206  28.706  0.00  0.00     0.007 A 
ATOM      9  N   UNL d   1      58.505  -3.219  29.141  0.00  0.00    -0.225 NA
ATOM     10  C   UNL d   1      59.029   0.432  29.863  0.00  0.00     0.071 A 
ATOM     11  C   UNL d   1      59.758  -2.988  28.469  0.00  0.00     0.019 A 
ATOM     12  C   UNL d   1      59.664   0.149  29.410  0.00  0.00     0.087 A 
ATOM     13  C   UNL d   1      59.140  -3.502  28.688  0.00  0.00     0.083 A 
ATOM     14  C   UNL d   1      60.340  -1.693  28.491  0.00  0.00     0.000 C 
ATOM     15  C   UNL d   1      60.294   0.682  29.189  0.00  0.00     0.021 C 
ATOM     16  C   UNL d   1      59.161  -4.282  28.455  0.00  0.00     0.021 C 
ENDROOT
BRANCH   6  17
ATOM     17  N   UNL d   1      57.772   0.208  30.540  0.00  0.00    -0.380 NA
BRANCH  17  18
ATOM     18  C   UNL d   1      57.159   0.478  31.049  0.00  0.00     0.164 C 
BRANCH  18  19
ATOM     19  C   UNL d   1      57.031   0.088  31.794  0.00  0.00     0.054 C 
BRANCH  19  20
ATOM     20  C   UNL d   1      56.327   0.267  32.244  0.00  0.00     0.083 C 
BRANCH  20  21
ATOM     21  N   UNL d   1      55.984  -0.320  32.755  0.00  0.00    -0.300 N 
ATOM     22  C   UNL d   1      55.616   0.276  33.241  0.00  0.00     0.100 C 
ATOM     23  C   UNL d   1      55.869  -1.140  32.957  0.00  0.00     0.100 C 
ENDBRANCH  20  21
ENDBRANCH  19  20
ENDBRANCH  18  19
ENDBRANCH  17  18
ENDBRANCH   6  17
TORSDOF 5
ENDMDL
MODEL 2
REMARK VINA RESULT:      -3.1      8.661      8.986
REMARK  5 active torsions:
REMARK  status: ('A' for Active; 'I' for Inactive)
REMARK    1  A    between atoms: N_14  and  C_6 
REMARK    2  A    between atoms: C_20  and  N_14 
REMARK    3  A    between atoms: N_15  and  C_21 
REMARK    4  A    between atoms: C_17  and  C_20 
REMARK    5  A    between atoms: C_21  and  C_17 
ROOT
ATOM      1  N   UNL d   1      58.730  -9.818  31.504  0.00  0.00    -0.183 N 
ATOM      2  C   UNL d   1      58.879  -9.818  30.688  0.00  0.00     0.169 A 
ATOM      3  C   UNL d   1      58.261  -9.818  30.151  0.00  0.00     0.073 A 
ATOM      4  C   UNL d   1      57.495  -9.818  30.436  0.00  0.00     0.185 A 
ATOM      5  N   UNL d   1      57.346  -9.818  31.252  0.00  0.00    -0.142 NA
ATOM      6  C   UNL d   1      59.360  -9.818  32.024  0.00  0.00     0.218 A 
ATOM      7  N   UNL d   1      59.653  -9.818  30.414  0.00  0.00    -0.226 NA
ATOM      8  C   UNL d   1      58.408  -9.818  29.344  0.00  0.00     0.007 A 
ATOM      9  N   UNL d   1      56.858  -9.818  29.905  0.00  0.00    -0.225 NA
ATOM     10  C   UNL d   1      60.128  -9.818  31.759  0.00  0.00     0.071 A 
ATOM     11  C   UNL d   1      57.791  -9.818  28.807  0.00  0.00     0.019 A 
ATOM     12  C   UNL d   1      60.277  -9.818  30.942  0.00  0.00     0.087 A 
ATOM     13  C   UNL d   1      57.007  -9.818  29.089  0.00  0.00     0.083 A 
ATOM     14  C   UNL d   1      59.187  -9.818  29.070  0.00  0.00     0.000 C 
ATOM     15  C   UNL d   1      61.083  -9.818  30.661  0.00  0.00     0.021 C 
ATOM     16  C   UNL d   1      56.388  -9.818  28.560  0.00  0.00     0.021 C 
ENDROOT
BRANCH   6  17
ATOM     17  N   UNL d   1      59.198  -9.818  32.865  0.00  0.00    -0.380 NA
BRANCH  17  18
ATOM     18  C   UNL d   1      59.030  -9.759  33.688  0.00  0.00     0.164 C 
BRANCH  18  19
ATOM     19  C   UNL d   1      59.427  -9.169  34.155  0.00  0.00     0.054 C 
BRANCH  19  20
ATOM     20  C   UNL d   1      59.450  -9.255  35.004  0.00  0.00     0.083 C 
BRANCH  20  21
ATOM     21  N   UNL d   1      59.649  -8.591  35.498  0.00  0.00    -0.300 N 
ATOM     22  C   UNL d   1      59.655  -9.076  36.199  0.00  0.00     0.100 C 
ATOM     23  C   UNL d   1      59.822  -7.761  35.574  0.00  0.00     0.100 C 
ENDBRANCH  20  21
ENDBRANCH  19  20
ENDBRANCH  18  19
ENDBRANCH  17  18
ENDBRANCH   6  17
TORSDOF 5
ENDMDL
MODEL 3
REMARK VINA RESULT:      -2.4      0.972      4.550
REMARK  5 active torsions:
REMARK  status: ('A' for Active; 'I' for Inactive)
REMARK    1  A    between atoms: N_14  and  C_6 
REMARK    2  A    between atoms: C_20  and  N_14 
REMARK    3  A    between atoms: N_15  and  C_21 
REMARK    4  A    between atoms: C_17  and  C_20 
REMARK    5  A    between atoms: C_21  and  C_17 
ROOT
ATOM      1  N   UNL d   1      57.863  -1.341  30.303  0.00  0.00    -0.183 N 
ATOM      2  C   UNL d   1      57.797  -0.665  30.780  0.00  0.00     0.169 A 
ATOM      3  C   UNL d   1      57.284  -0.653  31.417  0.00  0.00     0.073 A 
ATOM      4  C   UNL d   1      56.837  -1.319  31.574  0.00  0.00     0.185 A 
ATOM      5  N   UNL d   1      56.902  -1.995  31.097  0.00  0.00    -0.142 NA
ATOM      6  C   UNL d   1      58.381  -1.335  29.671  0.00  0.00     0.218 A 
ATOM      7  N   UNL d   1      58.252  -0.002  30.612  0.00  0.00    -0.226 NA
ATOM      8  C   UNL d   1      57.220   0.016  31.889  0.00  0.00     0.007 A 
ATOM      9  N   UNL d   1      56.313  -1.321  32.215  0.00  0.00    -0.225 NA
ATOM     10  C   UNL d   1      58.833  -0.682  29.501  0.00  0.00     0.071 A 
ATOM     11  C   UNL d   1      56.707   0.029  32.525  0.00  0.00     0.019 A 
ATOM     12  C   UNL d   1      58.767  -0.006  29.978  0.00  0.00     0.087 A 
ATOM     13  C   UNL d   1      56.248  -0.645  32.693  0.00  0.00     0.083 A 
ATOM     14  C   UNL d   1      57.677   0.682  31.719  0.00  0.00     0.000 C 
ATOM     15  C   UNL d   1      59.242   0.682  29.801  0.00  0.00     0.021 C 
ATOM     16  C   UNL d   1      55.735  -0.639  33.325  0.00  0.00     0.021 C 
ENDROOT
BRANCH   6  17
ATOM     17  N   UNL d   1      58.442  -2.037  29.184  0.00  0.00    -0.380 NA
BRANCH  17  18
ATOM     18  C   UNL d   1      58.504  -2.690  28.657  0.00  0.00     0.164 C 
BRANCH  18  19
ATOM     19  C   UNL d   1      59.264  -3.044  28.516  0.00  0.00     0.054 C 
BRANCH  19  20
ATOM     20  C   UNL d   1      59.375  -3.875  28.682  0.00  0.00     0.083 C 
BRANCH  20  21
ATOM     21  N   UNL d   1      60.149  -4.224  28.624  0.00  0.00    -0.300 N 
ATOM     22  C   UNL d   1      59.821  -4.997  28.477  0.00  0.00     0.100 C 
ATOM     23  C   UNL d   1      60.996  -4.138  28.647  0.00  0.00     0.100 C 
ENDBRANCH  20  21
ENDBRANCH  19  20
ENDBRANCH  18  19
ENDBRANCH  17  18
ENDBRANCH   6  17
TORSDOF 5
ENDMDL
MODEL 4
REMARK VINA RESULT:      -2.3      1.782      5.823
REMARK  5 active torsions:
REMARK  status: ('A' for Active; 'I' for Inactive)
REMARK    1  A    between atoms: N_14  and  C_6 
REMARK    2  A    between atoms: C_20  and  N_14 
REMARK    3  A    between atoms: N_15  and  C_21 
REMARK    4  A    between atoms: C_17  and  C_20 
REMARK    5  A    between atoms: C_21  and  C_17 
ROOT
ATOM      1  N   UNL d   1      56.623   0.681  32.800  0.00  0.00    -0.183 N 
ATOM      2  C   UNL d   1      56.497   0.681  33.620  0.00  0.00     0.169 A 
ATOM      3  C   UNL d   1      55.737   0.681  33.925  0.00  0.00     0.073 A 
ATOM      4  C   UNL d   1      55.106   0.681  33.406  0.00  0.00     0.185 A 
ATOM      5  N   UNL d   1      55.232   0.681  32.586  0.00  0.00    -0.142 NA
ATOM      6  C   UNL d   1      57.388   0.681  32.514  0.00  0.00     0.218 A 
ATOM      7  N   UNL d   1      57.139   0.681  34.132  0.00  0.00    -0.226 NA
ATOM      8  C   UNL d   1      55.612   0.682  34.737  0.00  0.00     0.007 A 
ATOM      9  N   UNL d   1      54.331   0.681  33.700  0.00  0.00    -0.225 NA
ATOM     10  C   UNL d   1      58.027   0.681  33.016  0.00  0.00     0.071 A 
ATOM     11  C   UNL d   1      54.854   0.682  35.042  0.00  0.00     0.019 A 
ATOM     12  C   UNL d   1      57.901   0.681  33.836  0.00  0.00     0.087 A 
ATOM     13  C   UNL d   1      54.205   0.681  34.520  0.00  0.00     0.083 A 
ATOM     14  C   UNL d   1      56.259   0.682  35.250  0.00  0.00     0.000 C 
ATOM     15  C   UNL d   1      58.571   0.682  34.365  0.00  0.00     0.021 C 
ATOM     16  C   UNL d   1      53.447   0.681  34.817  0.00  0.00     0.021 C 
ENDROOT
BRANCH   6  17
ATOM     17  N   UNL d   1      57.509   0.681  31.667  0.00  0.00    -0.380 NA
BRANCH  17  18
ATOM     18  C   UNL d   1      57.569   0.682  30.827  0.00  0.00     0.164 C 
BRANCH  18  19
ATOM     19  C   UNL d   1      58.064   0.109  30.441  0.00  0.00     0.054 C 
BRANCH  19  20
ATOM     20  C   UNL d   1      58.243   0.202  29.611  0.00  0.00     0.083 C 
BRANCH  20  21
ATOM     21  N   UNL d   1      58.914  -0.196  29.270  0.00  0.00    -0.300 N 
ATOM     22  C   UNL d   1      58.626  -0.064  28.478  0.00  0.00     0.100 C 
ATOM     23  C   UNL d   1      59.650  -0.612  29.373  0.00  0.00     0.100 C 
ENDBRANCH  20  21
ENDBRANCH  19  20
ENDBRANCH  18  19
ENDBRANCH  17  18
ENDBRANCH   6  17
TORSDOF 5
ENDMDL
