MODEL 1
REMARK VINA RESULT:      -7.9      0.000      0.000
REMARK  3 active torsions:
REMARK  status: ('A' for Active; 'I' for Inactive)
REMARK       I    between atoms: C_2  and  N_1 
REMARK    1  A    between atoms: C_3  and  C_2 
REMARK    2  A    between atoms: S_5  and  C_3 
REMARK    3  A    between atoms: C_7  and  S_5 
ROOT
ATOM      1  C   UNL d   1      52.946  32.732  53.558  0.00  0.00     0.125 C 
ENDROOT
BRANCH   1   2
ATOM      2  C   UNL d   1      52.726  33.502  53.362  0.00  0.00     0.259 C 
ATOM      3  N   UNL d   1      52.904  34.131  53.877  0.00  0.00    -0.268 N 
ATOM      4  C   UNL d   1      53.301  33.973  54.583  0.00  0.00     0.110 A 
ATOM      5  C   UNL d   1      52.688  34.904  53.689  0.00  0.00     0.110 A 
ATOM      6  C   UNL d   1      53.482  34.590  55.100  0.00  0.00     0.142 A 
ATOM      7  O   UNL d   1      53.266  35.363  54.913  0.00  0.00    -0.300 OA
ATOM      8  C   UNL d   1      52.869  35.521  54.207  0.00  0.00     0.142 A 
ATOM      9  O   UNL d   1      52.327  33.658  52.652  0.00  0.00    -0.267 OA
ENDBRANCH   1   2
BRANCH   1  10
ATOM     10  S   UNL d   1      52.851  32.137  53.004  0.00  0.00    -0.095 SA
BRANCH  10  11
ATOM     11  C   UNL d   1      52.974  31.351  53.221  0.00  0.00     0.029 A 
ATOM     12  C   UNL d   1      52.387  30.788  53.086  0.00  0.00     0.007 A 
ATOM     13  C   UNL d   1      52.511  30.002  53.303  0.00  0.00     0.012 A 
ATOM     14  C   UNL d   1      53.222  29.779  53.655  0.00  0.00     0.058 A 
ATOM     15  C   UNL d   1      53.810  30.341  53.791  0.00  0.00     0.012 A 
ATOM     16 CL   UNL d   1      53.358  28.996  53.877  0.00  0.00    -0.082 Cl
ATOM     17  C   UNL d   1      53.686  31.128  53.574  0.00  0.00     0.007 A 
ENDBRANCH  10  11
ENDBRANCH   1  10
TORSDOF 3
ENDMDL
MODEL 2
REMARK VINA RESULT:      -7.3      2.532      4.216
REMARK  3 active torsions:
REMARK  status: ('A' for Active; 'I' for Inactive)
REMARK       I    between atoms: C_2  and  N_1 
REMARK    1  A    between atoms: C_3  and  C_2 
REMARK    2  A    between atoms: S_5  and  C_3 
REMARK    3  A    between atoms: C_7  and  S_5 
ROOT
ATOM      1  C   UNL d   1      52.542  32.441  53.033  0.00  0.00     0.125 C 
ENDROOT
BRANCH   1   2
ATOM      2  C   UNL d   1      53.183  32.052  53.376  0.00  0.00     0.259 C 
ATOM      3  N   UNL d   1      53.211  31.220  53.384  0.00  0.00    -0.268 N 
ATOM      4  C   UNL d   1      52.591  30.793  53.045  0.00  0.00     0.110 A 
ATOM      5  C   UNL d   1      53.848  30.823  53.725  0.00  0.00     0.110 A 
ATOM      6  C   UNL d   1      52.610  29.968  53.048  0.00  0.00     0.142 A 
ATOM      7  O   UNL d   1      53.247  29.571  53.389  0.00  0.00    -0.300 OA
ATOM      8  C   UNL d   1      53.866  29.998  53.728  0.00  0.00     0.142 A 
ATOM      9  O   UNL d   1      53.804  32.484  53.715  0.00  0.00    -0.267 OA
ENDBRANCH   1   2
BRANCH   1  10
ATOM     10  S   UNL d   1      52.430  33.237  53.186  0.00  0.00    -0.095 SA
BRANCH  10  11
ATOM     11  C   UNL d   1      51.738  33.610  52.934  0.00  0.00     0.029 A 
ATOM     12  C   UNL d   1      51.706  33.959  52.188  0.00  0.00     0.007 A 
ATOM     13  C   UNL d   1      51.015  34.332  51.936  0.00  0.00     0.012 A 
ATOM     14  C   UNL d   1      50.356  34.356  52.432  0.00  0.00     0.058 A 
ATOM     15  C   UNL d   1      50.388  34.007  53.179  0.00  0.00     0.012 A 
ATOM     16 CL   UNL d   1      49.659  34.726  52.192  0.00  0.00    -0.082 Cl
ATOM     17  C   UNL d   1      51.079  33.634  53.430  0.00  0.00     0.007 A 
ENDBRANCH  10  11
ENDBRANCH   1  10
TORSDOF 3
ENDMDL
MODEL 3
REMARK VINA RESULT:      -7.3      2.293      4.204
REMARK  3 active torsions:
REMARK  status: ('A' for Active; 'I' for Inactive)
REMARK       I    between atoms: C_2  and  N_1 
REMARK    1  A    between atoms: C_3  and  C_2 
REMARK    2  A    between atoms: S_5  and  C_3 
REMARK    3  A    between atoms: C_7  and  S_5 
ROOT
ATOM      1  C   UNL d   1      53.049  32.233  53.406  0.00  0.00     0.125 C 
ENDROOT
BRANCH   1   2
ATOM      2  C   UNL d   1      52.872  31.550  52.979  0.00  0.00     0.259 C 
ATOM      3  N   UNL d   1      52.962  30.802  53.333  0.00  0.00    -0.268 N 
ATOM      4  C   UNL d   1      53.228  30.755  54.113  0.00  0.00     0.110 A 
ATOM      5  C   UNL d   1      52.788  30.114  52.914  0.00  0.00     0.110 A 
ATOM      6  C   UNL d   1      53.319  30.018  54.473  0.00  0.00     0.142 A 
ATOM      7  O   UNL d   1      53.145  29.330  54.054  0.00  0.00    -0.300 OA
ATOM      8  C   UNL d   1      52.880  29.377  53.275  0.00  0.00     0.142 A 
ATOM      9  O   UNL d   1      52.606  31.600  52.196  0.00  0.00    -0.267 OA
ENDBRANCH   1   2
BRANCH   1  10
ATOM     10  S   UNL d   1      53.076  32.952  53.014  0.00  0.00    -0.095 SA
BRANCH  10  11
ATOM     11  C   UNL d   1      53.053  33.655  53.446  0.00  0.00     0.029 A 
ATOM     12  C   UNL d   1      53.570  33.768  54.077  0.00  0.00     0.007 A 
ATOM     13  C   UNL d   1      53.547  34.471  54.508  0.00  0.00     0.012 A 
ATOM     14  C   UNL d   1      53.007  35.060  54.307  0.00  0.00     0.058 A 
ATOM     15  C   UNL d   1      52.489  34.947  53.675  0.00  0.00     0.012 A 
ATOM     16 CL   UNL d   1      52.974  35.768  54.730  0.00  0.00    -0.082 Cl
ATOM     17  C   UNL d   1      52.512  34.244  53.244  0.00  0.00     0.007 A 
ENDBRANCH  10  11
ENDBRANCH   1  10
TORSDOF 3
ENDMDL
MODEL 4
REMARK VINA RESULT:      -7.1      2.578      3.412
REMARK  3 active torsions:
REMARK  status: ('A' for Active; 'I' for Inactive)
REMARK       I    between atoms: C_2  and  N_1 
REMARK    1  A    between atoms: C_3  and  C_2 
REMARK    2  A    between atoms: S_5  and  C_3 
REMARK    3  A    between atoms: C_7  and  S_5 
ROOT
ATOM      1  C   UNL d   1      52.684  33.503  53.659  0.00  0.00     0.125 C 
ENDROOT
BRANCH   1   2
ATOM      2  C   UNL d   1      53.360  33.105  53.913  0.00  0.00     0.259 C 
ATOM      3  N   UNL d   1      53.895  33.478  54.430  0.00  0.00    -0.268 N 
ATOM      4  C   UNL d   1      53.739  34.248  54.684  0.00  0.00     0.110 A 
ATOM      5  C   UNL d   1      54.573  33.088  54.689  0.00  0.00     0.110 A 
ATOM      6  C   UNL d   1      54.262  34.626  55.197  0.00  0.00     0.142 A 
ATOM      7  O   UNL d   1      54.941  34.237  55.455  0.00  0.00    -0.300 OA
ATOM      8  C   UNL d   1      55.097  33.467  55.202  0.00  0.00     0.142 A 
ATOM      9  O   UNL d   1      53.514  32.332  53.656  0.00  0.00    -0.267 OA
ENDBRANCH   1   2
BRANCH   1  10
ATOM     10  S   UNL d   1      52.179  33.134  53.131  0.00  0.00    -0.095 SA
BRANCH  10  11
ATOM     11  C   UNL d   1      51.509  33.531  52.858  0.00  0.00     0.029 A 
ATOM     12  C   UNL d   1      51.532  33.932  52.138  0.00  0.00     0.007 A 
ATOM     13  C   UNL d   1      50.862  34.329  51.865  0.00  0.00     0.012 A 
ATOM     14  C   UNL d   1      50.170  34.325  52.313  0.00  0.00     0.058 A 
ATOM     15  C   UNL d   1      50.147  33.924  53.034  0.00  0.00     0.012 A 
ATOM     16 CL   UNL d   1      49.493  34.718  52.052  0.00  0.00    -0.082 Cl
ATOM     17  C   UNL d   1      50.817  33.527  53.307  0.00  0.00     0.007 A 
ENDBRANCH  10  11
ENDBRANCH   1  10
TORSDOF 3
ENDMDL
MODEL 5
REMARK VINA RESULT:      -7.0      1.325      1.612
REMARK  3 active torsions:
REMARK  status: ('A' for Active; 'I' for Inactive)
REMARK       I    between atoms: C_2  and  N_1 
REMARK    1  A    between atoms: C_3  and  C_2 
REMARK    2  A    between atoms: S_5  and  C_3 
REMARK    3  A    between atoms: C_7  and  S_5 
ROOT
ATOM      1  C   UNL d   1      52.639  32.258  53.279  0.00  0.00     0.125 C 
ENDROOT
BRANCH   1   2
ATOM      2  C   UNL d   1      52.699  33.060  53.096  0.00  0.00     0.259 C 
ATOM      3  N   UNL d   1      52.014  33.531  53.054  0.00  0.00    -0.268 N 
ATOM      4  C   UNL d   1      51.278  33.185  53.196  0.00  0.00     0.110 A 
ATOM      5  C   UNL d   1      52.064  34.333  52.872  0.00  0.00     0.110 A 
ATOM      6  C   UNL d   1      50.593  33.643  53.156  0.00  0.00     0.142 A 
ATOM      7  O   UNL d   1      50.643  34.445  52.974  0.00  0.00    -0.300 OA
ATOM      8  C   UNL d   1      51.378  34.791  52.832  0.00  0.00     0.142 A 
ATOM      9  O   UNL d   1      53.439  33.405  52.954  0.00  0.00    -0.267 OA
ENDBRANCH   1   2
BRANCH   1  10
ATOM     10  S   UNL d   1      53.283  31.771  53.149  0.00  0.00    -0.095 SA
BRANCH  10  11
ATOM     11  C   UNL d   1      53.284  31.002  53.450  0.00  0.00     0.029 A 
ATOM     12  C   UNL d   1      52.962  30.386  53.007  0.00  0.00     0.007 A 
ATOM     13  C   UNL d   1      52.962  29.618  53.307  0.00  0.00     0.012 A 
ATOM     14  C   UNL d   1      53.285  29.467  54.051  0.00  0.00     0.058 A 
ATOM     15  C   UNL d   1      53.607  30.083  54.495  0.00  0.00     0.012 A 
ATOM     16 CL   UNL d   1      53.292  28.703  54.363  0.00  0.00    -0.082 Cl
ATOM     17  C   UNL d   1      53.607  30.851  54.194  0.00  0.00     0.007 A 
ENDBRANCH  10  11
ENDBRANCH   1  10
TORSDOF 3
ENDMDL
MODEL 6
REMARK VINA RESULT:      -6.6      2.301      3.160
REMARK  3 active torsions:
REMARK  status: ('A' for Active; 'I' for Inactive)
REMARK       I    between atoms: C_2  and  N_1 
REMARK    1  A    between atoms: C_3  and  C_2 
REMARK    2  A    between atoms: S_5  and  C_3 
REMARK    3  A    between atoms: C_7  and  S_5 
ROOT
ATOM      1  C   UNL d   1      52.092  33.760  53.248  0.00  0.00     0.125 C 
ENDROOT
BRANCH   1   2
ATOM      2  C   UNL d   1      51.603  33.790  52.585  0.00  0.00     0.259 C 
ATOM      3  N   UNL d   1      50.859  34.160  52.631  0.00  0.00    -0.268 N 
ATOM      4  C   UNL d   1      50.620  34.495  53.347  0.00  0.00     0.110 A 
ATOM      5  C   UNL d   1      50.363  34.195  51.974  0.00  0.00     0.110 A 
ATOM      6  C   UNL d   1      49.884  34.864  53.404  0.00  0.00     0.142 A 
ATOM      7  O   UNL d   1      49.388  34.899  52.746  0.00  0.00    -0.300 OA
ATOM      8  C   UNL d   1      49.627  34.565  52.031  0.00  0.00     0.142 A 
ATOM      9  O   UNL d   1      51.845  33.453  51.868  0.00  0.00    -0.267 OA
ENDBRANCH   1   2
BRANCH   1  10
ATOM     10  S   UNL d   1      52.824  33.398  53.188  0.00  0.00    -0.095 SA
BRANCH  10  11
ATOM     11  C   UNL d   1      53.330  33.386  53.839  0.00  0.00     0.029 A 
ATOM     12  C   UNL d   1      53.527  32.668  54.195  0.00  0.00     0.007 A 
ATOM     13  C   UNL d   1      54.033  32.656  54.846  0.00  0.00     0.012 A 
ATOM     14  C   UNL d   1      54.343  33.361  55.140  0.00  0.00     0.058 A 
ATOM     15  C   UNL d   1      54.147  34.079  54.784  0.00  0.00     0.012 A 
ATOM     16 CL   UNL d   1      54.851  33.363  55.790  0.00  0.00    -0.082 Cl
ATOM     17  C   UNL d   1      53.641  34.092  54.133  0.00  0.00     0.007 A 
ENDBRANCH  10  11
ENDBRANCH   1  10
TORSDOF 3
ENDMDL
MODEL 7
REMARK VINA RESULT:      -6.1      3.718      4.512
REMARK  3 active torsions:
REMARK  status: ('A' for Active; 'I' for Inactive)
REMARK       I    between atoms: C_2  and  N_1 
REMARK    1  A    between atoms: C_3  and  C_2 
REMARK    2  A    between atoms: S_5  and  C_3 
REMARK    3  A    between atoms: C_7  and  S_5 
ROOT
ATOM      1  C   UNL d   1      49.787  34.705  52.619  0.00  0.00     0.125 C 
ENDROOT
BRANCH   1   2
ATOM      2  C   UNL d   1      49.134  34.894  52.151  0.00  0.00     0.259 C 
ATOM      3  N   UNL d   1      48.536  35.390  52.449  0.00  0.00    -0.268 N 
ATOM      4  C   UNL d   1      48.607  35.690  53.216  0.00  0.00     0.110 A 
ATOM      5  C   UNL d   1      47.880  35.584  51.990  0.00  0.00     0.110 A 
ATOM      6  C   UNL d   1      48.020  36.183  53.520  0.00  0.00     0.142 A 
ATOM      7  O   UNL d   1      47.364  36.376  53.061  0.00  0.00    -0.300 OA
ATOM      8  C   UNL d   1      47.293  36.077  52.296  0.00  0.00     0.142 A 
ATOM      9  O   UNL d   1      49.066  34.591  51.382  0.00  0.00    -0.267 OA
ENDBRANCH   1   2
BRANCH   1  10
ATOM     10  S   UNL d   1      50.391  34.256  52.297  0.00  0.00    -0.095 SA
BRANCH  10  11
ATOM     11  C   UNL d   1      51.066  34.096  52.744  0.00  0.00     0.029 A 
ATOM     12  C   UNL d   1      51.097  33.421  53.215  0.00  0.00     0.007 A 
ATOM     13  C   UNL d   1      51.772  33.260  53.662  0.00  0.00     0.012 A 
ATOM     14  C   UNL d   1      52.415  33.776  53.637  0.00  0.00     0.058 A 
ATOM     15  C   UNL d   1      52.384  34.453  53.165  0.00  0.00     0.012 A 
ATOM     16 CL   UNL d   1      53.096  33.628  54.079  0.00  0.00    -0.082 Cl
ATOM     17  C   UNL d   1      51.709  34.613  52.718  0.00  0.00     0.007 A 
ENDBRANCH  10  11
ENDBRANCH   1  10
TORSDOF 3
ENDMDL
MODEL 8
REMARK VINA RESULT:      -5.5      1.505      1.735
REMARK  3 active torsions:
REMARK  status: ('A' for Active; 'I' for Inactive)
REMARK       I    between atoms: C_2  and  N_1 
REMARK    1  A    between atoms: C_3  and  C_2 
REMARK    2  A    between atoms: S_5  and  C_3 
REMARK    3  A    between atoms: C_7  and  S_5 
ROOT
ATOM      1  C   UNL d   1      53.947  32.202  53.750  0.00  0.00     0.125 C 
ENDROOT
BRANCH   1   2
ATOM      2  C   UNL d   1      54.563  32.744  53.843  0.00  0.00     0.259 C 
ATOM      3  N   UNL d   1      54.536  33.304  54.458  0.00  0.00    -0.268 N 
ATOM      4  C   UNL d   1      53.887  33.310  54.969  0.00  0.00     0.110 A 
ATOM      5  C   UNL d   1      55.146  33.849  54.559  0.00  0.00     0.110 A 
ATOM      6  C   UNL d   1      53.851  33.862  55.581  0.00  0.00     0.142 A 
ATOM      7  O   UNL d   1      54.461  34.407  55.683  0.00  0.00    -0.300 OA
ATOM      8  C   UNL d   1      55.109  34.401  55.172  0.00  0.00     0.142 A 
ATOM      9  O   UNL d   1      55.212  32.735  53.329  0.00  0.00    -0.267 OA
ENDBRANCH   1   2
BRANCH   1  10
ATOM     10  S   UNL d   1      54.042  31.578  53.229  0.00  0.00    -0.095 SA
BRANCH  10  11
ATOM     11  C   UNL d   1      53.551  30.917  53.288  0.00  0.00     0.029 A 
ATOM     12  C   UNL d   1      53.789  30.265  53.733  0.00  0.00     0.007 A 
ATOM     13  C   UNL d   1      53.299  29.605  53.792  0.00  0.00     0.012 A 
ATOM     14  C   UNL d   1      52.571  29.596  53.405  0.00  0.00     0.058 A 
ATOM     15  C   UNL d   1      52.332  30.248  52.959  0.00  0.00     0.012 A 
ATOM     16 CL   UNL d   1      52.071  28.942  53.455  0.00  0.00    -0.082 Cl
ATOM     17  C   UNL d   1      52.823  30.909  52.901  0.00  0.00     0.007 A 
ENDBRANCH  10  11
ENDBRANCH   1  10
TORSDOF 3
ENDMDL
MODEL 9
REMARK VINA RESULT:      -5.4      9.349      9.931
REMARK  3 active torsions:
REMARK  status: ('A' for Active; 'I' for Inactive)
REMARK       I    between atoms: C_2  and  N_1 
REMARK    1  A    between atoms: C_3  and  C_2 
REMARK    2  A    between atoms: S_5  and  C_3 
REMARK    3  A    between atoms: C_7  and  S_5 
ROOT
ATOM      1  C   UNL d   1      44.891  29.386  57.876  0.00  0.00     0.125 C 
ENDROOT
BRANCH   1   2
ATOM      2  C   UNL d   1      44.869  30.210  57.851  0.00  0.00     0.259 C 
ATOM      3  N   UNL d   1      44.684  30.602  57.141  0.00  0.00    -0.268 N 
ATOM      4  C   UNL d   1      44.523  30.156  56.465  0.00  0.00     0.110 A 
ATOM      5  C   UNL d   1      44.660  31.425  57.107  0.00  0.00     0.110 A 
ATOM      6  C   UNL d   1      44.339  30.535  55.756  0.00  0.00     0.142 A 
ATOM      7  O   UNL d   1      44.315  31.358  55.722  0.00  0.00    -0.300 OA
ATOM      8  C   UNL d   1      44.475  31.804  56.397  0.00  0.00     0.142 A 
ATOM      9  O   UNL d   1      45.031  30.656  58.531  0.00  0.00    -0.267 OA
ENDBRANCH   1   2
BRANCH   1  10
ATOM     10  S   UNL d   1      45.103  29.013  58.573  0.00  0.00    -0.095 SA
BRANCH  10  11
ATOM     11  C   UNL d   1      45.056  28.192  58.630  0.00  0.00     0.029 A 
ATOM     12  C   UNL d   1      45.501  27.717  58.124  0.00  0.00     0.007 A 
ATOM     13  C   UNL d   1      45.453  26.895  58.181  0.00  0.00     0.012 A 
ATOM     14  C   UNL d   1      44.960  26.550  58.744  0.00  0.00     0.058 A 
ATOM     15  C   UNL d   1      44.514  27.024  59.251  0.00  0.00     0.012 A 
ATOM     16 CL   UNL d   1      44.903  25.729  58.812  0.00  0.00    -0.082 Cl
ATOM     17  C   UNL d   1      44.562  27.846  59.194  0.00  0.00     0.007 A 
ENDBRANCH  10  11
ENDBRANCH   1  10
TORSDOF 3
ENDMDL
