MODEL 1
REMARK VINA RESULT:      -3.4      0.000      0.000
REMARK  1 active torsions:
REMARK  status: ('A' for Active; 'I' for Inactive)
REMARK    1  A    between atoms: C_10  and  N_3 
ROOT
ATOM      1  C   UNL d   1      31.404  16.510 -23.693  0.00  0.00     0.166 A 
ATOM      2  C   UNL d   1      31.101  17.122 -24.148  0.00  0.00     0.117 A 
ATOM      3  N   UNL d   1      32.228  16.606 -23.694  0.00  0.00    -0.289 N 
ATOM      4  N   UNL d   1      30.908  15.946 -23.338  0.00  0.00    -0.225 NA
ATOM      5  N   UNL d   1      30.279  17.155 -24.239  0.00  0.00    -0.241 NA
ATOM      6  C   UNL d   1      31.710  17.581 -24.421  0.00  0.00     0.037 A 
ATOM      7  C   UNL d   1      32.412  17.259 -24.137  0.00  0.00     0.067 A 
ATOM      8  C   UNL d   1      30.108  15.994 -23.437  0.00  0.00     0.101 A 
ATOM      9  C   UNL d   1      29.796  16.611 -23.896  0.00  0.00     0.099 A 
ATOM     10  C   UNL d   1      31.732  18.256 -24.893  0.00  0.00     0.003 A 
ATOM     11  C   UNL d   1      33.136  17.612 -24.327  0.00  0.00     0.018 A 
ATOM     12  C   UNL d   1      28.989  16.665 -24.000  0.00  0.00     0.021 A 
ATOM     13  C   UNL d   1      29.619  15.455 -23.098  0.00  0.00     0.021 A 
ATOM     14  C   UNL d   1      32.451  18.612 -25.085  0.00  0.00     0.000 A 
ATOM     15  C   UNL d   1      33.153  18.290 -24.802  0.00  0.00     0.002 A 
ATOM     16  C   UNL d   1      28.466  16.113 -23.655  0.00  0.00     0.002 A 
ATOM     17  C   UNL d   1      28.788  15.518 -23.210  0.00  0.00     0.002 A 
ENDROOT
BRANCH   3  18
ATOM     18  C   UNL d   1      32.755  16.126 -23.314  0.00  0.00     0.082 C 
ATOM     19  C   UNL d   1      33.072  15.467 -23.733  0.00  0.00     0.021 C 
ENDBRANCH   3  18
TORSDOF 1
ENDMDL
MODEL 2
REMARK VINA RESULT:      -3.3      0.763      3.773
REMARK  1 active torsions:
REMARK  status: ('A' for Active; 'I' for Inactive)
REMARK    1  A    between atoms: C_10  and  N_3 
ROOT
ATOM      1  C   UNL d   1      30.308  17.093 -24.402  0.00  0.00     0.166 A 
ATOM      2  C   UNL d   1      30.451  16.568 -23.787  0.00  0.00     0.117 A 
ATOM      3  N   UNL d   1      29.490  17.079 -24.534  0.00  0.00    -0.289 N 
ATOM      4  N   UNL d   1      30.925  17.516 -24.764  0.00  0.00    -0.225 NA
ATOM      5  N   UNL d   1      31.237  16.477 -23.542  0.00  0.00    -0.241 NA
ATOM      6  C   UNL d   1      29.752  16.240 -23.546  0.00  0.00     0.037 A 
ATOM      7  C   UNL d   1      29.152  16.558 -24.012  0.00  0.00     0.067 A 
ATOM      8  C   UNL d   1      31.685  17.415 -24.512  0.00  0.00     0.101 A 
ATOM      9  C   UNL d   1      31.836  16.886 -23.892  0.00  0.00     0.099 A 
ATOM     10  C   UNL d   1      29.566  15.689 -22.963  0.00  0.00     0.003 A 
ATOM     11  C   UNL d   1      28.368  16.325 -23.893  0.00  0.00     0.018 A 
ATOM     12  C   UNL d   1      32.602  16.778 -23.632  0.00  0.00     0.021 A 
ATOM     13  C   UNL d   1      32.289  17.819 -24.855  0.00  0.00     0.021 A 
ATOM     14  C   UNL d   1      28.785  15.453 -22.840  0.00  0.00     0.000 A 
ATOM     15  C   UNL d   1      28.186  15.771 -23.305  0.00  0.00     0.002 A 
ATOM     16  C   UNL d   1      33.241  17.190 -23.977  0.00  0.00     0.002 A 
ATOM     17  C   UNL d   1      33.076  17.702 -24.581  0.00  0.00     0.002 A 
ENDROOT
BRANCH   3  18
ATOM     18  C   UNL d   1      29.098  17.512 -25.091  0.00  0.00     0.082 C 
ATOM     19  C   UNL d   1      28.773  18.257 -24.865  0.00  0.00     0.021 C 
ENDBRANCH   3  18
TORSDOF 1
ENDMDL
MODEL 3
REMARK VINA RESULT:      -3.1      5.182      6.403
REMARK  1 active torsions:
REMARK  status: ('A' for Active; 'I' for Inactive)
REMARK    1  A    between atoms: C_10  and  N_3 
ROOT
ATOM      1  C   UNL d   1      33.224  21.973 -21.965  0.00  0.00     0.166 A 
ATOM      2  C   UNL d   1      33.214  21.654 -21.208  0.00  0.00     0.117 A 
ATOM      3  N   UNL d   1      33.222  22.796 -21.870  0.00  0.00    -0.289 N 
ATOM      4  N   UNL d   1      33.233  21.488 -22.639  0.00  0.00    -0.225 NA
ATOM      5  N   UNL d   1      33.213  20.829 -21.144  0.00  0.00    -0.241 NA
ATOM      6  C   UNL d   1      33.206  22.254 -20.664  0.00  0.00     0.037 A 
ATOM      7  C   UNL d   1      33.212  22.966 -21.077  0.00  0.00     0.067 A 
ATOM      8  C   UNL d   1      33.232  20.684 -22.558  0.00  0.00     0.101 A 
ATOM      9  C   UNL d   1      33.222  20.357 -21.797  0.00  0.00     0.099 A 
ATOM     10  C   UNL d   1      33.195  22.260 -19.840  0.00  0.00     0.003 A 
ATOM     11  C   UNL d   1      33.206  23.683 -20.665  0.00  0.00     0.018 A 
ATOM     12  C   UNL d   1      33.221  19.546 -21.708  0.00  0.00     0.021 A 
ATOM     13  C   UNL d   1      33.241  20.207 -23.204  0.00  0.00     0.021 A 
ATOM     14  C   UNL d   1      33.189  22.972 -19.425  0.00  0.00     0.000 A 
ATOM     15  C   UNL d   1      33.195  23.684 -19.837  0.00  0.00     0.002 A 
ATOM     16  C   UNL d   1      33.230  19.035 -22.368  0.00  0.00     0.002 A 
ATOM     17  C   UNL d   1      33.240  19.372 -23.104  0.00  0.00     0.002 A 
ENDROOT
BRANCH   3  18
ATOM     18  C   UNL d   1      33.230  23.336 -22.470  0.00  0.00     0.082 C 
ATOM     19  C   UNL d   1      32.493  23.629 -22.757  0.00  0.00     0.021 C 
ENDBRANCH   3  18
TORSDOF 1
ENDMDL
MODEL 4
REMARK VINA RESULT:      -2.7      3.972      5.184
REMARK  1 active torsions:
REMARK  status: ('A' for Active; 'I' for Inactive)
REMARK    1  A    between atoms: C_10  and  N_3 
ROOT
ATOM      1  C   UNL d   1      33.231  20.777 -22.131  0.00  0.00     0.166 A 
ATOM      2  C   UNL d   1      33.235  21.057 -22.903  0.00  0.00     0.117 A 
ATOM      3  N   UNL d   1      33.229  21.446 -21.641  0.00  0.00    -0.289 N 
ATOM      4  N   UNL d   1      33.230  19.963 -21.964  0.00  0.00    -0.225 NA
ATOM      5  N   UNL d   1      33.238  20.494 -23.510  0.00  0.00    -0.241 NA
ATOM      6  C   UNL d   1      33.235  21.866 -22.895  0.00  0.00     0.037 A 
ATOM      7  C   UNL d   1      33.231  22.108 -22.108  0.00  0.00     0.067 A 
ATOM      8  C   UNL d   1      33.233  19.427 -22.569  0.00  0.00     0.101 A 
ATOM      9  C   UNL d   1      33.237  19.704 -23.351  0.00  0.00     0.099 A 
ATOM     10  C   UNL d   1      33.238  22.430 -23.496  0.00  0.00     0.003 A 
ATOM     11  C   UNL d   1      33.230  22.915 -21.924  0.00  0.00     0.018 A 
ATOM     12  C   UNL d   1      33.240  19.169 -23.966  0.00  0.00     0.021 A 
ATOM     13  C   UNL d   1      33.232  18.639 -22.419  0.00  0.00     0.021 A 
ATOM     14  C   UNL d   1      33.238  23.235 -23.317  0.00  0.00     0.000 A 
ATOM     15  C   UNL d   1      33.234  23.478 -22.531  0.00  0.00     0.002 A 
ATOM     16  C   UNL d   1      33.239  18.346 -23.829  0.00  0.00     0.002 A 
ATOM     17  C   UNL d   1      33.235  18.093 -23.060  0.00  0.00     0.002 A 
ENDROOT
BRANCH   3  18
ATOM     18  C   UNL d   1      33.224  21.434 -20.834  0.00  0.00     0.082 C 
ATOM     19  C   UNL d   1      32.484  21.500 -20.435  0.00  0.00     0.021 C 
ENDBRANCH   3  18
TORSDOF 1
ENDMDL
MODEL 5
REMARK VINA RESULT:      -2.6      2.858      4.545
REMARK  1 active torsions:
REMARK  status: ('A' for Active; 'I' for Inactive)
REMARK    1  A    between atoms: C_10  and  N_3 
ROOT
ATOM      1  C   UNL d   1      33.239  19.435 -23.216  0.00  0.00     0.166 A 
ATOM      2  C   UNL d   1      33.239  18.893 -22.600  0.00  0.00     0.117 A 
ATOM      3  N   UNL d   1      33.240  18.991 -23.916  0.00  0.00    -0.289 N 
ATOM      4  N   UNL d   1      33.239  20.254 -23.074  0.00  0.00    -0.225 NA
ATOM      5  N   UNL d   1      33.238  19.195 -21.829  0.00  0.00    -0.241 NA
ATOM      6  C   UNL d   1      33.239  18.142 -22.902  0.00  0.00     0.037 A 
ATOM      7  C   UNL d   1      33.240  18.203 -23.723  0.00  0.00     0.067 A 
ATOM      8  C   UNL d   1      33.238  20.531 -22.315  0.00  0.00     0.101 A 
ATOM      9  C   UNL d   1      33.237  19.988 -21.689  0.00  0.00     0.099 A 
ATOM     10  C   UNL d   1      33.239  17.398 -22.548  0.00  0.00     0.003 A 
ATOM     11  C   UNL d   1      33.241  17.520 -24.189  0.00  0.00     0.018 A 
ATOM     12  C   UNL d   1      33.236  20.262 -20.921  0.00  0.00     0.021 A 
ATOM     13  C   UNL d   1      33.237  21.320 -22.168  0.00  0.00     0.021 A 
ATOM     14  C   UNL d   1      33.240  16.713 -23.008  0.00  0.00     0.000 A 
ATOM     15  C   UNL d   1      33.241  16.774 -23.829  0.00  0.00     0.002 A 
ATOM     16  C   UNL d   1      33.236  21.079 -20.749  0.00  0.00     0.002 A 
ATOM     17  C   UNL d   1      33.236  21.594 -21.372  0.00  0.00     0.002 A 
ENDROOT
BRANCH   3  18
ATOM     18  C   UNL d   1      33.241  19.296 -24.663  0.00  0.00     0.082 C 
ATOM     19  C   UNL d   1      32.513  19.316 -25.090  0.00  0.00     0.021 C 
ENDBRANCH   3  18
TORSDOF 1
ENDMDL
MODEL 6
REMARK VINA RESULT:      -2.5      5.658      6.999
REMARK  1 active torsions:
REMARK  status: ('A' for Active; 'I' for Inactive)
REMARK    1  A    between atoms: C_10  and  N_3 
ROOT
ATOM      1  C   UNL d   1      33.116  22.125 -21.785  0.00  0.00     0.166 A 
ATOM      2  C   UNL d   1      32.995  22.921 -21.628  0.00  0.00     0.117 A 
ATOM      3  N   UNL d   1      33.131  21.743 -21.050  0.00  0.00    -0.289 N 
ATOM      4  N   UNL d   1      33.197  21.843 -22.563  0.00  0.00    -0.225 NA
ATOM      5  N   UNL d   1      32.956  23.434 -22.277  0.00  0.00    -0.241 NA
ATOM      6  C   UNL d   1      32.937  23.032 -20.829  0.00  0.00     0.037 A 
ATOM      7  C   UNL d   1      33.022  22.297 -20.468  0.00  0.00     0.067 A 
ATOM      8  C   UNL d   1      33.157  22.358 -23.184  0.00  0.00     0.101 A 
ATOM      9  C   UNL d   1      33.035  23.163 -23.032  0.00  0.00     0.099 A 
ATOM     10  C   UNL d   1      32.817  23.702 -20.365  0.00  0.00     0.003 A 
ATOM     11  C   UNL d   1      32.987  22.234 -19.644  0.00  0.00     0.018 A 
ATOM     12  C   UNL d   1      32.993  23.688 -23.655  0.00  0.00     0.021 A 
ATOM     13  C   UNL d   1      33.235  22.096 -23.939  0.00  0.00     0.021 A 
ATOM     14  C   UNL d   1      32.781  23.645 -19.543  0.00  0.00     0.000 A 
ATOM     15  C   UNL d   1      32.866  22.910 -19.182  0.00  0.00     0.002 A 
ATOM     16  C   UNL d   1      33.072  23.433 -24.445  0.00  0.00     0.002 A 
ATOM     17  C   UNL d   1      33.191  22.644 -24.576  0.00  0.00     0.002 A 
ENDROOT
BRANCH   3  18
ATOM     18  C   UNL d   1      33.238  20.951 -20.936  0.00  0.00     0.082 C 
ATOM     19  C   UNL d   1      32.561  20.447 -20.959  0.00  0.00     0.021 C 
ENDBRANCH   3  18
TORSDOF 1
ENDMDL
MODEL 7
REMARK VINA RESULT:      -2.2      5.959      6.973
REMARK  1 active torsions:
REMARK  status: ('A' for Active; 'I' for Inactive)
REMARK    1  A    between atoms: C_10  and  N_3 
ROOT
ATOM      1  C   UNL d   1      33.233  21.863 -20.891  0.00  0.00     0.166 A 
ATOM      2  C   UNL d   1      33.231  22.634 -21.173  0.00  0.00     0.117 A 
ATOM      3  N   UNL d   1      33.236  21.372 -21.559  0.00  0.00    -0.289 N 
ATOM      4  N   UNL d   1      33.231  21.699 -20.077  0.00  0.00    -0.225 NA
ATOM      5  N   UNL d   1      33.227  23.243 -20.611  0.00  0.00    -0.241 NA
ATOM      6  C   UNL d   1      33.233  22.625 -21.982  0.00  0.00     0.037 A 
ATOM      7  C   UNL d   1      33.236  21.838 -22.223  0.00  0.00     0.067 A 
ATOM      8  C   UNL d   1      33.228  22.305 -19.543  0.00  0.00     0.101 A 
ATOM      9  C   UNL d   1      33.226  23.086 -19.822  0.00  0.00     0.099 A 
ATOM     10  C   UNL d   1      33.232  23.224 -22.548  0.00  0.00     0.003 A 
ATOM     11  C   UNL d   1      33.239  21.651 -23.029  0.00  0.00     0.018 A 
ATOM     12  C   UNL d   1      33.222  23.702 -19.288  0.00  0.00     0.021 A 
ATOM     13  C   UNL d   1      33.227  22.157 -18.754  0.00  0.00     0.021 A 
ATOM     14  C   UNL d   1      33.234  23.044 -23.353  0.00  0.00     0.000 A 
ATOM     15  C   UNL d   1      33.238  22.257 -23.593  0.00  0.00     0.002 A 
ATOM     16  C   UNL d   1      33.221  23.567 -18.465  0.00  0.00     0.002 A 
ATOM     17  C   UNL d   1      33.223  22.799 -18.210  0.00  0.00     0.002 A 
ENDROOT
BRANCH   3  18
ATOM     18  C   UNL d   1      33.239  20.565 -21.546  0.00  0.00     0.082 C 
ATOM     19  C   UNL d   1      32.504  20.159 -21.632  0.00  0.00     0.021 C 
ENDBRANCH   3  18
TORSDOF 1
ENDMDL
MODEL 8
REMARK VINA RESULT:      -2.1      3.630      4.890
REMARK  1 active torsions:
REMARK  status: ('A' for Active; 'I' for Inactive)
REMARK    1  A    between atoms: C_10  and  N_3 
ROOT
ATOM      1  C   UNL d   1      33.209  19.896 -22.382  0.00  0.00     0.166 A 
ATOM      2  C   UNL d   1      33.204  20.573 -22.848  0.00  0.00     0.117 A 
ATOM      3  N   UNL d   1      33.223  19.254 -22.906  0.00  0.00    -0.289 N 
ATOM      4  N   UNL d   1      33.199  19.940 -21.553  0.00  0.00    -0.225 NA
ATOM      5  N   UNL d   1      33.191  21.302 -22.456  0.00  0.00    -0.241 NA
ATOM      6  C   UNL d   1      33.215  20.362 -23.629  0.00  0.00     0.037 A 
ATOM      7  C   UNL d   1      33.227  19.540 -23.665  0.00  0.00     0.067 A 
ATOM      8  C   UNL d   1      33.186  20.661 -21.187  0.00  0.00     0.101 A 
ATOM      9  C   UNL d   1      33.182  21.347 -21.652  0.00  0.00     0.099 A 
ATOM     10  C   UNL d   1      33.217  20.801 -24.326  0.00  0.00     0.003 A 
ATOM     11  C   UNL d   1      33.240  19.158 -24.399  0.00  0.00     0.018 A 
ATOM     12  C   UNL d   1      33.168  22.078 -21.289  0.00  0.00     0.021 A 
ATOM     13  C   UNL d   1      33.177  20.714 -20.386  0.00  0.00     0.021 A 
ATOM     14  C   UNL d   1      33.230  20.426 -25.060  0.00  0.00     0.000 A 
ATOM     15  C   UNL d   1      33.241  19.604 -25.097  0.00  0.00     0.002 A 
ATOM     16  C   UNL d   1      33.158  22.151 -20.458  0.00  0.00     0.002 A 
ATOM     17  C   UNL d   1      33.163  21.471 -20.020  0.00  0.00     0.002 A 
ENDROOT
BRANCH   3  18
ATOM     18  C   UNL d   1      33.231  18.476 -22.692  0.00  0.00     0.082 C 
ATOM     19  C   UNL d   1      32.541  18.012 -22.836  0.00  0.00     0.021 C 
ENDBRANCH   3  18
TORSDOF 1
ENDMDL
MODEL 9
REMARK VINA RESULT:      -1.8      4.820      6.182
REMARK  1 active torsions:
REMARK  status: ('A' for Active; 'I' for Inactive)
REMARK    1  A    between atoms: C_10  and  N_3 
ROOT
ATOM      1  C   UNL d   1      33.069  21.747 -22.275  0.00  0.00     0.166 A 
ATOM      2  C   UNL d   1      33.018  21.131 -21.735  0.00  0.00     0.117 A 
ATOM      3  N   UNL d   1      33.162  21.396 -23.020  0.00  0.00    -0.289 N 
ATOM      4  N   UNL d   1      33.027  22.541 -22.033  0.00  0.00    -0.225 NA
ATOM      5  N   UNL d   1      32.922  21.333 -20.938  0.00  0.00    -0.241 NA
ATOM      6  C   UNL d   1      33.077  20.425 -22.127  0.00  0.00     0.037 A 
ATOM      7  C   UNL d   1      33.166  20.590 -22.928  0.00  0.00     0.067 A 
ATOM      8  C   UNL d   1      32.933  22.720 -21.251  0.00  0.00     0.101 A 
ATOM      9  C   UNL d   1      32.880  22.101 -20.701  0.00  0.00     0.099 A 
ATOM     10  C   UNL d   1      33.062  19.642 -21.871  0.00  0.00     0.003 A 
ATOM     11  C   UNL d   1      33.241  19.972 -23.472  0.00  0.00     0.018 A 
ATOM     12  C   UNL d   1      32.786  22.275 -19.909  0.00  0.00     0.021 A 
ATOM     13  C   UNL d   1      32.890  23.483 -21.006  0.00  0.00     0.021 A 
ATOM     14  C   UNL d   1      33.135  19.022 -22.409  0.00  0.00     0.000 A 
ATOM     15  C   UNL d   1      33.225  19.187 -23.211  0.00  0.00     0.002 A 
ATOM     16  C   UNL d   1      32.740  23.062 -19.638  0.00  0.00     0.002 A 
ATOM     17  C   UNL d   1      32.792  23.653 -20.188  0.00  0.00     0.002 A 
ENDROOT
BRANCH   3  18
ATOM     18  C   UNL d   1      33.236  21.794 -23.719  0.00  0.00     0.082 C 
ATOM     19  C   UNL d   1      32.535  22.063 -24.104  0.00  0.00     0.021 C 
ENDBRANCH   3  18
TORSDOF 1
ENDMDL
