MODEL 1
REMARK VINA RESULT:      71.3      0.000      0.000
REMARK  6 active torsions:
REMARK  status: ('A' for Active; 'I' for Inactive)
REMARK    1  A    between atoms: C_9  and  C_2 
REMARK    2  A    between atoms: C_13  and  C_8 
REMARK       I    between atoms: N_10  and  C_9 
REMARK    3  A    between atoms: C_15  and  N_10 
REMARK    4  A    between atoms: N_14  and  C_12 
REMARK    5  A    between atoms: C_21  and  N_14 
REMARK    6  A    between atoms: C_22  and  N_14 
ROOT
ATOM      1  C   UNL d   1      14.600  14.718  -2.347  0.00  0.00     0.180 A 
ATOM      2  C   UNL d   1      14.285  15.409  -3.437  0.00  0.00     0.106 A 
ATOM      3  N   UNL d   1      14.175  14.214  -2.856  0.00  0.00    -0.283 N 
ATOM      4  S   UNL d   1      14.660  15.449  -2.717  0.00  0.00    -0.044 SA
ATOM      5  N   UNL d   1      14.792  14.287  -1.675  0.00  0.00    -0.221 NA
ATOM      6  C   UNL d   1      13.982  14.644  -3.528  0.00  0.00     0.077 A 
ATOM      7  C   UNL d   1      14.115  13.483  -2.486  0.00  0.00     0.101 A 
ATOM      8  C   UNL d   1      14.499  13.534  -1.756  0.00  0.00     0.101 A 
ATOM      9  C   UNL d   1      13.554  14.352  -4.184  0.00  0.00     0.020 C 
ENDROOT
BRANCH   2  10
ATOM     10  C   UNL d   1      14.222  16.035  -3.983  0.00  0.00     0.287 C 
ATOM     11  N   UNL d   1      14.649  16.731  -3.860  0.00  0.00    -0.208 NA
ATOM     12  O   UNL d   1      13.736  15.951  -4.633  0.00  0.00    -0.265 OA
BRANCH  11  13
ATOM     13  C   UNL d   1      14.581  17.345  -4.404  0.00  0.00     0.085 A 
ATOM     14  C   UNL d   1      14.586  17.188  -5.221  0.00  0.00     0.021 A 
ATOM     15  C   UNL d   1      14.518  17.796  -5.765  0.00  0.00     0.019 A 
ATOM     16  C   UNL d   1      14.445  18.574  -5.487  0.00  0.00     0.064 A 
ATOM     17  C   UNL d   1      14.439  18.741  -4.680  0.00  0.00     0.019 A 
ATOM     18  C   UNL d   1      14.507  18.124  -4.145  0.00  0.00     0.021 A 
BRANCH  16  19
ATOM     19  N   UNL d   1      14.375  19.201  -6.018  0.00  0.00    -0.304 N 
BRANCH  19  20
ATOM     20  C   UNL d   1      15.028  19.672  -6.177  0.00  0.00     0.080 C 
ATOM     21  C   UNL d   1      14.939  20.490  -6.236  0.00  0.00     0.021 C 
ENDBRANCH  19  20
BRANCH  19  22
ATOM     22  C   UNL d   1      13.660  19.358  -6.389  0.00  0.00     0.080 C 
ATOM     23  C   UNL d   1      13.199  20.002  -6.158  0.00  0.00     0.021 C 
ENDBRANCH  19  22
ENDBRANCH  16  19
ENDBRANCH  11  13
ENDBRANCH   2  10
BRANCH   8  24
ATOM     24  C   UNL d   1      14.589  12.955  -1.188  0.00  0.00     0.019 A 
ATOM     25  C   UNL d   1      15.244  12.458  -1.193  0.00  0.00     0.002 A 
ATOM     26  C   UNL d   1      15.335  11.872  -0.619  0.00  0.00     0.000 A 
ATOM     27  C   UNL d   1      14.758  11.779  -0.024  0.00  0.00     0.000 A 
ATOM     28  C   UNL d   1      14.102  12.276  -0.019  0.00  0.00     0.000 A 
ATOM     29  C   UNL d   1      14.011  12.865  -0.596  0.00  0.00     0.002 A 
ENDBRANCH   8  24
TORSDOF 6
ENDMDL
MODEL 2
REMARK VINA RESULT:      72.3      0.915      6.534
REMARK  6 active torsions:
REMARK  status: ('A' for Active; 'I' for Inactive)
REMARK    1  A    between atoms: C_9  and  C_2 
REMARK    2  A    between atoms: C_13  and  C_8 
REMARK       I    between atoms: N_10  and  C_9 
REMARK    3  A    between atoms: C_15  and  N_10 
REMARK    4  A    between atoms: N_14  and  C_12 
REMARK    5  A    between atoms: C_21  and  N_14 
REMARK    6  A    between atoms: C_22  and  N_14 
ROOT
ATOM      1  C   UNL d   1      14.634  17.125  -3.949  0.00  0.00     0.180 A 
ATOM      2  C   UNL d   1      14.357  15.880  -3.577  0.00  0.00     0.106 A 
ATOM      3  N   UNL d   1      14.257  16.745  -4.588  0.00  0.00    -0.283 N 
ATOM      4  S   UNL d   1      14.689  16.582  -3.336  0.00  0.00    -0.044 SA
ATOM      5  N   UNL d   1      14.803  17.893  -4.184  0.00  0.00    -0.221 NA
ATOM      6  C   UNL d   1      14.088  15.976  -4.353  0.00  0.00     0.077 A 
ATOM      7  C   UNL d   1      14.202  17.287  -5.202  0.00  0.00     0.101 A 
ATOM      8  C   UNL d   1      14.542  17.996  -4.946  0.00  0.00     0.101 A 
ATOM      9  C   UNL d   1      13.709  15.399  -4.825  0.00  0.00     0.020 C 
ENDROOT
BRANCH   2  10
ATOM     10  C   UNL d   1      14.303  15.189  -3.115  0.00  0.00     0.287 C 
ATOM     11  N   UNL d   1      14.748  15.122  -2.423  0.00  0.00    -0.208 NA
ATOM     12  O   UNL d   1      13.808  14.586  -3.355  0.00  0.00    -0.265 OA
BRANCH  11  13
ATOM     13  C   UNL d   1      14.688  14.435  -1.972  0.00  0.00     0.085 A 
ATOM     14  C   UNL d   1      14.418  13.728  -2.315  0.00  0.00     0.021 A 
ATOM     15  C   UNL d   1      14.357  13.043  -1.871  0.00  0.00     0.019 A 
ATOM     16  C   UNL d   1      14.570  13.068  -1.069  0.00  0.00     0.064 A 
ATOM     17  C   UNL d   1      14.840  13.764  -0.719  0.00  0.00     0.019 A 
ATOM     18  C   UNL d   1      14.896  14.442  -1.174  0.00  0.00     0.021 A 
BRANCH  16  19
ATOM     19  N   UNL d   1      14.517  12.390  -0.604  0.00  0.00    -0.304 N 
BRANCH  19  20
ATOM     20  C   UNL d   1      13.904  11.859  -0.728  0.00  0.00     0.080 C 
ATOM     21  C   UNL d   1      13.307  11.780  -0.164  0.00  0.00     0.021 C 
ENDBRANCH  19  20
BRANCH  19  22
ATOM     22  C   UNL d   1      15.071  12.240  -0.016  0.00  0.00     0.080 C 
ATOM     23  C   UNL d   1      15.860  12.099  -0.208  0.00  0.00     0.021 C 
ENDBRANCH  19  22
ENDBRANCH  16  19
ENDBRANCH  11  13
ENDBRANCH   2  10
BRANCH   8  24
ATOM     24  C   UNL d   1      14.620  18.698  -5.356  0.00  0.00     0.019 A 
ATOM     25  C   UNL d   1      15.363  18.987  -5.558  0.00  0.00     0.002 A 
ATOM     26  C   UNL d   1      15.442  19.697  -5.972  0.00  0.00     0.000 A 
ATOM     27  C   UNL d   1      14.763  20.130  -6.190  0.00  0.00     0.000 A 
ATOM     28  C   UNL d   1      14.020  19.841  -5.987  0.00  0.00     0.000 A 
ATOM     29  C   UNL d   1      13.941  19.128  -5.571  0.00  0.00     0.002 A 
ENDBRANCH   8  24
TORSDOF 6
ENDMDL
MODEL 3
REMARK VINA RESULT:      73.6      1.833      2.506
REMARK  6 active torsions:
REMARK  status: ('A' for Active; 'I' for Inactive)
REMARK    1  A    between atoms: C_9  and  C_2 
REMARK    2  A    between atoms: C_13  and  C_8 
REMARK       I    between atoms: N_10  and  C_9 
REMARK    3  A    between atoms: C_15  and  N_10 
REMARK    4  A    between atoms: N_14  and  C_12 
REMARK    5  A    between atoms: C_21  and  N_14 
REMARK    6  A    between atoms: C_22  and  N_14 
ROOT
ATOM      1  C   UNL d   1      13.769  15.196  -4.938  0.00  0.00     0.180 A 
ATOM      2  C   UNL d   1      14.289  16.418  -4.897  0.00  0.00     0.106 A 
ATOM      3  N   UNL d   1      14.109  15.305  -4.185  0.00  0.00    -0.283 N 
ATOM      4  S   UNL d   1      13.888  15.888  -5.365  0.00  0.00    -0.044 SA
ATOM      5  N   UNL d   1      13.450  14.440  -4.958  0.00  0.00    -0.221 NA
ATOM      6  C   UNL d   1      14.429  16.062  -4.164  0.00  0.00     0.077 A 
ATOM      7  C   UNL d   1      13.991  14.614  -3.758  0.00  0.00     0.101 A 
ATOM      8  C   UNL d   1      13.583  14.082  -4.241  0.00  0.00     0.101 A 
ATOM      9  C   UNL d   1      14.824  16.402  -3.511  0.00  0.00     0.020 C 
ENDROOT
BRANCH   2  10
ATOM     10  C   UNL d   1      14.516  17.186  -5.126  0.00  0.00     0.287 C 
ATOM     11  N   UNL d   1      13.955  17.792  -5.143  0.00  0.00    -0.208 NA
ATOM     12  O   UNL d   1      15.293  17.330  -5.332  0.00  0.00    -0.265 OA
BRANCH  11  13
ATOM     13  C   UNL d   1      14.188  18.549  -5.371  0.00  0.00     0.085 A 
ATOM     14  C   UNL d   1      13.892  18.889  -6.070  0.00  0.00     0.021 A 
ATOM     15  C   UNL d   1      14.121  19.641  -6.300  0.00  0.00     0.019 A 
ATOM     16  C   UNL d   1      14.655  20.058  -5.822  0.00  0.00     0.064 A 
ATOM     17  C   UNL d   1      14.954  19.731  -5.127  0.00  0.00     0.019 A 
ATOM     18  C   UNL d   1      14.718  18.978  -4.908  0.00  0.00     0.021 A 
BRANCH  16  19
ATOM     19  N   UNL d   1      14.898  20.817  -6.035  0.00  0.00    -0.304 N 
BRANCH  19  20
ATOM     20  C   UNL d   1      15.699  20.989  -6.078  0.00  0.00     0.080 C 
ATOM     21  C   UNL d   1      15.964  21.754  -5.920  0.00  0.00     0.021 C 
ENDBRANCH  19  20
BRANCH  19  22
ATOM     22  C   UNL d   1      14.347  21.401  -6.204  0.00  0.00     0.080 C 
ATOM     23  C   UNL d   1      14.399  22.144  -5.850  0.00  0.00     0.021 C 
ENDBRANCH  19  22
ENDBRANCH  16  19
ENDBRANCH  11  13
ENDBRANCH   2  10
BRANCH   8  24
ATOM     24  C   UNL d   1      13.338  13.323  -4.068  0.00  0.00     0.019 A 
ATOM     25  C   UNL d   1      13.017  12.840  -4.651  0.00  0.00     0.002 A 
ATOM     26  C   UNL d   1      12.770  12.073  -4.475  0.00  0.00     0.000 A 
ATOM     27  C   UNL d   1      12.844  11.779  -3.697  0.00  0.00     0.000 A 
ATOM     28  C   UNL d   1      13.165  12.263  -3.114  0.00  0.00     0.000 A 
ATOM     29  C   UNL d   1      13.413  13.034  -3.291  0.00  0.00     0.002 A 
ENDBRANCH   8  24
TORSDOF 6
ENDMDL
