MODEL 1
REMARK VINA RESULT:      54.2      0.000      0.000
REMARK  4 active torsions:
REMARK  status: ('A' for Active; 'I' for Inactive)
REMARK    1  A    between atoms: N_7  and  C_1 
REMARK    2  A    between atoms: S_3  and  N_7 
REMARK    3  A    between atoms: N_8  and  S_3 
REMARK    4  A    between atoms: C_12  and  N_5 
ROOT
ATOM      1  C   UNL d   1     -50.295  26.238  33.387  0.00  0.00     0.170 A 
ATOM      2  C   UNL d   1     -50.391  25.469  33.405  0.00  0.00     0.299 A 
ATOM      3  N   UNL d   1     -51.504  26.057  33.351  0.00  0.00    -0.238 N 
ATOM      4  N   UNL d   1     -51.207  25.352  33.381  0.00  0.00    -0.209 N 
ATOM      5  C   UNL d   1     -50.897  26.654  33.355  0.00  0.00     0.105 A 
ATOM      6  O   UNL d   1     -49.800  24.879  33.442  0.00  0.00    -0.263 OA
ATOM      7  C   UNL d   1     -52.332  26.220  33.318  0.00  0.00     0.120 C 
ATOM      8  C   UNL d   1     -51.285  27.258  33.325  0.00  0.00     0.022 C 
ENDROOT
BRANCH   1   9
ATOM      9  N   UNL d   1     -49.559  26.630  33.402  0.00  0.00    -0.137 NA
BRANCH   9  10
ATOM     10  S   UNL d   1     -49.410  27.249  33.954  0.00  0.00     0.351 S 
ATOM     11  O   UNL d   1     -50.212  27.509  33.953  0.00  0.00    -0.180 OA
ATOM     12  O   UNL d   1     -48.616  26.987  33.952  0.00  0.00    -0.180 OA
BRANCH  10  13
ATOM     13  N   UNL d   1     -49.167  27.828  34.499  0.00  0.00    -0.215 N 
ATOM     14  C   UNL d   1     -48.954  28.597  34.228  0.00  0.00     0.093 A 
ATOM     15  C   UNL d   1     -48.712  29.173  34.777  0.00  0.00     0.020 A 
ATOM     16  C   UNL d   1     -48.679  28.994  35.596  0.00  0.00     0.003 A 
ATOM     17  C   UNL d   1     -48.891  28.231  35.864  0.00  0.00     0.020 A 
ATOM     18  C   UNL d   1     -49.137  27.641  35.312  0.00  0.00     0.093 A 
ENDBRANCH  10  13
ENDBRANCH   9  10
ENDBRANCH   1   9
BRANCH   4  19
ATOM     19  C   UNL d   1     -51.689  24.655  33.383  0.00  0.00     0.085 A 
ATOM     20  C   UNL d   1     -51.313  23.924  33.323  0.00  0.00     0.019 A 
ATOM     21  C   UNL d   1     -51.777  23.238  33.325  0.00  0.00     0.002 A 
ATOM     22  C   UNL d   1     -52.592  23.307  33.387  0.00  0.00     0.000 A 
ATOM     23  C   UNL d   1     -52.914  24.031  33.443  0.00  0.00     0.002 A 
ATOM     24  C   UNL d   1     -52.446  24.708  33.440  0.00  0.00     0.019 A 
ENDBRANCH   4  19
TORSDOF 4
ENDMDL
