MODEL 1
REMARK VINA RESULT:      -3.9      0.000      0.000
REMARK  8 active torsions:
REMARK  status: ('A' for Active; 'I' for Inactive)
REMARK    1  A    between atoms: C_9  and  S_1 
REMARK    2  A    between atoms: N_10  and  S_1 
REMARK    3  A    between atoms: C_17  and  C_3 
REMARK    4  A    between atoms: C_4  and  N_14 
REMARK    5  A    between atoms: C_8  and  C_16 
REMARK       I    between atoms: N_11  and  C_8 
REMARK    6  A    between atoms: C_27  and  N_10 
REMARK    7  A    between atoms: C_28  and  N_10 
REMARK    8  A    between atoms: N_14  and  N_11 
ROOT
ATOM      1  N   UNL d   1     -42.725  13.238  21.352  0.00  0.00     0.049 NA
ENDROOT
BRANCH   1   2
ATOM      2  C   UNL d   1     -42.057  13.653  20.973  0.00  0.00     0.768 A 
ATOM      3  N   UNL d   1     -41.482  14.008  21.440  0.00  0.00    -0.058 NA
ATOM      4  C   UNL d   1     -40.860  14.394  21.082  0.00  0.00     0.101 A 
ATOM      5  C   UNL d   1     -40.788  14.442  20.257  0.00  0.00     0.037 A 
ATOM      6  C   UNL d   1     -41.387  14.073  19.806  0.00  0.00     0.101 A 
ATOM      7  C   UNL d   1     -40.174  14.824  19.899  0.00  0.00     0.010 A 
ATOM      8  N   UNL d   1     -42.015  13.683  20.145  0.00  0.00    -0.058 NA
ATOM      9  C   UNL d   1     -41.352  14.098  18.976  0.00  0.00     0.020 A 
ATOM     10  C   UNL d   1     -40.737  14.480  18.617  0.00  0.00     0.008 A 
ATOM     11  C   UNL d   1     -40.118  14.862  19.090  0.00  0.00     0.035 A 
ATOM     12 BR   UNL d   1     -39.466  15.267  18.726  0.00  0.00    -0.049 Br
BRANCH   4  13
ATOM     13  C   UNL d   1     -40.260  14.764  21.524  0.00  0.00     0.018 A 
ATOM     14  C   UNL d   1     -40.279  15.556  21.683  0.00  0.00     0.002 A 
ATOM     15  C   UNL d   1     -39.672  15.920  22.128  0.00  0.00     0.000 A 
ATOM     16  C   UNL d   1     -39.033  15.434  22.410  0.00  0.00     0.000 A 
ATOM     17  C   UNL d   1     -39.044  14.632  22.232  0.00  0.00     0.000 A 
ATOM     18  C   UNL d   1     -39.626  14.302  21.809  0.00  0.00     0.002 A 
ENDBRANCH   4  13
ENDBRANCH   1   2
BRANCH   1  19
ATOM     19  N   UNL d   1     -42.637  12.452  21.601  0.00  0.00    -0.090 NA
ATOM     20  C   UNL d   1     -43.254  12.050  21.947  0.00  0.00     0.297 C 
ATOM     21  O   UNL d   1     -43.177  11.293  22.190  0.00  0.00    -0.264 OA
BRANCH  20  22
ATOM     22  C   UNL d   1     -43.966  12.425  22.051  0.00  0.00     0.059 A 
ATOM     23  C   UNL d   1     -44.267  12.881  21.430  0.00  0.00     0.006 A 
ATOM     24  C   UNL d   1     -44.984  13.257  21.538  0.00  0.00     0.013 A 
ATOM     25  C   UNL d   1     -45.380  13.175  22.244  0.00  0.00     0.104 A 
ATOM     26  C   UNL d   1     -45.083  12.714  22.885  0.00  0.00     0.013 A 
ATOM     27  C   UNL d   1     -44.355  12.337  22.763  0.00  0.00     0.006 A 
BRANCH  25  28
ATOM     28  S   UNL d   1     -46.123  13.566  22.352  0.00  0.00     0.271 S 
ATOM     29  O   UNL d   1     -45.806  14.039  22.954  0.00  0.00    -0.200 OA
ATOM     30  O   UNL d   1     -46.483  13.112  21.752  0.00  0.00    -0.200 OA
BRANCH  28  31
ATOM     31  N   UNL d   1     -46.869  13.962  22.463  0.00  0.00    -0.229 N 
BRANCH  31  32
ATOM     32  C   UNL d   1     -47.577  13.554  22.400  0.00  0.00     0.092 C 
ATOM     33  C   UNL d   1     -48.116  13.561  23.002  0.00  0.00     0.021 C 
ENDBRANCH  31  32
BRANCH  31  34
ATOM     34  C   UNL d   1     -46.894  14.768  22.638  0.00  0.00     0.092 C 
ATOM     35  C   UNL d   1     -47.542  15.221  22.403  0.00  0.00     0.021 C 
ENDBRANCH  31  34
ENDBRANCH  28  31
ENDBRANCH  25  28
ENDBRANCH  20  22
ENDBRANCH   1  19
TORSDOF 8
ENDMDL
MODEL 2
REMARK VINA RESULT:      -3.6      0.624      2.099
REMARK  8 active torsions:
REMARK  status: ('A' for Active; 'I' for Inactive)
REMARK    1  A    between atoms: C_9  and  S_1 
REMARK    2  A    between atoms: N_10  and  S_1 
REMARK    3  A    between atoms: C_17  and  C_3 
REMARK    4  A    between atoms: C_4  and  N_14 
REMARK    5  A    between atoms: C_8  and  C_16 
REMARK       I    between atoms: N_11  and  C_8 
REMARK    6  A    between atoms: C_27  and  N_10 
REMARK    7  A    between atoms: C_28  and  N_10 
REMARK    8  A    between atoms: N_14  and  N_11 
ROOT
ATOM      1  N   UNL d   1     -42.546  13.357  21.351  0.00  0.00     0.049 NA
ENDROOT
BRANCH   1   2
ATOM      2  C   UNL d   1     -41.858  13.830  21.096  0.00  0.00     0.768 A 
ATOM      3  N   UNL d   1     -41.739  13.976  20.296  0.00  0.00    -0.058 NA
ATOM      4  C   UNL d   1     -41.095  14.418  20.063  0.00  0.00     0.101 A 
ATOM      5  C   UNL d   1     -40.553  14.727  20.608  0.00  0.00     0.037 A 
ATOM      6  C   UNL d   1     -40.697  14.564  21.415  0.00  0.00     0.101 A 
ATOM      7  C   UNL d   1     -39.914  15.166  20.381  0.00  0.00     0.010 A 
ATOM      8  N   UNL d   1     -41.334  14.125  21.668  0.00  0.00    -0.058 NA
ATOM      9  C   UNL d   1     -40.177  14.856  21.993  0.00  0.00     0.020 A 
ATOM     10  C   UNL d   1     -39.539  15.295  21.766  0.00  0.00     0.008 A 
ATOM     11  C   UNL d   1     -39.392  15.462  20.928  0.00  0.00     0.035 A 
ATOM     12 BR   UNL d   1     -38.725  15.922  20.674  0.00  0.00    -0.049 Br
BRANCH   4  13
ATOM     13  C   UNL d   1     -40.945  14.585  19.261  0.00  0.00     0.018 A 
ATOM     14  C   UNL d   1     -41.187  15.277  18.921  0.00  0.00     0.002 A 
ATOM     15  C   UNL d   1     -41.032  15.437  18.115  0.00  0.00     0.000 A 
ATOM     16  C   UNL d   1     -40.613  14.851  17.662  0.00  0.00     0.000 A 
ATOM     17  C   UNL d   1     -40.380  14.158  18.038  0.00  0.00     0.000 A 
ATOM     18  C   UNL d   1     -40.535  14.021  18.803  0.00  0.00     0.002 A 
ENDBRANCH   4  13
ENDBRANCH   1   2
BRANCH   1  19
ATOM     19  N   UNL d   1     -42.457  12.548  21.508  0.00  0.00    -0.090 NA
ATOM     20  C   UNL d   1     -43.078  12.104  21.790  0.00  0.00     0.297 C 
ATOM     21  O   UNL d   1     -43.001  11.324  21.943  0.00  0.00    -0.264 OA
BRANCH  20  22
ATOM     22  C   UNL d   1     -43.796  12.460  21.919  0.00  0.00     0.059 A 
ATOM     23  C   UNL d   1     -44.154  12.370  22.659  0.00  0.00     0.006 A 
ATOM     24  C   UNL d   1     -44.876  12.730  22.786  0.00  0.00     0.013 A 
ATOM     25  C   UNL d   1     -45.221  13.162  22.190  0.00  0.00     0.104 A 
ATOM     26  C   UNL d   1     -44.867  13.262  21.431  0.00  0.00     0.013 A 
ATOM     27  C   UNL d   1     -44.134  12.892  21.314  0.00  0.00     0.006 A 
BRANCH  25  28
ATOM     28  S   UNL d   1     -45.970  13.534  22.325  0.00  0.00     0.271 S 
ATOM     29  O   UNL d   1     -46.265  13.238  21.609  0.00  0.00    -0.200 OA
ATOM     30  O   UNL d   1     -45.715  13.851  23.054  0.00  0.00    -0.200 OA
BRANCH  28  31
ATOM     31  N   UNL d   1     -46.724  13.906  22.458  0.00  0.00    -0.229 N 
BRANCH  31  32
ATOM     32  C   UNL d   1     -46.774  14.689  22.694  0.00  0.00     0.092 C 
ATOM     33  C   UNL d   1     -47.423  15.136  22.519  0.00  0.00     0.021 C 
ENDBRANCH  31  32
BRANCH  31  34
ATOM     34  C   UNL d   1     -47.425  13.483  22.351  0.00  0.00     0.092 C 
ATOM     35  C   UNL d   1     -47.977  13.439  22.962  0.00  0.00     0.021 C 
ENDBRANCH  31  34
ENDBRANCH  28  31
ENDBRANCH  25  28
ENDBRANCH  20  22
ENDBRANCH   1  19
TORSDOF 8
ENDMDL
MODEL 3
REMARK VINA RESULT:      -2.8      2.796      6.311
REMARK  8 active torsions:
REMARK  status: ('A' for Active; 'I' for Inactive)
REMARK    1  A    between atoms: C_9  and  S_1 
REMARK    2  A    between atoms: N_10  and  S_1 
REMARK    3  A    between atoms: C_17  and  C_3 
REMARK    4  A    between atoms: C_4  and  N_14 
REMARK    5  A    between atoms: C_8  and  C_16 
REMARK       I    between atoms: N_11  and  C_8 
REMARK    6  A    between atoms: C_27  and  N_10 
REMARK    7  A    between atoms: C_28  and  N_10 
REMARK    8  A    between atoms: N_14  and  N_11 
ROOT
ATOM      1  N   UNL d   1     -42.366  13.784  21.015  0.00  0.00     0.049 NA
ENDROOT
BRANCH   1   2
ATOM      2  C   UNL d   1     -42.902  13.246  21.444  0.00  0.00     0.768 A 
ATOM      3  N   UNL d   1     -43.702  13.427  21.500  0.00  0.00    -0.058 NA
ATOM      4  C   UNL d   1     -44.199  12.921  21.901  0.00  0.00     0.101 A 
ATOM      5  C   UNL d   1     -43.923  12.226  22.259  0.00  0.00     0.037 A 
ATOM      6  C   UNL d   1     -43.106  12.065  22.188  0.00  0.00     0.101 A 
ATOM      7  C   UNL d   1     -44.412  11.723  22.658  0.00  0.00     0.010 A 
ATOM      8  N   UNL d   1     -42.595  12.558  21.791  0.00  0.00    -0.058 NA
ATOM      9  C   UNL d   1     -42.790  11.378  22.532  0.00  0.00     0.020 A 
ATOM     10  C   UNL d   1     -43.279  10.875  22.931  0.00  0.00     0.008 A 
ATOM     11  C   UNL d   1     -44.127  11.045  23.002  0.00  0.00     0.035 A 
ATOM     12 BR   UNL d   1     -44.653  10.525  23.419  0.00  0.00    -0.049 Br
BRANCH   4  13
ATOM     13  C   UNL d   1     -45.014  13.075  21.977  0.00  0.00     0.018 A 
ATOM     14  C   UNL d   1     -45.554  12.742  21.476  0.00  0.00     0.002 A 
ATOM     15  C   UNL d   1     -46.370  12.901  21.558  0.00  0.00     0.000 A 
ATOM     16  C   UNL d   1     -46.618  13.422  22.184  0.00  0.00     0.000 A 
ATOM     17  C   UNL d   1     -46.043  13.744  22.676  0.00  0.00     0.000 A 
ATOM     18  C   UNL d   1     -45.273  13.584  22.585  0.00  0.00     0.002 A 
ENDBRANCH   4  13
ENDBRANCH   1   2
BRANCH   1  19
ATOM     19  N   UNL d   1     -42.268  14.566  21.274  0.00  0.00    -0.090 NA
ATOM     20  C   UNL d   1     -41.689  15.042  20.960  0.00  0.00     0.297 C 
ATOM     21  O   UNL d   1     -41.587  15.796  21.204  0.00  0.00    -0.264 OA
BRANCH  20  22
ATOM     22  C   UNL d   1     -41.199  14.748  20.383  0.00  0.00     0.059 A 
ATOM     23  C   UNL d   1     -41.399  14.878  19.591  0.00  0.00     0.006 A 
ATOM     24  C   UNL d   1     -40.905  14.580  19.013  0.00  0.00     0.013 A 
ATOM     25  C   UNL d   1     -40.237  14.169  19.227  0.00  0.00     0.104 A 
ATOM     26  C   UNL d   1     -40.021  14.030  20.031  0.00  0.00     0.013 A 
ATOM     27  C   UNL d   1     -40.531  14.337  20.608  0.00  0.00     0.006 A 
BRANCH  25  28
ATOM     28  S   UNL d   1     -39.726  13.862  18.625  0.00  0.00     0.271 S 
ATOM     29  O   UNL d   1     -39.075  14.256  18.953  0.00  0.00    -0.200 OA
ATOM     30  O   UNL d   1     -40.354  13.448  18.262  0.00  0.00    -0.200 OA
BRANCH  28  31
ATOM     31  N   UNL d   1     -39.210  13.555  18.022  0.00  0.00    -0.229 N 
BRANCH  31  32
ATOM     32  C   UNL d   1     -39.339  13.723  17.230  0.00  0.00     0.092 C 
ATOM     33  C   UNL d   1     -38.724  13.906  16.738  0.00  0.00     0.021 C 
ENDBRANCH  31  32
BRANCH  31  34
ATOM     34  C   UNL d   1     -38.566  13.079  18.222  0.00  0.00     0.092 C 
ATOM     35  C   UNL d   1     -38.385  12.416  17.766  0.00  0.00     0.021 C 
ENDBRANCH  31  34
ENDBRANCH  28  31
ENDBRANCH  25  28
ENDBRANCH  20  22
ENDBRANCH   1  19
TORSDOF 8
ENDMDL
MODEL 4
REMARK VINA RESULT:      -2.6      2.390      6.830
REMARK  8 active torsions:
REMARK  status: ('A' for Active; 'I' for Inactive)
REMARK    1  A    between atoms: C_9  and  S_1 
REMARK    2  A    between atoms: N_10  and  S_1 
REMARK    3  A    between atoms: C_17  and  C_3 
REMARK    4  A    between atoms: C_4  and  N_14 
REMARK    5  A    between atoms: C_8  and  C_16 
REMARK       I    between atoms: N_11  and  C_8 
REMARK    6  A    between atoms: C_27  and  N_10 
REMARK    7  A    between atoms: C_28  and  N_10 
REMARK    8  A    between atoms: N_14  and  N_11 
ROOT
ATOM      1  N   UNL d   1     -45.939  12.826  22.675  0.00  0.00     0.049 NA
ENDROOT
BRANCH   1   2
ATOM      2  C   UNL d   1     -46.729  13.195  22.711  0.00  0.00     0.768 A 
ATOM      3  N   UNL d   1     -47.396  12.723  22.790  0.00  0.00    -0.058 NA
ATOM      4  C   UNL d   1     -48.132  13.072  22.824  0.00  0.00     0.101 A 
ATOM      5  C   UNL d   1     -48.231  13.893  22.781  0.00  0.00     0.037 A 
ATOM      6  C   UNL d   1     -47.536  14.352  22.701  0.00  0.00     0.101 A 
ATOM      7  C   UNL d   1     -48.958  14.243  22.814  0.00  0.00     0.010 A 
ATOM      8  N   UNL d   1     -46.794  14.022  22.666  0.00  0.00    -0.058 NA
ATOM      9  C   UNL d   1     -47.593  15.179  22.655  0.00  0.00     0.020 A 
ATOM     10  C   UNL d   1     -48.320  15.529  22.688  0.00  0.00     0.008 A 
ATOM     11  C   UNL d   1     -49.038  15.050  22.771  0.00  0.00     0.035 A 
ATOM     12 BR   UNL d   1     -49.809  15.404  22.807  0.00  0.00    -0.049 Br
BRANCH   4  13
ATOM     13  C   UNL d   1     -48.828  12.622  22.903  0.00  0.00     0.018 A 
ATOM     14  C   UNL d   1     -49.159  12.480  23.626  0.00  0.00     0.002 A 
ATOM     15  C   UNL d   1     -49.858  12.027  23.698  0.00  0.00     0.000 A 
ATOM     16  C   UNL d   1     -50.212  11.720  22.988  0.00  0.00     0.000 A 
ATOM     17  C   UNL d   1     -49.850  11.882  22.267  0.00  0.00     0.000 A 
ATOM     18  C   UNL d   1     -49.188  12.313  22.217  0.00  0.00     0.002 A 
ENDBRANCH   4  13
ENDBRANCH   1   2
BRANCH   1  19
ATOM     19  N   UNL d   1     -45.817  12.075  23.003  0.00  0.00    -0.090 NA
ATOM     20  C   UNL d   1     -45.103  11.694  22.925  0.00  0.00     0.297 C 
ATOM     21  O   UNL d   1     -44.976  10.970  23.239  0.00  0.00    -0.264 OA
BRANCH  20  22
ATOM     22  C   UNL d   1     -44.500  12.056  22.519  0.00  0.00     0.059 A 
ATOM     23  C   UNL d   1     -43.727  11.968  22.799  0.00  0.00     0.006 A 
ATOM     24  C   UNL d   1     -43.122  12.334  22.388  0.00  0.00     0.013 A 
ATOM     25  C   UNL d   1     -43.294  12.769  21.723  0.00  0.00     0.104 A 
ATOM     26  C   UNL d   1     -44.078  12.866  21.427  0.00  0.00     0.013 A 
ATOM     27  C   UNL d   1     -44.682  12.490  21.852  0.00  0.00     0.006 A 
BRANCH  25  28
ATOM     28  S   UNL d   1     -42.665  13.146  21.299  0.00  0.00     0.271 S 
ATOM     29  O   UNL d   1     -42.921  13.893  21.550  0.00  0.00    -0.200 OA
ATOM     30  O   UNL d   1     -42.372  12.415  21.022  0.00  0.00    -0.200 OA
BRANCH  28  31
ATOM     31  N   UNL d   1     -42.034  13.529  20.874  0.00  0.00    -0.229 N 
BRANCH  31  32
ATOM     32  C   UNL d   1     -41.277  13.566  21.184  0.00  0.00     0.092 C 
ATOM     33  C   UNL d   1     -40.898  14.274  21.275  0.00  0.00     0.021 C 
ENDBRANCH  31  32
BRANCH  31  34
ATOM     34  C   UNL d   1     -42.173  13.872  20.136  0.00  0.00     0.092 C 
ATOM     35  C   UNL d   1     -41.543  14.020  19.625  0.00  0.00     0.021 C 
ENDBRANCH  31  34
ENDBRANCH  28  31
ENDBRANCH  25  28
ENDBRANCH  20  22
ENDBRANCH   1  19
TORSDOF 8
ENDMDL
MODEL 5
REMARK VINA RESULT:      -2.3      2.562      6.416
REMARK  8 active torsions:
REMARK  status: ('A' for Active; 'I' for Inactive)
REMARK    1  A    between atoms: C_9  and  S_1 
REMARK    2  A    between atoms: N_10  and  S_1 
REMARK    3  A    between atoms: C_17  and  C_3 
REMARK    4  A    between atoms: C_4  and  N_14 
REMARK    5  A    between atoms: C_8  and  C_16 
REMARK       I    between atoms: N_11  and  C_8 
REMARK    6  A    between atoms: C_27  and  N_10 
REMARK    7  A    between atoms: C_28  and  N_10 
REMARK    8  A    between atoms: N_14  and  N_11 
ROOT
ATOM      1  N   UNL d   1     -45.053  12.244  22.823  0.00  0.00     0.049 NA
ENDROOT
BRANCH   1   2
ATOM      2  C   UNL d   1     -45.916  12.341  22.908  0.00  0.00     0.768 A 
ATOM      3  N   UNL d   1     -46.272  13.044  22.674  0.00  0.00    -0.058 NA
ATOM      4  C   UNL d   1     -47.078  13.130  22.755  0.00  0.00     0.101 A 
ATOM      5  C   UNL d   1     -47.555  12.528  23.068  0.00  0.00     0.037 A 
ATOM      6  C   UNL d   1     -47.169  11.823  23.298  0.00  0.00     0.101 A 
ATOM      7  C   UNL d   1     -48.354  12.609  23.150  0.00  0.00     0.010 A 
ATOM      8  N   UNL d   1     -46.365  11.719  23.224  0.00  0.00    -0.058 NA
ATOM      9  C   UNL d   1     -47.611  11.196  23.615  0.00  0.00     0.020 A 
ATOM     10  C   UNL d   1     -48.410  11.277  23.698  0.00  0.00     0.008 A 
ATOM     11  C   UNL d   1     -48.808  12.010  23.458  0.00  0.00     0.035 A 
ATOM     12 BR   UNL d   1     -49.647  12.109  23.539  0.00  0.00    -0.049 Br
BRANCH   4  13
ATOM     13  C   UNL d   1     -47.470  13.828  22.529  0.00  0.00     0.018 A 
ATOM     14  C   UNL d   1     -47.915  13.863  21.856  0.00  0.00     0.002 A 
ATOM     15  C   UNL d   1     -48.306  14.569  21.636  0.00  0.00     0.000 A 
ATOM     16  C   UNL d   1     -48.222  15.250  22.139  0.00  0.00     0.000 A 
ATOM     17  C   UNL d   1     -47.761  15.181  22.817  0.00  0.00     0.000 A 
ATOM     18  C   UNL d   1     -47.398  14.505  23.012  0.00  0.00     0.002 A 
ENDBRANCH   4  13
ENDBRANCH   1   2
BRANCH   1  19
ATOM     19  N   UNL d   1     -44.696  11.523  23.020  0.00  0.00    -0.090 NA
ATOM     20  C   UNL d   1     -43.933  11.356  22.792  0.00  0.00     0.297 C 
ATOM     21  O   UNL d   1     -43.580  10.663  22.978  0.00  0.00    -0.264 OA
BRANCH  20  22
ATOM     22  C   UNL d   1     -43.515  11.906  22.364  0.00  0.00     0.059 A 
ATOM     23  C   UNL d   1     -42.778  12.151  22.648  0.00  0.00     0.006 A 
ATOM     24  C   UNL d   1     -42.361  12.704  22.216  0.00  0.00     0.013 A 
ATOM     25  C   UNL d   1     -42.676  12.996  21.525  0.00  0.00     0.104 A 
ATOM     26  C   UNL d   1     -43.427  12.754  21.224  0.00  0.00     0.013 A 
ATOM     27  C   UNL d   1     -43.840  12.193  21.672  0.00  0.00     0.006 A 
BRANCH  25  28
ATOM     28  S   UNL d   1     -42.241  13.569  21.079  0.00  0.00     0.271 S 
ATOM     29  O   UNL d   1     -42.487  14.176  21.586  0.00  0.00    -0.200 OA
ATOM     30  O   UNL d   1     -41.969  12.989  20.543  0.00  0.00    -0.200 OA
BRANCH  28  31
ATOM     31  N   UNL d   1     -41.804  14.148  20.632  0.00  0.00    -0.229 N 
BRANCH  31  32
ATOM     32  C   UNL d   1     -41.707  14.912  20.911  0.00  0.00     0.092 C 
ATOM     33  C   UNL d   1     -40.987  15.277  20.883  0.00  0.00     0.021 C 
ENDBRANCH  31  32
BRANCH  31  34
ATOM     34  C   UNL d   1     -41.467  13.950  19.905  0.00  0.00     0.092 C 
ATOM     35  C   UNL d   1     -41.147  14.539  19.425  0.00  0.00     0.021 C 
ENDBRANCH  31  34
ENDBRANCH  28  31
ENDBRANCH  25  28
ENDBRANCH  20  22
ENDBRANCH   1  19
TORSDOF 8
ENDMDL
