MODEL 1
REMARK VINA RESULT:       0.3      0.000      0.000
REMARK  4 active torsions:
REMARK  status: ('A' for Active; 'I' for Inactive)
REMARK    1  A    between atoms: S_13  and  C_7 
REMARK       I    between atoms: N_10  and  C_12 
REMARK    2  A    between atoms: C_25  and  C_11 
REMARK    3  A    between atoms: C_12  and  C_16 
REMARK    4  A    between atoms: C_16  and  S_13 
ROOT
ATOM      1  N   UNL d   1     -42.164-123.076 -54.283  0.00  0.00    -0.224 N 
ATOM      2  N   UNL d   1     -41.879-121.667 -54.309  0.00  0.00    -0.241 N 
ATOM      3  C   UNL d   1     -42.099-122.357 -54.703  0.00  0.00     0.343 A 
ATOM      4  C   UNL d   1     -41.724-121.694 -53.496  0.00  0.00     0.160 A 
ATOM      5  C   UNL d   1     -42.008-123.097 -53.472  0.00  0.00     0.273 A 
ATOM      6  C   UNL d   1     -41.788-122.405 -53.079  0.00  0.00     0.115 A 
ATOM      7  C   UNL d   1     -41.632-122.426 -52.269  0.00  0.00     0.120 A 
ATOM      8  N   UNL d   1     -41.502-120.999 -53.095  0.00  0.00    -0.209 NA
ATOM      9  N   UNL d   1     -41.412-121.739 -51.873  0.00  0.00    -0.220 NA
ATOM     10  C   UNL d   1     -41.346-121.019 -52.285  0.00  0.00     0.165 A 
ATOM     11  O   UNL d   1     -42.256-122.339 -55.516  0.00  0.00    -0.245 OA
ATOM     12  O   UNL d   1     -42.073-123.809 -53.060  0.00  0.00    -0.266 OA
ATOM     13  C   UNL d   1     -42.384-123.759 -54.680  0.00  0.00     0.107 C 
ATOM     14  C   UNL d   1     -41.815-120.955 -54.726  0.00  0.00     0.105 C 
ENDROOT
BRANCH   7  15
ATOM     15  S   UNL d   1     -41.697-123.139 -51.856  0.00  0.00    -0.062 SA
BRANCH  15  16
ATOM     16  C   UNL d   1     -41.542-123.163 -51.044  0.00  0.00     0.098 C 
BRANCH  16  17
ATOM     17  C   UNL d   1     -42.096-123.484 -50.525  0.00  0.00     0.271 C 
ATOM     18  N   UNL d   1     -41.959-123.478 -49.715  0.00  0.00    -0.272 N 
ATOM     19  C   UNL d   1     -41.272-123.154 -49.432  0.00  0.00     0.083 A 
ATOM     20  C   UNL d   1     -42.510-123.796 -49.194  0.00  0.00     0.083 A 
ATOM     21  C   UNL d   1     -41.126-123.145 -48.610  0.00  0.00     0.019 A 
ATOM     22  C   UNL d   1     -41.682-123.466 -48.086  0.00  0.00     0.003 A 
ATOM     23  C   UNL d   1     -42.379-123.794 -48.387  0.00  0.00     0.019 A 
ATOM     24  C   UNL d   1     -41.539-123.457 -47.279  0.00  0.00     0.000 C 
ATOM     25  O   UNL d   1     -42.802-123.816 -50.821  0.00  0.00    -0.266 OA
ENDBRANCH  16  17
ENDBRANCH  15  16
ENDBRANCH   7  15
BRANCH  10  26
ATOM     26  C   UNL d   1     -41.125-120.330 -51.886  0.00  0.00     0.039 C 
ATOM     27  C   UNL d   1     -41.127-120.309 -51.060  0.00  0.00     0.003 C 
ENDBRANCH  10  26
TORSDOF 4
ENDMDL
MODEL 2
REMARK VINA RESULT:       2.8      1.642      4.943
REMARK  4 active torsions:
REMARK  status: ('A' for Active; 'I' for Inactive)
REMARK    1  A    between atoms: S_13  and  C_7 
REMARK       I    between atoms: N_10  and  C_12 
REMARK    2  A    between atoms: C_25  and  C_11 
REMARK    3  A    between atoms: C_12  and  C_16 
REMARK    4  A    between atoms: C_16  and  S_13 
ROOT
ATOM      1  N   UNL d   1     -41.783-123.330 -48.595  0.00  0.00    -0.224 N 
ATOM      2  N   UNL d   1     -43.117-122.810 -48.468  0.00  0.00    -0.241 N 
ATOM      3  C   UNL d   1     -42.451-123.155 -48.126  0.00  0.00     0.343 A 
ATOM      4  C   UNL d   1     -43.116-122.640 -49.280  0.00  0.00     0.160 A 
ATOM      5  C   UNL d   1     -41.787-123.159 -49.402  0.00  0.00     0.273 A 
ATOM      6  C   UNL d   1     -42.454-122.813 -49.744  0.00  0.00     0.115 A 
ATOM      7  C   UNL d   1     -42.458-122.642 -50.552  0.00  0.00     0.120 A 
ATOM      8  N   UNL d   1     -43.786-122.292 -49.629  0.00  0.00    -0.209 NA
ATOM      9  N   UNL d   1     -43.121-122.297 -50.897  0.00  0.00    -0.220 NA
ATOM     10  C   UNL d   1     -43.791-122.120 -50.436  0.00  0.00     0.165 A 
ATOM     11  O   UNL d   1     -42.444-123.328 -47.316  0.00  0.00    -0.245 OA
ATOM     12  O   UNL d   1     -41.124-123.333 -49.863  0.00  0.00    -0.266 OA
ATOM     13  C   UNL d   1     -41.123-123.673 -48.248  0.00  0.00     0.107 C 
ATOM     14  C   UNL d   1     -43.779-122.637 -48.004  0.00  0.00     0.105 C 
ENDROOT
BRANCH   7  15
ATOM     15  S   UNL d   1     -41.795-122.816 -51.012  0.00  0.00    -0.062 SA
BRANCH  15  16
ATOM     16  C   UNL d   1     -41.751-122.547 -51.794  0.00  0.00     0.098 C 
BRANCH  16  17
ATOM     17  C   UNL d   1     -41.470-123.045 -52.388  0.00  0.00     0.271 C 
ATOM     18  N   UNL d   1     -41.510-122.814 -53.176  0.00  0.00    -0.272 N 
ATOM     19  C   UNL d   1     -41.827-122.092 -53.361  0.00  0.00     0.083 A 
ATOM     20  C   UNL d   1     -41.230-123.307 -53.771  0.00  0.00     0.083 A 
ATOM     21  C   UNL d   1     -41.870-121.851 -54.160  0.00  0.00     0.019 A 
ATOM     22  C   UNL d   1     -41.588-122.349 -54.759  0.00  0.00     0.003 A 
ATOM     23  C   UNL d   1     -41.266-123.084 -54.557  0.00  0.00     0.019 A 
ATOM     24  C   UNL d   1     -41.630-122.113 -55.543  0.00  0.00     0.000 C 
ATOM     25  O   UNL d   1     -41.144-123.788 -52.191  0.00  0.00    -0.266 OA
ENDBRANCH  16  17
ENDBRANCH  15  16
ENDBRANCH   7  15
BRANCH  10  26
ATOM     26  C   UNL d   1     -44.456-121.774 -50.785  0.00  0.00     0.039 C 
ATOM     27  C   UNL d   1     -45.203-121.878 -50.449  0.00  0.00     0.003 C 
ENDBRANCH  10  26
TORSDOF 4
ENDMDL
