MODEL 1
REMARK VINA RESULT:      96.1      0.000      0.000
REMARK  8 active torsions:
REMARK  status: ('A' for Active; 'I' for Inactive)
REMARK    1  A    between atoms: O_4  and  C_1 
REMARK    2  A    between atoms: C_15  and  C_2 
REMARK    3  A    between atoms: C_5  and  O_4 
REMARK    4  A    between atoms: C_7  and  C_5 
REMARK    5  A    between atoms: O_21  and  C_8 
REMARK    6  A    between atoms: O_22  and  C_10 
REMARK    7  A    between atoms: O_23  and  C_11 
REMARK    8  A    between atoms: N_16  and  C_15 
ROOT
ATOM      1  C   UNL d   1     -55.590-100.539 -42.973  0.00  0.00     0.122 A 
ATOM      2  C   UNL d   1     -55.356-100.757 -42.213  0.00  0.00     0.043 A 
ATOM      3  C   UNL d   1     -55.529-101.079 -43.593  0.00  0.00     0.105 A 
ATOM      4  C   UNL d   1     -55.235-101.836 -43.454  0.00  0.00     0.030 A 
ATOM      5  C   UNL d   1     -55.006-102.046 -42.695  0.00  0.00     0.059 A 
ATOM      6  C   UNL d   1     -55.063-101.515 -42.073  0.00  0.00     0.015 A 
ATOM      7  N   UNL d   1     -55.761-100.858 -44.346  0.00  0.00    -0.242 NA
ATOM      8 CL   UNL d   1     -54.712-102.819 -42.578  0.00  0.00    -0.082 Cl
ATOM      9  C   UNL d   1     -55.177-102.366 -44.068  0.00  0.00     0.004 A 
ATOM     10  C   UNL d   1     -55.700-101.399 -44.966  0.00  0.00     0.099 A 
ATOM     11  C   UNL d   1     -55.407-102.156 -44.827  0.00  0.00     0.021 A 
ENDROOT
BRANCH   1  12
ATOM     12  O   UNL d   1     -55.857 -99.855 -43.110  0.00  0.00    -0.271 OA
BRANCH  12  13
ATOM     13  C   UNL d   1     -56.158 -99.302 -43.841  0.00  0.00     0.300 C 
ATOM     14  O   UNL d   1     -55.416 -98.935 -44.410  0.00  0.00    -0.259 OA
BRANCH  13  15
ATOM     15  C   UNL d   1     -56.958 -99.157 -43.966  0.00  0.00     0.068 A 
ATOM     16  C   UNL d   1     -57.261 -99.122 -44.739  0.00  0.00     0.032 A 
ATOM     17  C   UNL d   1     -58.071 -98.976 -44.870  0.00  0.00     0.118 A 
ATOM     18  C   UNL d   1     -58.580 -98.863 -44.225  0.00  0.00     0.138 A 
ATOM     19  C   UNL d   1     -58.276 -98.897 -43.448  0.00  0.00     0.118 A 
ATOM     20  C   UNL d   1     -57.466 -99.044 -43.317  0.00  0.00     0.032 A 
BRANCH  17  21
ATOM     21  O   UNL d   1     -58.138 -98.990 -45.794  0.00  0.00    -0.326 OA
ATOM     22  C   UNL d   1     -57.509 -98.814 -45.970  0.00  0.00     0.181 C 
ENDBRANCH  17  21
BRANCH  18  23
ATOM     23  O   UNL d   1     -59.165 -98.756 -44.287  0.00  0.00    -0.324 OA
ATOM     24  C   UNL d   1     -59.679 -99.091 -44.720  0.00  0.00     0.182 C 
ENDBRANCH  18  23
BRANCH  19  25
ATOM     25  O   UNL d   1     -58.712 -98.796 -42.739  0.00  0.00    -0.326 OA
ATOM     26  C   UNL d   1     -58.279 -99.311 -42.227  0.00  0.00     0.181 C 
ENDBRANCH  19  25
ENDBRANCH  13  15
ENDBRANCH  12  13
ENDBRANCH   1  12
BRANCH   2  27
ATOM     27  C   UNL d   1     -55.349-100.310 -41.420  0.00  0.00     0.082 C 
BRANCH  27  28
ATOM     28  N   UNL d   1     -55.139-100.708 -40.734  0.00  0.00    -0.299 N 
ATOM     29  C   UNL d   1     -54.948-100.285 -40.062  0.00  0.00     0.107 A 
ATOM     30  C   UNL d   1     -54.734-100.673 -39.364  0.00  0.00     0.142 A 
ATOM     31  O   UNL d   1     -54.716-101.488 -39.354  0.00  0.00    -0.300 OA
ATOM     32  C   UNL d   1     -54.910-101.921 -40.034  0.00  0.00     0.142 A 
ATOM     33  C   UNL d   1     -55.120-101.521 -40.717  0.00  0.00     0.107 A 
ENDBRANCH  27  28
ENDBRANCH   2  27
TORSDOF 8
ENDMDL
MODEL 2
REMARK VINA RESULT:      96.4      2.013      5.284
REMARK  8 active torsions:
REMARK  status: ('A' for Active; 'I' for Inactive)
REMARK    1  A    between atoms: O_4  and  C_1 
REMARK    2  A    between atoms: C_15  and  C_2 
REMARK    3  A    between atoms: C_5  and  O_4 
REMARK    4  A    between atoms: C_7  and  C_5 
REMARK    5  A    between atoms: O_21  and  C_8 
REMARK    6  A    between atoms: O_22  and  C_10 
REMARK    7  A    between atoms: O_23  and  C_11 
REMARK    8  A    between atoms: N_16  and  C_15 
ROOT
ATOM      1  C   UNL d   1     -57.404 -98.849 -44.309  0.00  0.00     0.122 A 
ATOM      2  C   UNL d   1     -57.717 -98.864 -45.072  0.00  0.00     0.043 A 
ATOM      3  C   UNL d   1     -57.910 -98.818 -43.658  0.00  0.00     0.105 A 
ATOM      4  C   UNL d   1     -58.726 -98.802 -43.770  0.00  0.00     0.030 A 
ATOM      5  C   UNL d   1     -59.029 -98.818 -44.532  0.00  0.00     0.059 A 
ATOM      6  C   UNL d   1     -58.533 -98.849 -45.184  0.00  0.00     0.015 A 
ATOM      7  N   UNL d   1     -57.596 -98.802 -42.903  0.00  0.00    -0.242 NA
ATOM      8 CL   UNL d   1     -59.859 -98.802 -44.621  0.00  0.00    -0.082 Cl
ATOM      9  C   UNL d   1     -59.221 -98.772 -43.126  0.00  0.00     0.004 A 
ATOM     10  C   UNL d   1     -58.102 -98.771 -42.252  0.00  0.00     0.099 A 
ATOM     11  C   UNL d   1     -58.918 -98.756 -42.364  0.00  0.00     0.021 A 
ENDROOT
BRANCH   1  12
ATOM     12  O   UNL d   1     -56.666 -98.862 -44.197  0.00  0.00    -0.271 OA
BRANCH  12  13
ATOM     13  C   UNL d   1     -55.872 -99.320 -44.496  0.00  0.00     0.300 C 
ATOM     14  O   UNL d   1     -55.264 -98.758 -45.065  0.00  0.00    -0.259 OA
BRANCH  13  15
ATOM     15  C   UNL d   1     -55.726-100.104 -44.291  0.00  0.00     0.068 A 
ATOM     16  C   UNL d   1     -55.570-100.307 -43.501  0.00  0.00     0.032 A 
ATOM     17  C   UNL d   1     -55.422-101.100 -43.289  0.00  0.00     0.118 A 
ATOM     18  C   UNL d   1     -55.430-101.692 -43.870  0.00  0.00     0.138 A 
ATOM     19  C   UNL d   1     -55.588-101.487 -44.665  0.00  0.00     0.118 A 
ATOM     20  C   UNL d   1     -55.736-100.695 -44.876  0.00  0.00     0.032 A 
BRANCH  17  21
ATOM     21  O   UNL d   1     -55.281-101.049 -42.375  0.00  0.00    -0.326 OA
ATOM     22  C   UNL d   1     -55.918-101.063 -42.148  0.00  0.00     0.181 C 
ENDBRANCH  17  21
BRANCH  18  23
ATOM     23  O   UNL d   1     -55.328-102.268 -43.750  0.00  0.00    -0.324 OA
ATOM     24  C   UNL d   1     -55.614-102.713 -43.217  0.00  0.00     0.182 C 
ENDBRANCH  18  23
BRANCH  19  25
ATOM     25  O   UNL d   1     -55.618-102.014 -45.316  0.00  0.00    -0.326 OA
ATOM     26  C   UNL d   1     -56.294-101.707 -45.721  0.00  0.00     0.181 C 
ENDBRANCH  19  25
ENDBRANCH  13  15
ENDBRANCH  12  13
ENDBRANCH   1  12
BRANCH   2  27
ATOM     27  C   UNL d   1     -57.328 -98.898 -45.895  0.00  0.00     0.082 C 
BRANCH  27  28
ATOM     28  N   UNL d   1     -57.799 -98.862 -46.566  0.00  0.00    -0.299 N 
ATOM     29  C   UNL d   1     -57.451 -98.815 -47.303  0.00  0.00     0.107 A 
ATOM     30  C   UNL d   1     -57.914 -98.778 -47.988  0.00  0.00     0.142 A 
ATOM     31  O   UNL d   1     -58.726 -98.789 -47.918  0.00  0.00    -0.300 OA
ATOM     32  C   UNL d   1     -59.083 -98.836 -47.170  0.00  0.00     0.142 A 
ATOM     33  C   UNL d   1     -58.610 -98.872 -46.502  0.00  0.00     0.107 A 
ENDBRANCH  27  28
ENDBRANCH   2  27
TORSDOF 8
ENDMDL
