MODEL 1
REMARK VINA RESULT:      -2.1      0.000      0.000
REMARK  7 active torsions:
REMARK  status: ('A' for Active; 'I' for Inactive)
REMARK    1  A    between atoms: C_8  and  N_1 
REMARK       I    between atoms: C_3  and  N_5 
REMARK       I    between atoms: N_9  and  C_3 
REMARK    2  A    between atoms: N_5  and  C_6 
REMARK    3  A    between atoms: C_18  and  N_9 
REMARK    4  A    between atoms: C_19  and  N_9 
REMARK    5  A    between atoms: O_17  and  C_14 
REMARK    6  A    between atoms: C_21  and  C_18 
REMARK    7  A    between atoms: C_22  and  C_19 
ROOT
ATOM      1  N   UNL d   1      58.025  -0.309  30.492  0.00  0.00    -0.272 N 
ATOM      2  C   UNL d   1      57.527   0.307  30.251  0.00  0.00     0.266 A 
ATOM      3  C   UNL d   1      57.202   0.638  30.940  0.00  0.00     0.082 A 
ATOM      4  C   UNL d   1      57.498   0.228  31.591  0.00  0.00     0.108 A 
ATOM      5  C   UNL d   1      58.008  -0.358  31.307  0.00  0.00     0.102 A 
ATOM      6  O   UNL d   1      57.383   0.546  29.481  0.00  0.00    -0.267 OA
ENDROOT
BRANCH   4   7
ATOM      7  N   UNL d   1      57.315   0.380  32.384  0.00  0.00    -0.190 NA
ATOM      8  C   UNL d   1      56.571   0.188  32.672  0.00  0.00     0.354 C 
ATOM      9  N   UNL d   1      56.383   0.338  33.463  0.00  0.00    -0.256 N 
ATOM     10  O   UNL d   1      56.008  -0.154  32.179  0.00  0.00    -0.244 OA
BRANCH   9  11
ATOM     11  C   UNL d   1      55.634   0.147  33.763  0.00  0.00     0.085 C 
BRANCH  11  12
ATOM     12  C   UNL d   1      54.999   0.654  33.665  0.00  0.00     0.019 C 
ATOM     13  C   UNL d   1      54.272   0.504  34.024  0.00  0.00     0.002 C 
ENDBRANCH  11  12
ENDBRANCH   9  11
BRANCH   9  14
ATOM     14  C   UNL d   1      56.947   0.681  33.959  0.00  0.00     0.085 C 
BRANCH  14  15
ATOM     15  C   UNL d   1      57.290   0.230  34.556  0.00  0.00     0.019 C 
ATOM     16  C   UNL d   1      57.804   0.591  35.104  0.00  0.00     0.002 C 
ENDBRANCH  14  15
ENDBRANCH   9  14
ENDBRANCH   4   7
BRANCH   1  17
ATOM     17  C   UNL d   1      58.464  -0.792  29.987  0.00  0.00     0.067 A 
ATOM     18  C   UNL d   1      58.977  -0.453  29.434  0.00  0.00     0.020 A 
ATOM     19  C   UNL d   1      59.416  -0.936  28.930  0.00  0.00     0.026 A 
ATOM     20  C   UNL d   1      59.344  -1.755  28.977  0.00  0.00     0.094 A 
ATOM     21  C   UNL d   1      58.836  -2.098  29.525  0.00  0.00     0.026 A 
ATOM     22  C   UNL d   1      58.393  -1.610  30.035  0.00  0.00     0.020 A 
BRANCH  20  23
ATOM     23  O   UNL d   1      59.787  -2.231  28.469  0.00  0.00    -0.328 OA
ATOM     24  C   UNL d   1      60.047  -2.968  28.729  0.00  0.00     0.181 C 
ENDBRANCH  20  23
ENDBRANCH   1  17
TORSDOF 7
ENDMDL
MODEL 2
REMARK VINA RESULT:      -1.1      1.521      2.444
REMARK  7 active torsions:
REMARK  status: ('A' for Active; 'I' for Inactive)
REMARK    1  A    between atoms: C_8  and  N_1 
REMARK       I    between atoms: C_3  and  N_5 
REMARK       I    between atoms: N_9  and  C_3 
REMARK    2  A    between atoms: N_5  and  C_6 
REMARK    3  A    between atoms: C_18  and  N_9 
REMARK    4  A    between atoms: C_19  and  N_9 
REMARK    5  A    between atoms: O_17  and  C_14 
REMARK    6  A    between atoms: C_21  and  C_18 
REMARK    7  A    between atoms: C_22  and  C_19 
ROOT
ATOM      1  N   UNL d   1      57.119  -0.359  31.582  0.00  0.00    -0.272 N 
ATOM      2  C   UNL d   1      56.852  -1.125  31.747  0.00  0.00     0.266 A 
ATOM      3  C   UNL d   1      56.240  -1.055  32.303  0.00  0.00     0.082 A 
ATOM      4  C   UNL d   1      56.135  -0.254  32.474  0.00  0.00     0.108 A 
ATOM      5  C   UNL d   1      56.682   0.171  32.024  0.00  0.00     0.102 A 
ATOM      6  O   UNL d   1      57.138  -1.822  31.423  0.00  0.00    -0.267 OA
ENDROOT
BRANCH   4   7
ATOM      7  N   UNL d   1      55.581   0.059  33.003  0.00  0.00    -0.190 NA
ATOM      8  C   UNL d   1      55.766   0.115  33.800  0.00  0.00     0.354 C 
ATOM      9  N   UNL d   1      55.216   0.427  34.332  0.00  0.00    -0.256 N 
ATOM     10  O   UNL d   1      56.499  -0.138  34.076  0.00  0.00    -0.244 OA
BRANCH   9  11
ATOM     11  C   UNL d   1      55.394   0.488  35.139  0.00  0.00     0.085 C 
BRANCH  11  12
ATOM     12  C   UNL d   1      56.157   0.647  35.392  0.00  0.00     0.019 C 
ATOM     13  C   UNL d   1      56.381   0.529  36.176  0.00  0.00     0.002 C 
ENDBRANCH  11  12
ENDBRANCH   9  11
BRANCH   9  14
ATOM     14  C   UNL d   1      54.480   0.682  34.056  0.00  0.00     0.085 C 
BRANCH  14  15
ATOM     15  C   UNL d   1      53.809   0.553  34.515  0.00  0.00     0.019 C 
ATOM     16  C   UNL d   1      53.052   0.652  34.178  0.00  0.00     0.002 C 
ENDBRANCH  14  15
ENDBRANCH   9  14
ENDBRANCH   4   7
BRANCH   1  17
ATOM     17  C   UNL d   1      57.725  -0.167  31.056  0.00  0.00     0.067 A 
ATOM     18  C   UNL d   1      57.680  -0.414  30.268  0.00  0.00     0.020 A 
ATOM     19  C   UNL d   1      58.286  -0.222  29.742  0.00  0.00     0.026 A 
ATOM     20  C   UNL d   1      58.935   0.215  30.002  0.00  0.00     0.094 A 
ATOM     21  C   UNL d   1      58.984   0.463  30.784  0.00  0.00     0.026 A 
ATOM     22  C   UNL d   1      58.372   0.269  31.315  0.00  0.00     0.020 A 
BRANCH  20  23
ATOM     23  O   UNL d   1      59.537   0.403  29.469  0.00  0.00    -0.328 OA
ATOM     24  C   UNL d   1      60.271   0.642  29.757  0.00  0.00     0.181 C 
ENDBRANCH  20  23
ENDBRANCH   1  17
TORSDOF 7
ENDMDL
