MODEL 1
REMARK VINA RESULT:      -6.8      0.000      0.000
REMARK  5 active torsions:
REMARK  status: ('A' for Active; 'I' for Inactive)
REMARK    1  A    between atoms: C_2  and  S_1 
REMARK    2  A    between atoms: N_3  and  S_1 
REMARK    3  A    between atoms: C_18  and  N_7 
REMARK    4  A    between atoms: O_27  and  C_9 
REMARK    5  A    between atoms: C_17  and  C_18 
ROOT
ATOM      1  N   UNL d   1     -47.893  13.131  22.616  0.00  0.00    -0.226 N 
ATOM      2  N   UNL d   1     -46.306  13.483  22.307  0.00  0.00    -0.300 N 
ATOM      3  C   UNL d   1     -47.559  12.938  21.880  0.00  0.00     0.111 A 
ATOM      4  C   UNL d   1     -47.428  13.500  23.193  0.00  0.00     0.111 A 
ATOM      5  C   UNL d   1     -46.764  13.117  21.732  0.00  0.00     0.100 A 
ATOM      6  C   UNL d   1     -46.641  13.676  23.043  0.00  0.00     0.100 A 
ENDROOT
BRANCH   1   7
ATOM      7  S   UNL d   1     -48.684  12.953  22.766  0.00  0.00     0.273 S 
ATOM      8  O   UNL d   1     -48.631  13.355  23.492  0.00  0.00    -0.200 OA
ATOM      9  O   UNL d   1     -48.737  12.555  22.047  0.00  0.00    -0.200 OA
BRANCH   7  10
ATOM     10  C   UNL d   1     -49.471  12.777  22.917  0.00  0.00     0.128 A 
ATOM     11  C   UNL d   1     -49.683  12.042  23.233  0.00  0.00     0.044 A 
ATOM     12  C   UNL d   1     -50.473  11.863  23.385  0.00  0.00     0.141 A 
ATOM     13  F   UNL d   1     -50.676  11.136  23.697  0.00  0.00    -0.204 F 
ATOM     14  C   UNL d   1     -51.063  12.426  23.221  0.00  0.00     0.032 A 
ATOM     15  C   UNL d   1     -50.854  13.158  22.907  0.00  0.00     0.027 A 
ATOM     16  C   UNL d   1     -50.061  13.340  22.752  0.00  0.00     0.106 A 
BRANCH  16  17
ATOM     17  O   UNL d   1     -49.860  14.074  22.438  0.00  0.00    -0.327 OA
ATOM     18  C   UNL d   1     -50.444  14.627  22.281  0.00  0.00     0.181 C 
ENDBRANCH  16  17
ENDBRANCH   7  10
ENDBRANCH   1   7
BRANCH   2  19
ATOM     19  C   UNL d   1     -45.515  13.661  22.157  0.00  0.00     0.080 C 
BRANCH  19  20
ATOM     20  C   UNL d   1     -44.936  13.071  22.204  0.00  0.00     0.020 A 
ATOM     21  C   UNL d   1     -44.987  12.484  22.776  0.00  0.00     0.028 A 
ATOM     22  C   UNL d   1     -44.409  11.898  22.822  0.00  0.00     0.119 A 
ATOM     23  O   UNL d   1     -44.312  11.251  23.323  0.00  0.00    -0.300 OA
ATOM     24  C   UNL d   1     -43.773  11.902  22.287  0.00  0.00     0.119 A 
ATOM     25  C   UNL d   1     -43.622  10.856  23.102  0.00  0.00     0.304 A 
ATOM     26  O   UNL d   1     -43.293  11.257  22.467  0.00  0.00    -0.300 OA
ATOM     27  C   UNL d   1     -43.724  12.493  21.714  0.00  0.00     0.026 A 
ATOM     28  C   UNL d   1     -44.299  13.076  21.670  0.00  0.00     0.004 A 
ENDBRANCH  19  20
ENDBRANCH   2  19
TORSDOF 5
ENDMDL
MODEL 2
REMARK VINA RESULT:      -6.3      8.645     10.196
REMARK  5 active torsions:
REMARK  status: ('A' for Active; 'I' for Inactive)
REMARK    1  A    between atoms: C_2  and  S_1 
REMARK    2  A    between atoms: N_3  and  S_1 
REMARK    3  A    between atoms: C_18  and  N_7 
REMARK    4  A    between atoms: O_27  and  C_9 
REMARK    5  A    between atoms: C_17  and  C_18 
ROOT
ATOM      1  N   UNL d   1     -39.235  14.832  18.373  0.00  0.00    -0.226 N 
ATOM      2  N   UNL d   1     -39.871  15.168  19.863  0.00  0.00    -0.300 N 
ATOM      3  C   UNL d   1     -38.883  15.409  18.857  0.00  0.00     0.111 A 
ATOM      4  C   UNL d   1     -39.905  14.427  18.641  0.00  0.00     0.111 A 
ATOM      5  C   UNL d   1     -39.207  15.572  19.602  0.00  0.00     0.100 A 
ATOM      6  C   UNL d   1     -40.223  14.591  19.379  0.00  0.00     0.100 A 
ENDROOT
BRANCH   1   7
ATOM      7  S   UNL d   1     -38.914  14.669  17.632  0.00  0.00     0.273 S 
ATOM      8  O   UNL d   1     -38.167  14.915  17.907  0.00  0.00    -0.200 OA
ATOM      9  O   UNL d   1     -39.651  14.426  17.359  0.00  0.00    -0.200 OA
BRANCH   7  10
ATOM     10  C   UNL d   1     -38.591  14.507  16.895  0.00  0.00     0.128 A 
ATOM     11  C   UNL d   1     -38.581  15.089  16.305  0.00  0.00     0.044 A 
ATOM     12  C   UNL d   1     -38.258  14.928  15.564  0.00  0.00     0.141 A 
ATOM     13  F   UNL d   1     -38.250  15.506  14.986  0.00  0.00    -0.204 F 
ATOM     14  C   UNL d   1     -37.940  14.177  15.406  0.00  0.00     0.032 A 
ATOM     15  C   UNL d   1     -37.950  13.597  15.991  0.00  0.00     0.027 A 
ATOM     16  C   UNL d   1     -38.273  13.755  16.737  0.00  0.00     0.106 A 
BRANCH  16  17
ATOM     17  O   UNL d   1     -38.279  13.170  17.317  0.00  0.00    -0.327 OA
ATOM     18  C   UNL d   1     -37.940  12.440  17.167  0.00  0.00     0.181 C 
ENDBRANCH  16  17
ENDBRANCH   7  10
ENDBRANCH   1   7
BRANCH   2  19
ATOM     19  C   UNL d   1     -40.193  15.332  20.605  0.00  0.00     0.080 C 
BRANCH  19  20
ATOM     20  C   UNL d   1     -39.791  15.112  21.294  0.00  0.00     0.020 A 
ATOM     21  C   UNL d   1     -39.739  14.321  21.509  0.00  0.00     0.028 A 
ATOM     22  C   UNL d   1     -39.338  14.103  22.196  0.00  0.00     0.119 A 
ATOM     23  O   UNL d   1     -39.196  13.371  22.548  0.00  0.00    -0.300 OA
ATOM     24  C   UNL d   1     -38.987  14.686  22.673  0.00  0.00     0.119 A 
ATOM     25  C   UNL d   1     -38.760  13.499  23.238  0.00  0.00     0.304 A 
ATOM     26  O   UNL d   1     -38.634  14.306  23.311  0.00  0.00    -0.300 OA
ATOM     27  C   UNL d   1     -39.042  15.480  22.454  0.00  0.00     0.026 A 
ATOM     28  C   UNL d   1     -39.440  15.695  21.771  0.00  0.00     0.004 A 
ENDBRANCH  19  20
ENDBRANCH   2  19
TORSDOF 5
ENDMDL
MODEL 3
REMARK VINA RESULT:      -5.9      1.211      1.867
REMARK  5 active torsions:
REMARK  status: ('A' for Active; 'I' for Inactive)
REMARK    1  A    between atoms: C_2  and  S_1 
REMARK    2  A    between atoms: N_3  and  S_1 
REMARK    3  A    between atoms: C_18  and  N_7 
REMARK    4  A    between atoms: O_27  and  C_9 
REMARK    5  A    between atoms: C_17  and  C_18 
ROOT
ATOM      1  N   UNL d   1     -47.842  13.652  22.538  0.00  0.00    -0.226 N 
ATOM      2  N   UNL d   1     -46.251  13.200  22.463  0.00  0.00    -0.300 N 
ATOM      3  C   UNL d   1     -47.332  13.812  23.175  0.00  0.00     0.111 A 
ATOM      4  C   UNL d   1     -47.549  13.266  21.867  0.00  0.00     0.111 A 
ATOM      5  C   UNL d   1     -46.537  13.583  23.131  0.00  0.00     0.100 A 
ATOM      6  C   UNL d   1     -46.761  13.041  21.827  0.00  0.00     0.100 A 
ENDROOT
BRANCH   1   7
ATOM      7  S   UNL d   1     -48.632  13.879  22.580  0.00  0.00     0.273 S 
ATOM      8  O   UNL d   1     -48.530  14.069  23.384  0.00  0.00    -0.200 OA
ATOM      9  O   UNL d   1     -48.735  13.692  21.785  0.00  0.00    -0.200 OA
BRANCH   7  10
ATOM     10  C   UNL d   1     -49.420  14.106  22.625  0.00  0.00     0.128 A 
ATOM     11  C   UNL d   1     -49.639  14.890  22.470  0.00  0.00     0.044 A 
ATOM     12  C   UNL d   1     -50.430  15.119  22.514  0.00  0.00     0.141 A 
ATOM     13  F   UNL d   1     -50.640  15.894  22.361  0.00  0.00    -0.204 F 
ATOM     14  C   UNL d   1     -51.012  14.561  22.715  0.00  0.00     0.032 A 
ATOM     15  C   UNL d   1     -50.795  13.782  22.869  0.00  0.00     0.027 A 
ATOM     16  C   UNL d   1     -50.002  13.548  22.826  0.00  0.00     0.106 A 
BRANCH  16  17
ATOM     17  O   UNL d   1     -49.793  12.766  22.981  0.00  0.00    -0.327 OA
ATOM     18  C   UNL d   1     -50.354  12.239  23.263  0.00  0.00     0.181 C 
ENDBRANCH  16  17
ENDBRANCH   7  10
ENDBRANCH   1   7
BRANCH   2  19
ATOM     19  C   UNL d   1     -45.459  12.973  22.422  0.00  0.00     0.080 C 
BRANCH  19  20
ATOM     20  C   UNL d   1     -45.208  12.260  22.759  0.00  0.00     0.020 A 
ATOM     21  C   UNL d   1     -44.439  11.997  22.648  0.00  0.00     0.028 A 
ATOM     22  C   UNL d   1     -44.190  11.286  22.985  0.00  0.00     0.119 A 
ATOM     23  O   UNL d   1     -43.469  10.887  22.971  0.00  0.00    -0.300 OA
ATOM     24  C   UNL d   1     -44.721  10.836  23.438  0.00  0.00     0.119 A 
ATOM     25  C   UNL d   1     -43.551  10.194  23.413  0.00  0.00     0.304 A 
ATOM     26  O   UNL d   1     -44.320  10.166  23.698  0.00  0.00    -0.300 OA
ATOM     27  C   UNL d   1     -45.494  11.103  23.549  0.00  0.00     0.026 A 
ATOM     28  C   UNL d   1     -45.739  11.810  23.213  0.00  0.00     0.004 A 
ENDBRANCH  19  20
ENDBRANCH   2  19
TORSDOF 5
ENDMDL
MODEL 4
REMARK VINA RESULT:      -5.5      8.176      9.640
REMARK  5 active torsions:
REMARK  status: ('A' for Active; 'I' for Inactive)
REMARK    1  A    between atoms: C_2  and  S_1 
REMARK    2  A    between atoms: N_3  and  S_1 
REMARK    3  A    between atoms: C_18  and  N_7 
REMARK    4  A    between atoms: O_27  and  C_9 
REMARK    5  A    between atoms: C_17  and  C_18 
ROOT
ATOM      1  N   UNL d   1     -39.768  14.542  19.959  0.00  0.00    -0.226 N 
ATOM      2  N   UNL d   1     -40.165  14.787  18.372  0.00  0.00    -0.300 N 
ATOM      3  C   UNL d   1     -40.146  15.245  19.727  0.00  0.00     0.111 A 
ATOM      4  C   UNL d   1     -39.591  13.966  19.391  0.00  0.00     0.111 A 
ATOM      5  C   UNL d   1     -40.342  15.361  18.931  0.00  0.00     0.100 A 
ATOM      6  C   UNL d   1     -39.787  14.084  18.604  0.00  0.00     0.100 A 
ENDROOT
BRANCH   1   7
ATOM      7  S   UNL d   1     -39.572  14.425  20.751  0.00  0.00     0.273 S 
ATOM      8  O   UNL d   1     -38.846  14.092  20.516  0.00  0.00    -0.200 OA
ATOM      9  O   UNL d   1     -40.289  14.755  20.983  0.00  0.00    -0.200 OA
BRANCH   7  10
ATOM     10  C   UNL d   1     -39.374  14.308  21.539  0.00  0.00     0.128 A 
ATOM     11  C   UNL d   1     -39.685  13.663  21.956  0.00  0.00     0.044 A 
ATOM     12  C   UNL d   1     -39.487  13.543  22.748  0.00  0.00     0.141 A 
ATOM     13  F   UNL d   1     -39.797  12.905  23.155  0.00  0.00    -0.204 F 
ATOM     14  C   UNL d   1     -38.974  14.072  23.130  0.00  0.00     0.032 A 
ATOM     15  C   UNL d   1     -38.664  14.714  22.716  0.00  0.00     0.027 A 
ATOM     16  C   UNL d   1     -38.861  14.837  21.921  0.00  0.00     0.106 A 
BRANCH  16  17
ATOM     17  O   UNL d   1     -38.547  15.481  21.514  0.00  0.00    -0.327 OA
ATOM     18  C   UNL d   1     -37.942  15.922  21.846  0.00  0.00     0.181 C 
ENDBRANCH  16  17
ENDBRANCH   7  10
ENDBRANCH   1   7
BRANCH   2  19
ATOM     19  C   UNL d   1     -40.361  14.904  17.579  0.00  0.00     0.080 C 
BRANCH  19  20
ATOM     20  C   UNL d   1     -39.769  15.014  17.011  0.00  0.00     0.020 A 
ATOM     21  C   UNL d   1     -39.468  14.372  16.597  0.00  0.00     0.028 A 
ATOM     22  C   UNL d   1     -38.878  14.483  16.031  0.00  0.00     0.119 A 
ATOM     23  O   UNL d   1     -38.476  13.959  15.538  0.00  0.00    -0.300 OA
ATOM     24  C   UNL d   1     -38.588  15.247  15.881  0.00  0.00     0.119 A 
ATOM     25  C   UNL d   1     -37.940  14.394  15.085  0.00  0.00     0.304 A 
ATOM     26  O   UNL d   1     -38.011  15.183  15.297  0.00  0.00    -0.300 OA
ATOM     27  C   UNL d   1     -38.892  15.889  16.299  0.00  0.00     0.026 A 
ATOM     28  C   UNL d   1     -39.479  15.778  16.861  0.00  0.00     0.004 A 
ENDBRANCH  19  20
ENDBRANCH   2  19
TORSDOF 5
ENDMDL
MODEL 5
REMARK VINA RESULT:      -5.4      1.909      5.521
REMARK  5 active torsions:
REMARK  status: ('A' for Active; 'I' for Inactive)
REMARK    1  A    between atoms: C_2  and  S_1 
REMARK    2  A    between atoms: N_3  and  S_1 
REMARK    3  A    between atoms: C_18  and  N_7 
REMARK    4  A    between atoms: O_27  and  C_9 
REMARK    5  A    between atoms: C_17  and  C_18 
ROOT
ATOM      1  N   UNL d   1     -46.928  12.574  22.868  0.00  0.00    -0.226 N 
ATOM      2  N   UNL d   1     -48.538  12.672  23.239  0.00  0.00    -0.300 N 
ATOM      3  C   UNL d   1     -47.484  12.138  22.431  0.00  0.00     0.111 A 
ATOM      4  C   UNL d   1     -47.184  13.057  23.490  0.00  0.00     0.111 A 
ATOM      5  C   UNL d   1     -48.288  12.192  22.622  0.00  0.00     0.100 A 
ATOM      6  C   UNL d   1     -47.981  13.108  23.676  0.00  0.00     0.100 A 
ENDROOT
BRANCH   1   7
ATOM      7  S   UNL d   1     -46.128  12.522  22.680  0.00  0.00     0.273 S 
ATOM      8  O   UNL d   1     -45.938  12.609  23.486  0.00  0.00    -0.200 OA
ATOM      9  O   UNL d   1     -46.314  12.435  21.883  0.00  0.00    -0.200 OA
BRANCH   7  10
ATOM     10  C   UNL d   1     -45.330  12.470  22.495  0.00  0.00     0.128 A 
ATOM     11  C   UNL d   1     -44.971  13.048  22.022  0.00  0.00     0.044 A 
ATOM     12  C   UNL d   1     -44.170  12.998  21.835  0.00  0.00     0.141 A 
ATOM     13  F   UNL d   1     -43.821  13.571  21.369  0.00  0.00    -0.204 F 
ATOM     14  C   UNL d   1     -43.717  12.363  22.123  0.00  0.00     0.032 A 
ATOM     15  C   UNL d   1     -44.073  11.787  22.592  0.00  0.00     0.027 A 
ATOM     16  C   UNL d   1     -44.877  11.835  22.782  0.00  0.00     0.106 A 
BRANCH  16  17
ATOM     17  O   UNL d   1     -45.225  11.254  23.253  0.00  0.00    -0.327 OA
ATOM     18  C   UNL d   1     -44.779  10.623  23.523  0.00  0.00     0.181 C 
ENDBRANCH  16  17
ENDBRANCH   7  10
ENDBRANCH   1   7
BRANCH   2  19
ATOM     19  C   UNL d   1     -49.339  12.724  23.427  0.00  0.00     0.080 C 
BRANCH  19  20
ATOM     20  C   UNL d   1     -49.788  13.374  23.179  0.00  0.00     0.020 A 
ATOM     21  C   UNL d   1     -49.770  14.076  23.603  0.00  0.00     0.028 A 
ATOM     22  C   UNL d   1     -50.217  14.723  23.355  0.00  0.00     0.119 A 
ATOM     23  O   UNL d   1     -50.311  15.484  23.659  0.00  0.00    -0.300 OA
ATOM     24  C   UNL d   1     -50.688  14.663  22.673  0.00  0.00     0.119 A 
ATOM     25  C   UNL d   1     -50.836  15.893  23.169  0.00  0.00     0.304 A 
ATOM     26  O   UNL d   1     -51.064  15.387  22.566  0.00  0.00    -0.300 OA
ATOM     27  C   UNL d   1     -50.704  13.956  22.249  0.00  0.00     0.026 A 
ATOM     28  C   UNL d   1     -50.258  13.313  22.497  0.00  0.00     0.004 A 
ENDBRANCH  19  20
ENDBRANCH   2  19
TORSDOF 5
ENDMDL
