MODEL 1
REMARK VINA RESULT:      58.5      0.000      0.000
REMARK  6 active torsions:
REMARK  status: ('A' for Active; 'I' for Inactive)
REMARK    1  A    between atoms: N_11  and  C_3 
REMARK    2  A    between atoms: C_10  and  C_5 
REMARK    3  A    between atoms: C_17  and  N_11 
REMARK    4  A    between atoms: N_13  and  C_18 
REMARK    5  A    between atoms: C_16  and  C_17 
REMARK    6  A    between atoms: C_18  and  C_16 
ROOT
ATOM      1  N   UNL d   1      45.260 -16.812  42.336  0.00  0.00    -0.184 N 
ATOM      2  C   UNL d   1      45.585 -17.575  42.336  0.00  0.00     0.168 A 
ATOM      3  C   UNL d   1      45.370 -16.331  42.993  0.00  0.00     0.217 A 
ATOM      4  N   UNL d   1      44.739 -17.039  41.047  0.00  0.00    -0.162 NA
ATOM      5  C   UNL d   1      45.488 -18.064  41.699  0.00  0.00     0.055 A 
ATOM      6  N   UNL d   1      46.012 -17.841  42.993  0.00  0.00    -0.227 NA
ATOM      7  C   UNL d   1      45.791 -16.591  43.642  0.00  0.00     0.066 A 
ATOM      8  C   UNL d   1      45.062 -17.798  41.047  0.00  0.00     0.104 A 
ATOM      9  C   UNL d   1      46.114 -17.350  43.642  0.00  0.00     0.087 A 
ATOM     10  C   UNL d   1      45.891 -16.090  44.294  0.00  0.00     0.006 A 
ATOM     11  C   UNL d   1      44.958 -18.276  40.405  0.00  0.00     0.023 C 
ATOM     12  C   UNL d   1      46.540 -17.617  44.294  0.00  0.00     0.019 A 
ATOM     13  C   UNL d   1      46.324 -16.365  44.955  0.00  0.00     0.000 A 
ATOM     14  C   UNL d   1      46.647 -17.124  44.955  0.00  0.00     0.002 A 
ENDROOT
BRANCH   3  15
ATOM     15  N   UNL d   1      45.042 -15.555  42.997  0.00  0.00    -0.380 NA
BRANCH  15  16
ATOM     16  C   UNL d   1      44.699 -14.792  43.071  0.00  0.00     0.164 C 
BRANCH  16  17
ATOM     17  C   UNL d   1      44.918 -14.311  43.726  0.00  0.00     0.054 C 
BRANCH  17  18
ATOM     18  C   UNL d   1      44.806 -13.467  43.688  0.00  0.00     0.083 C 
BRANCH  18  19
ATOM     19  N   UNL d   1      45.297 -12.959  44.146  0.00  0.00    -0.300 N 
ATOM     20  C   UNL d   1      45.066 -12.285  43.710  0.00  0.00     0.100 C 
ATOM     21  C   UNL d   1      45.850 -12.861  44.778  0.00  0.00     0.100 C 
ENDBRANCH  18  19
ENDBRANCH  17  18
ENDBRANCH  16  17
ENDBRANCH  15  16
ENDBRANCH   3  15
BRANCH   5  22
ATOM     22  C   UNL d   1      45.811 -18.824  41.699  0.00  0.00     0.004 A 
ATOM     23  C   UNL d   1      46.324 -19.040  41.105  0.00  0.00     0.000 A 
ATOM     24  C   UNL d   1      46.647 -19.799  41.105  0.00  0.00     0.000 A 
ATOM     25  C   UNL d   1      46.451 -20.330  41.699  0.00  0.00     0.000 A 
ATOM     26  C   UNL d   1      45.933 -20.103  42.292  0.00  0.00     0.000 A 
ATOM     27  C   UNL d   1      45.610 -19.343  42.292  0.00  0.00     0.000 A 
ENDBRANCH   5  22
TORSDOF 6
ENDMDL
