MODEL 1
REMARK VINA RESULT:      -7.2      0.000      0.000
REMARK  4 active torsions:
REMARK  status: ('A' for Active; 'I' for Inactive)
REMARK    1  A    between atoms: C_2  and  S_1 
REMARK    2  A    between atoms: N_3  and  S_1 
REMARK    3  A    between atoms: C_18  and  N_8 
REMARK    4  A    between atoms: C_21  and  C_18 
ROOT
ATOM      1  S   UNL d   1     -48.311  12.985  22.690  0.00  0.00     0.271 S 
ATOM      2  O   UNL d   1     -48.660  12.841  23.424  0.00  0.00    -0.200 OA
ATOM      3  O   UNL d   1     -47.965  13.130  21.956  0.00  0.00    -0.200 OA
ENDROOT
BRANCH   1   4
ATOM      4  C   UNL d   1     -49.000  13.352  22.425  0.00  0.00     0.104 A 
ATOM      5  C   UNL d   1     -49.108  14.169  22.555  0.00  0.00     0.012 A 
ATOM      6  C   UNL d   1     -49.795  14.543  22.292  0.00  0.00     0.001 A 
ATOM      7  C   UNL d   1     -48.525  14.604  22.947  0.00  0.00     0.001 C 
ATOM      8  C   UNL d   1     -50.373  14.104  21.902  0.00  0.00     0.000 A 
ATOM      9  C   UNL d   1     -50.267  13.293  21.773  0.00  0.00     0.001 A 
ATOM     10  C   UNL d   1     -51.061  14.475  21.638  0.00  0.00     0.000 C 
ATOM     11  C   UNL d   1     -49.578  12.921  22.037  0.00  0.00     0.012 A 
ATOM     12  C   UNL d   1     -49.475  12.112  21.906  0.00  0.00     0.001 C 
ENDBRANCH   1   4
BRANCH   1  13
ATOM     13  N   UNL d   1     -47.616  12.620  22.944  0.00  0.00    -0.226 N 
ATOM     14  C   UNL d   1     -46.883  12.913  22.691  0.00  0.00     0.111 A 
ATOM     15  C   UNL d   1     -46.188  12.548  22.945  0.00  0.00     0.100 A 
ATOM     16  N   UNL d   1     -46.220  11.896  23.447  0.00  0.00    -0.297 N 
ATOM     17  C   UNL d   1     -46.956  11.606  23.698  0.00  0.00     0.100 A 
ATOM     18  C   UNL d   1     -47.655  11.965  23.449  0.00  0.00     0.111 A 
BRANCH  16  19
ATOM     19  C   UNL d   1     -45.523  11.535  23.698  0.00  0.00     0.126 C 
BRANCH  19  20
ATOM     20  C   UNL d   1     -45.396  10.733  23.554  0.00  0.00     0.253 C 
ATOM     21  O   UNL d   1     -44.640  10.413  23.629  0.00  0.00    -0.281 OA
ENDBRANCH  19  20
ENDBRANCH  16  19
ENDBRANCH   1  13
TORSDOF 4
ENDMDL
MODEL 2
REMARK VINA RESULT:      -7.2      1.333      4.256
REMARK  4 active torsions:
REMARK  status: ('A' for Active; 'I' for Inactive)
REMARK    1  A    between atoms: C_2  and  S_1 
REMARK    2  A    between atoms: N_3  and  S_1 
REMARK    3  A    between atoms: C_18  and  N_8 
REMARK    4  A    between atoms: C_21  and  C_18 
ROOT
ATOM      1  S   UNL d   1     -47.720  12.894  22.932  0.00  0.00     0.271 S 
ATOM      2  O   UNL d   1     -47.765  12.590  22.166  0.00  0.00    -0.200 OA
ATOM      3  O   UNL d   1     -47.672  13.196  23.698  0.00  0.00    -0.200 OA
ENDROOT
BRANCH   1   4
ATOM      4  C   UNL d   1     -47.138  12.342  23.125  0.00  0.00     0.104 A 
ATOM      5  C   UNL d   1     -46.339  12.509  22.955  0.00  0.00     0.012 A 
ATOM      6  C   UNL d   1     -45.752  11.962  23.146  0.00  0.00     0.001 A 
ATOM      7  C   UNL d   1     -46.136  13.224  22.594  0.00  0.00     0.001 C 
ATOM      8  C   UNL d   1     -45.960  11.251  23.505  0.00  0.00     0.000 A 
ATOM      9  C   UNL d   1     -46.754  11.084  23.675  0.00  0.00     0.001 A 
ATOM     10  C   UNL d   1     -45.376  10.701  23.698  0.00  0.00     0.000 C 
ATOM     11  C   UNL d   1     -47.339  11.634  23.483  0.00  0.00     0.012 A 
ATOM     12  C   UNL d   1     -48.129  11.465  23.654  0.00  0.00     0.001 C 
ENDBRANCH   1   4
BRANCH   1  13
ATOM     13  N   UNL d   1     -48.301  13.451  22.750  0.00  0.00    -0.226 N 
ATOM     14  C   UNL d   1     -48.692  13.412  22.021  0.00  0.00     0.111 A 
ATOM     15  C   UNL d   1     -49.273  13.969  21.839  0.00  0.00     0.100 A 
ATOM     16  N   UNL d   1     -49.464  14.561  22.378  0.00  0.00    -0.297 N 
ATOM     17  C   UNL d   1     -49.071  14.596  23.107  0.00  0.00     0.100 A 
ATOM     18  C   UNL d   1     -48.489  14.043  23.297  0.00  0.00     0.111 A 
BRANCH  16  19
ATOM     19  C   UNL d   1     -50.046  15.115  22.192  0.00  0.00     0.126 C 
BRANCH  19  20
ATOM     20  C   UNL d   1     -50.749  15.138  22.621  0.00  0.00     0.253 C 
ATOM     21  O   UNL d   1     -51.064  15.861  22.863  0.00  0.00    -0.281 OA
ENDBRANCH  19  20
ENDBRANCH  16  19
ENDBRANCH   1  13
TORSDOF 4
ENDMDL
MODEL 3
REMARK VINA RESULT:      -7.0      1.558      1.733
REMARK  4 active torsions:
REMARK  status: ('A' for Active; 'I' for Inactive)
REMARK    1  A    between atoms: C_2  and  S_1 
REMARK    2  A    between atoms: N_3  and  S_1 
REMARK    3  A    between atoms: C_18  and  N_8 
REMARK    4  A    between atoms: C_21  and  C_18 
ROOT
ATOM      1  S   UNL d   1     -48.110  13.950  22.755  0.00  0.00     0.271 S 
ATOM      2  O   UNL d   1     -48.310  13.821  21.965  0.00  0.00    -0.200 OA
ATOM      3  O   UNL d   1     -47.913  14.080  23.545  0.00  0.00    -0.200 OA
ENDROOT
BRANCH   1   4
ATOM      4  C   UNL d   1     -48.851  14.285  22.896  0.00  0.00     0.104 A 
ATOM      5  C   UNL d   1     -48.977  15.092  22.728  0.00  0.00     0.012 A 
ATOM      6  C   UNL d   1     -49.715  15.434  22.867  0.00  0.00     0.001 A 
ATOM      7  C   UNL d   1     -48.361  15.549  22.422  0.00  0.00     0.001 C 
ATOM      8  C   UNL d   1     -50.325  14.973  23.172  0.00  0.00     0.000 A 
ATOM      9  C   UNL d   1     -50.201  14.171  23.340  0.00  0.00     0.001 A 
ATOM     10  C   UNL d   1     -51.064  15.311  23.312  0.00  0.00     0.000 C 
ATOM     11  C   UNL d   1     -49.461  13.831  23.200  0.00  0.00     0.012 A 
ATOM     12  C   UNL d   1     -49.340  13.032  23.367  0.00  0.00     0.001 C 
ENDBRANCH   1   4
BRANCH   1  13
ATOM     13  N   UNL d   1     -47.366  13.617  22.626  0.00  0.00    -0.226 N 
ATOM     14  C   UNL d   1     -46.777  13.694  23.202  0.00  0.00     0.111 A 
ATOM     15  C   UNL d   1     -46.033  13.361  23.073  0.00  0.00     0.100 A 
ATOM     16  N   UNL d   1     -45.876  12.955  22.375  0.00  0.00    -0.297 N 
ATOM     17  C   UNL d   1     -46.468  12.879  21.800  0.00  0.00     0.100 A 
ATOM     18  C   UNL d   1     -47.215  13.209  21.921  0.00  0.00     0.111 A 
BRANCH  16  19
ATOM     19  C   UNL d   1     -45.130  12.623  22.251  0.00  0.00     0.126 C 
BRANCH  19  20
ATOM     20  C   UNL d   1     -44.576  13.014  21.783  0.00  0.00     0.253 C 
ATOM     21  O   UNL d   1     -43.827  12.689  21.667  0.00  0.00    -0.281 OA
ENDBRANCH  19  20
ENDBRANCH  16  19
ENDBRANCH   1  13
TORSDOF 4
ENDMDL
MODEL 4
REMARK VINA RESULT:      -6.9      1.475      1.907
REMARK  4 active torsions:
REMARK  status: ('A' for Active; 'I' for Inactive)
REMARK    1  A    between atoms: C_2  and  S_1 
REMARK    2  A    between atoms: N_3  and  S_1 
REMARK    3  A    between atoms: C_18  and  N_8 
REMARK    4  A    between atoms: C_21  and  C_18 
ROOT
ATOM      1  S   UNL d   1     -47.908  12.876  22.805  0.00  0.00     0.271 S 
ATOM      2  O   UNL d   1     -48.078  12.582  22.053  0.00  0.00    -0.200 OA
ATOM      3  O   UNL d   1     -47.742  13.169  23.559  0.00  0.00    -0.200 OA
ENDROOT
BRANCH   1   4
ATOM      4  C   UNL d   1     -48.696  12.777  23.031  0.00  0.00     0.104 A 
ATOM      5  C   UNL d   1     -49.240  13.397  22.907  0.00  0.00     0.012 A 
ATOM      6  C   UNL d   1     -50.029  13.306  23.130  0.00  0.00     0.001 A 
ATOM      7  C   UNL d   1     -48.987  14.104  22.561  0.00  0.00     0.001 C 
ATOM      8  C   UNL d   1     -50.275  12.600  23.474  0.00  0.00     0.000 A 
ATOM      9  C   UNL d   1     -49.735  11.983  23.597  0.00  0.00     0.001 A 
ATOM     10  C   UNL d   1     -51.064  12.505  23.698  0.00  0.00     0.000 C 
ATOM     11  C   UNL d   1     -48.946  12.077  23.373  0.00  0.00     0.012 A 
ATOM     12  C   UNL d   1     -48.410  11.461  23.497  0.00  0.00     0.001 C 
ENDBRANCH   1   4
BRANCH   1  13
ATOM     13  N   UNL d   1     -47.118  12.979  22.592  0.00  0.00    -0.226 N 
ATOM     14  C   UNL d   1     -46.583  13.294  23.140  0.00  0.00     0.111 A 
ATOM     15  C   UNL d   1     -45.793  13.398  22.927  0.00  0.00     0.100 A 
ATOM     16  N   UNL d   1     -45.535  13.188  22.174  0.00  0.00    -0.297 N 
ATOM     17  C   UNL d   1     -46.074  12.873  21.627  0.00  0.00     0.100 A 
ATOM     18  C   UNL d   1     -46.866  12.766  21.833  0.00  0.00     0.111 A 
BRANCH  16  19
ATOM     19  C   UNL d   1     -44.744  13.293  21.965  0.00  0.00     0.126 C 
BRANCH  19  20
ATOM     20  C   UNL d   1     -44.261  12.640  21.832  0.00  0.00     0.253 C 
ATOM     21  O   UNL d   1     -43.482  12.744  21.579  0.00  0.00    -0.281 OA
ENDBRANCH  19  20
ENDBRANCH  16  19
ENDBRANCH   1  13
TORSDOF 4
ENDMDL
MODEL 5
REMARK VINA RESULT:      -6.4      8.233      9.751
REMARK  4 active torsions:
REMARK  status: ('A' for Active; 'I' for Inactive)
REMARK    1  A    between atoms: C_2  and  S_1 
REMARK    2  A    between atoms: N_3  and  S_1 
REMARK    3  A    between atoms: C_18  and  N_8 
REMARK    4  A    between atoms: C_21  and  C_18 
ROOT
ATOM      1  S   UNL d   1     -39.994  14.822  19.485  0.00  0.00     0.271 S 
ATOM      2  O   UNL d   1     -39.830  14.052  19.237  0.00  0.00    -0.200 OA
ATOM      3  O   UNL d   1     -40.157  15.590  19.738  0.00  0.00    -0.200 OA
ENDROOT
BRANCH   1   4
ATOM      4  C   UNL d   1     -39.683  14.656  20.231  0.00  0.00     0.104 A 
ATOM      5  C   UNL d   1     -40.192  14.410  20.844  0.00  0.00     0.012 A 
ATOM      6  C   UNL d   1     -39.888  14.242  21.593  0.00  0.00     0.001 A 
ATOM      7  C   UNL d   1     -41.002  14.334  20.701  0.00  0.00     0.001 C 
ATOM      8  C   UNL d   1     -39.080  14.319  21.730  0.00  0.00     0.000 A 
ATOM      9  C   UNL d   1     -38.573  14.563  21.121  0.00  0.00     0.001 A 
ATOM     10  C   UNL d   1     -38.772  14.152  22.477  0.00  0.00     0.000 C 
ATOM     11  C   UNL d   1     -38.880  14.730  20.373  0.00  0.00     0.012 A 
ATOM     12  C   UNL d   1     -38.373  14.974  19.769  0.00  0.00     0.001 C 
ENDBRANCH   1   4
BRANCH   1  13
ATOM     13  N   UNL d   1     -40.308  15.000  18.743  0.00  0.00    -0.226 N 
ATOM     14  C   UNL d   1     -40.305  14.424  18.148  0.00  0.00     0.111 A 
ATOM     15  C   UNL d   1     -40.618  14.603  17.406  0.00  0.00     0.100 A 
ATOM     16  N   UNL d   1     -40.933  15.348  17.257  0.00  0.00    -0.297 N 
ATOM     17  C   UNL d   1     -40.935  15.922  17.855  0.00  0.00     0.100 A 
ATOM     18  C   UNL d   1     -40.623  15.752  18.600  0.00  0.00     0.111 A 
BRANCH  16  19
ATOM     19  C   UNL d   1     -41.246  15.522  16.513  0.00  0.00     0.126 C 
BRANCH  19  20
ATOM     20  C   UNL d   1     -41.963  15.922  16.449  0.00  0.00     0.253 C 
ATOM     21  O   UNL d   1     -42.436  15.820  15.780  0.00  0.00    -0.281 OA
ENDBRANCH  19  20
ENDBRANCH  16  19
ENDBRANCH   1  13
TORSDOF 4
ENDMDL
MODEL 6
REMARK VINA RESULT:      -5.6      8.900     10.441
REMARK  4 active torsions:
REMARK  status: ('A' for Active; 'I' for Inactive)
REMARK    1  A    between atoms: C_2  and  S_1 
REMARK    2  A    between atoms: N_3  and  S_1 
REMARK    3  A    between atoms: C_18  and  N_8 
REMARK    4  A    between atoms: C_21  and  C_18 
ROOT
ATOM      1  S   UNL d   1     -39.337  14.450  17.916  0.00  0.00     0.271 S 
ATOM      2  O   UNL d   1     -38.659  14.861  18.144  0.00  0.00    -0.200 OA
ATOM      3  O   UNL d   1     -40.013  14.038  17.685  0.00  0.00    -0.200 OA
ENDROOT
BRANCH   1   4
ATOM      4  C   UNL d   1     -38.985  14.253  17.196  0.00  0.00     0.104 A 
ATOM      5  C   UNL d   1     -39.063  14.768  16.545  0.00  0.00     0.012 A 
ATOM      6  C   UNL d   1     -38.715  14.578  15.822  0.00  0.00     0.001 A 
ATOM      7  C   UNL d   1     -39.492  15.471  16.625  0.00  0.00     0.001 C 
ATOM      8  C   UNL d   1     -38.290  13.877  15.748  0.00  0.00     0.000 A 
ATOM      9  C   UNL d   1     -38.211  13.364  16.394  0.00  0.00     0.001 A 
ATOM     10  C   UNL d   1     -37.940  13.684  15.026  0.00  0.00     0.000 C 
ATOM     11  C   UNL d   1     -38.561  13.557  17.117  0.00  0.00     0.012 A 
ATOM     12  C   UNL d   1     -38.481  13.045  17.759  0.00  0.00     0.001 C 
ENDBRANCH   1   4
BRANCH   1  13
ATOM     13  N   UNL d   1     -39.699  14.640  18.633  0.00  0.00    -0.226 N 
ATOM     14  C   UNL d   1     -39.339  15.185  19.142  0.00  0.00     0.111 A 
ATOM     15  C   UNL d   1     -39.701  15.375  19.858  0.00  0.00     0.100 A 
ATOM     16  N   UNL d   1     -40.416  15.027  20.067  0.00  0.00    -0.297 N 
ATOM     17  C   UNL d   1     -40.774  14.482  19.555  0.00  0.00     0.100 A 
ATOM     18  C   UNL d   1     -40.419  14.286  18.837  0.00  0.00     0.111 A 
BRANCH  16  19
ATOM     19  C   UNL d   1     -40.775  15.220  20.785  0.00  0.00     0.126 C 
BRANCH  19  20
ATOM     20  C   UNL d   1     -41.200  15.922  20.860  0.00  0.00     0.253 C 
ATOM     21  O   UNL d   1     -41.939  15.922  21.225  0.00  0.00    -0.281 OA
ENDBRANCH  19  20
ENDBRANCH  16  19
ENDBRANCH   1  13
TORSDOF 4
ENDMDL
MODEL 7
REMARK VINA RESULT:      -5.5      8.749      9.230
REMARK  4 active torsions:
REMARK  status: ('A' for Active; 'I' for Inactive)
REMARK    1  A    between atoms: C_2  and  S_1 
REMARK    2  A    between atoms: N_3  and  S_1 
REMARK    3  A    between atoms: C_18  and  N_8 
REMARK    4  A    between atoms: C_21  and  C_18 
ROOT
ATOM      1  S   UNL d   1     -39.775  14.531  19.405  0.00  0.00     0.271 S 
ATOM      2  O   UNL d   1     -40.430  14.051  19.553  0.00  0.00    -0.200 OA
ATOM      3  O   UNL d   1     -39.123  15.013  19.254  0.00  0.00    -0.200 OA
ENDROOT
BRANCH   1   4
ATOM      4  C   UNL d   1     -40.133  14.823  18.722  0.00  0.00     0.104 A 
ATOM      5  C   UNL d   1     -40.583  15.524  18.759  0.00  0.00     0.012 A 
ATOM      6  C   UNL d   1     -40.944  15.822  18.079  0.00  0.00     0.001 A 
ATOM      7  C   UNL d   1     -40.666  15.922  19.479  0.00  0.00     0.001 C 
ATOM      8  C   UNL d   1     -40.858  15.421  17.365  0.00  0.00     0.000 A 
ATOM      9  C   UNL d   1     -40.412  14.724  17.327  0.00  0.00     0.001 A 
ATOM     10  C   UNL d   1     -41.217  15.716  16.683  0.00  0.00     0.000 C 
ATOM     11  C   UNL d   1     -40.051  14.429  18.009  0.00  0.00     0.012 A 
ATOM     12  C   UNL d   1     -39.607  13.734  17.967  0.00  0.00     0.001 C 
ENDBRANCH   1   4
BRANCH   1  13
ATOM     13  N   UNL d   1     -39.407  14.248  20.087  0.00  0.00    -0.226 N 
ATOM     14  C   UNL d   1     -39.867  14.001  20.729  0.00  0.00     0.111 A 
ATOM     15  C   UNL d   1     -39.499  13.718  21.411  0.00  0.00     0.100 A 
ATOM     16  N   UNL d   1     -38.678  13.679  21.453  0.00  0.00    -0.297 N 
ATOM     17  C   UNL d   1     -38.220  13.926  20.808  0.00  0.00     0.100 A 
ATOM     18  C   UNL d   1     -38.580  14.211  20.123  0.00  0.00     0.111 A 
BRANCH  16  19
ATOM     19  C   UNL d   1     -38.314  13.394  22.137  0.00  0.00     0.126 C 
BRANCH  19  20
ATOM     20  C   UNL d   1     -38.642  13.550  22.876  0.00  0.00     0.253 C 
ATOM     21  O   UNL d   1     -38.300  13.233  23.557  0.00  0.00    -0.281 OA
ENDBRANCH  19  20
ENDBRANCH  16  19
ENDBRANCH   1  13
TORSDOF 4
ENDMDL
MODEL 8
REMARK VINA RESULT:      -5.3      9.164     10.541
REMARK  4 active torsions:
REMARK  status: ('A' for Active; 'I' for Inactive)
REMARK    1  A    between atoms: C_2  and  S_1 
REMARK    2  A    between atoms: N_3  and  S_1 
REMARK    3  A    between atoms: C_18  and  N_8 
REMARK    4  A    between atoms: C_21  and  C_18 
ROOT
ATOM      1  S   UNL d   1     -39.380  14.951  18.346  0.00  0.00     0.271 S 
ATOM      2  O   UNL d   1     -39.148  14.238  18.690  0.00  0.00    -0.200 OA
ATOM      3  O   UNL d   1     -39.614  15.665  18.005  0.00  0.00    -0.200 OA
ENDROOT
BRANCH   1   4
ATOM      4  C   UNL d   1     -39.743  15.182  19.050  0.00  0.00     0.104 A 
ATOM      5  C   UNL d   1     -40.532  14.958  19.200  0.00  0.00     0.012 A 
ATOM      6  C   UNL d   1     -40.901  15.185  19.902  0.00  0.00     0.001 A 
ATOM      7  C   UNL d   1     -40.944  14.506  18.644  0.00  0.00     0.001 C 
ATOM      8  C   UNL d   1     -40.486  15.635  20.452  0.00  0.00     0.000 A 
ATOM      9  C   UNL d   1     -39.702  15.859  20.304  0.00  0.00     0.001 A 
ATOM     10  C   UNL d   1     -40.852  15.864  21.155  0.00  0.00     0.000 C 
ATOM     11  C   UNL d   1     -39.335  15.630  19.601  0.00  0.00     0.012 A 
ATOM     12  C   UNL d   1     -38.554  15.854  19.456  0.00  0.00     0.001 C 
ENDBRANCH   1   4
BRANCH   1  13
ATOM     13  N   UNL d   1     -39.021  14.731  17.637  0.00  0.00    -0.226 N 
ATOM     14  C   UNL d   1     -38.676  13.982  17.567  0.00  0.00     0.111 A 
ATOM     15  C   UNL d   1     -38.317  13.762  16.857  0.00  0.00     0.100 A 
ATOM     16  N   UNL d   1     -38.300  14.283  16.221  0.00  0.00    -0.297 N 
ATOM     17  C   UNL d   1     -38.646  15.033  16.295  0.00  0.00     0.100 A 
ATOM     18  C   UNL d   1     -39.008  15.261  17.000  0.00  0.00     0.111 A 
BRANCH  16  19
ATOM     19  C   UNL d   1     -37.940  14.059  15.514  0.00  0.00     0.126 C 
BRANCH  19  20
ATOM     20  C   UNL d   1     -38.390  13.739  14.903  0.00  0.00     0.253 C 
ATOM     21  O   UNL d   1     -38.025  13.482  14.209  0.00  0.00    -0.281 OA
ENDBRANCH  19  20
ENDBRANCH  16  19
ENDBRANCH   1  13
TORSDOF 4
ENDMDL
MODEL 9
REMARK VINA RESULT:      -4.9      9.138     10.332
REMARK  4 active torsions:
REMARK  status: ('A' for Active; 'I' for Inactive)
REMARK    1  A    between atoms: C_2  and  S_1 
REMARK    2  A    between atoms: N_3  and  S_1 
REMARK    3  A    between atoms: C_18  and  N_8 
REMARK    4  A    between atoms: C_21  and  C_18 
ROOT
ATOM      1  S   UNL d   1     -39.030  14.789  19.075  0.00  0.00     0.271 S 
ATOM      2  O   UNL d   1     -39.741  14.373  19.125  0.00  0.00    -0.200 OA
ATOM      3  O   UNL d   1     -38.319  15.204  19.022  0.00  0.00    -0.200 OA
ENDROOT
BRANCH   1   4
ATOM      4  C   UNL d   1     -38.914  14.515  18.306  0.00  0.00     0.104 A 
ATOM      5  C   UNL d   1     -38.492  13.806  18.181  0.00  0.00     0.012 A 
ATOM      6  C   UNL d   1     -38.372  13.525  17.414  0.00  0.00     0.001 A 
ATOM      7  C   UNL d   1     -38.195  13.385  18.826  0.00  0.00     0.001 C 
ATOM      8  C   UNL d   1     -38.671  13.949  16.775  0.00  0.00     0.000 A 
ATOM      9  C   UNL d   1     -39.090  14.653  16.898  0.00  0.00     0.001 A 
ATOM     10  C   UNL d   1     -38.553  13.671  16.007  0.00  0.00     0.000 C 
ATOM     11  C   UNL d   1     -39.209  14.932  17.666  0.00  0.00     0.012 A 
ATOM     12  C   UNL d   1     -39.627  15.634  17.786  0.00  0.00     0.001 C 
ENDBRANCH   1   4
BRANCH   1  13
ATOM     13  N   UNL d   1     -39.136  15.070  19.844  0.00  0.00    -0.226 N 
ATOM     14  C   UNL d   1     -38.617  15.641  20.146  0.00  0.00     0.111 A 
ATOM     15  C   UNL d   1     -38.722  15.922  20.914  0.00  0.00     0.100 A 
ATOM     16  N   UNL d   1     -39.339  15.638  21.380  0.00  0.00    -0.297 N 
ATOM     17  C   UNL d   1     -39.856  15.066  21.074  0.00  0.00     0.100 A 
ATOM     18  C   UNL d   1     -39.758  14.780  20.307  0.00  0.00     0.111 A 
BRANCH  16  19
ATOM     19  C   UNL d   1     -39.440  15.922  22.148  0.00  0.00     0.126 C 
BRANCH  19  20
ATOM     20  C   UNL d   1     -39.017  15.589  22.772  0.00  0.00     0.253 C 
ATOM     21  O   UNL d   1     -39.071  15.913  23.529  0.00  0.00    -0.281 OA
ENDBRANCH  19  20
ENDBRANCH  16  19
ENDBRANCH   1  13
TORSDOF 4
ENDMDL
