MODEL 1
REMARK VINA RESULT:      45.4      0.000      0.000
REMARK  6 active torsions:
REMARK  status: ('A' for Active; 'I' for Inactive)
REMARK    1  A    between atoms: C_8  and  C_3 
REMARK    2  A    between atoms: C_6  and  O_10 
REMARK    3  A    between atoms: S_9  and  C_8 
REMARK    4  A    between atoms: C_16  and  S_9 
REMARK    5  A    between atoms: O_10  and  C_17 
REMARK    6  A    between atoms: C_17  and  C_16 
ROOT
ATOM      1  S   UNL d   1     -48.937  27.795  34.396  0.00  0.00    -0.081 SA
ENDROOT
BRANCH   1   2
ATOM      2  C   UNL d   1     -48.643  28.251  35.015  0.00  0.00     0.074 C 
BRANCH   2   3
ATOM      3  C   UNL d   1     -48.445  29.039  34.886  0.00  0.00     0.169 A 
ATOM      4  N   UNL d   1     -48.465  29.772  34.483  0.00  0.00    -0.225 NA
ATOM      5  C   UNL d   1     -47.967  30.306  34.894  0.00  0.00     0.101 A 
ATOM      6  C   UNL d   1     -47.645  29.896  35.544  0.00  0.00     0.101 A 
ATOM      7  C   UNL d   1     -47.759  31.101  34.773  0.00  0.00     0.021 A 
ATOM      8  N   UNL d   1     -47.935  29.114  35.546  0.00  0.00    -0.225 NA
ATOM      9  C   UNL d   1     -47.122  30.289  36.060  0.00  0.00     0.021 A 
ATOM     10  C   UNL d   1     -46.927  31.070  35.929  0.00  0.00     0.002 A 
ATOM     11  C   UNL d   1     -47.246  31.476  35.285  0.00  0.00     0.002 A 
ENDBRANCH   2   3
ENDBRANCH   1   2
BRANCH   1  12
ATOM     12  C   UNL d   1     -49.430  27.155  34.555  0.00  0.00     0.062 C 
BRANCH  12  13
ATOM     13  C   UNL d   1     -49.952  26.885  33.979  0.00  0.00     0.130 C 
BRANCH  13  14
ATOM     14  O   UNL d   1     -49.736  26.245  33.505  0.00  0.00    -0.305 OA
BRANCH  14  15
ATOM     15  C   UNL d   1     -50.531  26.033  33.451  0.00  0.00     0.100 A 
ATOM     16  C   UNL d   1     -50.741  25.249  33.360  0.00  0.00     0.023 A 
ATOM     17  C   UNL d   1     -50.150  24.666  33.321  0.00  0.00     0.002 C 
ATOM     18  C   UNL d   1     -51.535  25.033  33.306  0.00  0.00     0.002 A 
ATOM     19  C   UNL d   1     -52.118  25.609  33.344  0.00  0.00     0.000 A 
ATOM     20  C   UNL d   1     -51.903  26.404  33.437  0.00  0.00     0.002 A 
ATOM     21  C   UNL d   1     -51.106  26.611  33.490  0.00  0.00     0.025 A 
ENDBRANCH  14  15
ENDBRANCH  13  14
ENDBRANCH  12  13
ENDBRANCH   1  12
TORSDOF 6
ENDMDL
MODEL 2
REMARK VINA RESULT:      46.2      1.537      5.465
REMARK  6 active torsions:
REMARK  status: ('A' for Active; 'I' for Inactive)
REMARK    1  A    between atoms: C_8  and  C_3 
REMARK    2  A    between atoms: C_6  and  O_10 
REMARK    3  A    between atoms: S_9  and  C_8 
REMARK    4  A    between atoms: C_16  and  S_9 
REMARK    5  A    between atoms: O_10  and  C_17 
REMARK    6  A    between atoms: C_17  and  C_16 
ROOT
ATOM      1  S   UNL d   1     -49.381  27.864  34.170  0.00  0.00    -0.081 SA
ENDROOT
BRANCH   1   2
ATOM      2  C   UNL d   1     -49.743  27.697  33.451  0.00  0.00     0.074 C 
BRANCH   2   3
ATOM      3  C   UNL d   1     -50.348  27.140  33.415  0.00  0.00     0.169 A 
ATOM      4  N   UNL d   1     -51.143  26.882  33.382  0.00  0.00    -0.225 NA
ATOM      5  C   UNL d   1     -51.142  26.044  33.358  0.00  0.00     0.101 A 
ATOM      6  C   UNL d   1     -50.348  25.796  33.378  0.00  0.00     0.101 A 
ATOM      7  C   UNL d   1     -51.744  25.473  33.323  0.00  0.00     0.021 A 
ATOM      8  N   UNL d   1     -49.851  26.466  33.413  0.00  0.00    -0.225 NA
ATOM      9  C   UNL d   1     -50.170  24.981  33.361  0.00  0.00     0.021 A 
ATOM     10  C   UNL d   1     -50.772  24.432  33.326  0.00  0.00     0.002 A 
ATOM     11  C   UNL d   1     -51.559  24.678  33.307  0.00  0.00     0.002 A 
ENDBRANCH   2   3
ENDBRANCH   1   2
BRANCH   1  12
ATOM     12  C   UNL d   1     -48.591  28.095  34.189  0.00  0.00     0.062 C 
BRANCH  12  13
ATOM     13  C   UNL d   1     -48.377  28.796  34.564  0.00  0.00     0.130 C 
BRANCH  13  14
ATOM     14  O   UNL d   1     -47.815  28.776  35.168  0.00  0.00    -0.305 OA
BRANCH  14  15
ATOM     15  C   UNL d   1     -47.798  29.601  35.161  0.00  0.00     0.100 A 
ATOM     16  C   UNL d   1     -47.514  30.010  35.807  0.00  0.00     0.023 A 
ATOM     17  C   UNL d   1     -47.242  29.594  36.473  0.00  0.00     0.002 C 
ATOM     18  C   UNL d   1     -47.495  30.835  35.804  0.00  0.00     0.002 A 
ATOM     19  C   UNL d   1     -47.763  31.247  35.147  0.00  0.00     0.000 A 
ATOM     20  C   UNL d   1     -48.051  30.830  34.492  0.00  0.00     0.002 A 
ATOM     21  C   UNL d   1     -48.066  30.005  34.503  0.00  0.00     0.025 A 
ENDBRANCH  14  15
ENDBRANCH  13  14
ENDBRANCH  12  13
ENDBRANCH   1  12
TORSDOF 6
ENDMDL
MODEL 3
REMARK VINA RESULT:      46.2      0.678      1.395
REMARK  6 active torsions:
REMARK  status: ('A' for Active; 'I' for Inactive)
REMARK    1  A    between atoms: C_8  and  C_3 
REMARK    2  A    between atoms: C_6  and  O_10 
REMARK    3  A    between atoms: S_9  and  C_8 
REMARK    4  A    between atoms: C_16  and  S_9 
REMARK    5  A    between atoms: O_10  and  C_17 
REMARK    6  A    between atoms: C_17  and  C_16 
ROOT
ATOM      1  S   UNL d   1     -49.211  27.648  34.264  0.00  0.00    -0.081 SA
ENDROOT
BRANCH   1   2
ATOM      2  C   UNL d   1     -48.757  28.333  34.292  0.00  0.00     0.074 C 
BRANCH   2   3
ATOM      3  C   UNL d   1     -48.433  28.581  35.007  0.00  0.00     0.169 A 
ATOM      4  N   UNL d   1     -48.204  28.499  35.807  0.00  0.00    -0.225 NA
ATOM      5  C   UNL d   1     -47.857  29.222  36.052  0.00  0.00     0.101 A 
ATOM      6  C   UNL d   1     -47.877  29.741  35.401  0.00  0.00     0.101 A 
ATOM      7  C   UNL d   1     -47.528  29.484  36.768  0.00  0.00     0.021 A 
ATOM      8  N   UNL d   1     -48.230  29.353  34.752  0.00  0.00    -0.225 NA
ATOM      9  C   UNL d   1     -47.567  30.511  35.477  0.00  0.00     0.021 A 
ATOM     10  C   UNL d   1     -47.247  30.754  36.187  0.00  0.00     0.002 A 
ATOM     11  C   UNL d   1     -47.227  30.240  36.833  0.00  0.00     0.002 A 
ENDBRANCH   2   3
ENDBRANCH   1   2
BRANCH   1  12
ATOM     12  C   UNL d   1     -49.742  27.532  33.646  0.00  0.00     0.062 C 
BRANCH  12  13
ATOM     13  C   UNL d   1     -50.256  26.889  33.660  0.00  0.00     0.130 C 
BRANCH  13  14
ATOM     14  O   UNL d   1     -51.065  27.014  33.551  0.00  0.00    -0.305 OA
BRANCH  14  15
ATOM     15  C   UNL d   1     -51.167  26.200  33.469  0.00  0.00     0.100 A 
ATOM     16  C   UNL d   1     -51.916  25.887  33.389  0.00  0.00     0.023 A 
ATOM     17  C   UNL d   1     -52.576  26.391  33.389  0.00  0.00     0.002 C 
ATOM     18  C   UNL d   1     -52.022  25.073  33.307  0.00  0.00     0.002 A 
ATOM     19  C   UNL d   1     -51.370  24.574  33.307  0.00  0.00     0.000 A 
ATOM     20  C   UNL d   1     -50.611  24.894  33.389  0.00  0.00     0.002 A 
ATOM     21  C   UNL d   1     -50.514  25.709  33.470  0.00  0.00     0.025 A 
ENDBRANCH  14  15
ENDBRANCH  13  14
ENDBRANCH  12  13
ENDBRANCH   1  12
TORSDOF 6
ENDMDL
MODEL 4
REMARK VINA RESULT:      47.0      1.800      5.584
REMARK  6 active torsions:
REMARK  status: ('A' for Active; 'I' for Inactive)
REMARK    1  A    between atoms: C_8  and  C_3 
REMARK    2  A    between atoms: C_6  and  O_10 
REMARK    3  A    between atoms: S_9  and  C_8 
REMARK    4  A    between atoms: C_16  and  S_9 
REMARK    5  A    between atoms: O_10  and  C_17 
REMARK    6  A    between atoms: C_17  and  C_16 
ROOT
ATOM      1  S   UNL d   1     -49.341  27.150  33.797  0.00  0.00    -0.081 SA
ENDROOT
BRANCH   1   2
ATOM      2  C   UNL d   1     -49.943  26.879  33.306  0.00  0.00     0.074 C 
BRANCH   2   3
ATOM      3  C   UNL d   1     -50.146  26.082  33.307  0.00  0.00     0.169 A 
ATOM      4  N   UNL d   1     -49.995  25.259  33.306  0.00  0.00    -0.225 NA
ATOM      5  C   UNL d   1     -50.733  24.861  33.309  0.00  0.00     0.101 A 
ATOM      6  C   UNL d   1     -51.329  25.442  33.311  0.00  0.00     0.101 A 
ATOM      7  C   UNL d   1     -50.949  24.059  33.309  0.00  0.00     0.021 A 
ATOM      8  N   UNL d   1     -50.975  26.198  33.309  0.00  0.00    -0.225 NA
ATOM      9  C   UNL d   1     -52.130  25.211  33.313  0.00  0.00     0.021 A 
ATOM     10  C   UNL d   1     -52.327  24.420  33.314  0.00  0.00     0.002 A 
ATOM     11  C   UNL d   1     -51.736  23.843  33.312  0.00  0.00     0.002 A 
ENDBRANCH   2   3
ENDBRANCH   1   2
BRANCH   1  12
ATOM     12  C   UNL d   1     -49.158  27.952  33.818  0.00  0.00     0.062 C 
BRANCH  12  13
ATOM     13  C   UNL d   1     -48.826  28.280  34.497  0.00  0.00     0.130 C 
BRANCH  13  14
ATOM     14  O   UNL d   1     -48.064  28.594  34.464  0.00  0.00    -0.305 OA
BRANCH  14  15
ATOM     15  C   UNL d   1     -48.135  28.816  35.256  0.00  0.00     0.100 A 
ATOM     16  C   UNL d   1     -47.705  29.446  35.545  0.00  0.00     0.023 A 
ATOM     17  C   UNL d   1     -47.195  29.864  35.040  0.00  0.00     0.002 C 
ATOM     18  C   UNL d   1     -47.774  29.671  36.336  0.00  0.00     0.002 A 
ATOM     19  C   UNL d   1     -48.278  29.257  36.835  0.00  0.00     0.000 A 
ATOM     20  C   UNL d   1     -48.713  28.618  36.539  0.00  0.00     0.002 A 
ATOM     21  C   UNL d   1     -48.639  28.400  35.747  0.00  0.00     0.025 A 
ENDBRANCH  14  15
ENDBRANCH  13  14
ENDBRANCH  12  13
ENDBRANCH   1  12
TORSDOF 6
ENDMDL
