MODEL 1
REMARK VINA RESULT:     125.9      0.000      0.000
REMARK  9 active torsions:
REMARK  status: ('A' for Active; 'I' for Inactive)
REMARK    1  A    between atoms: C_11  and  C_3 
REMARK    2  A    between atoms: C_12  and  N_6 
REMARK    3  A    between atoms: C_15  and  C_7 
REMARK    4  A    between atoms: O_24  and  C_11 
REMARK    5  A    between atoms: C_23  and  C_12 
REMARK    6  A    between atoms: O_26  and  C_14 
REMARK    7  A    between atoms: O_28  and  C_17 
REMARK    8  A    between atoms: C_22  and  C_23 
REMARK    9  A    between atoms: C_32  and  O_24 
ROOT
ATOM      1  C   UNL d   1      61.407  46.836  50.049  0.00  0.00     0.080 A 
ATOM      2  C   UNL d   1      60.828  47.261  50.462  0.00  0.00     0.267 A 
ATOM      3  C   UNL d   1      62.022  45.588  49.747  0.00  0.00     0.107 A 
ATOM      4  C   UNL d   1      61.931  47.218  49.546  0.00  0.00     0.108 A 
ATOM      5  C   UNL d   1      62.546  45.970  49.244  0.00  0.00     0.208 A 
ATOM      6  N   UNL d   1      60.780  48.080  50.363  0.00  0.00    -0.273 N 
ATOM      7  C   UNL d   1      61.446  46.023  50.154  0.00  0.00     0.017 A 
ATOM      8  O   UNL d   1      62.502  46.791  49.141  0.00  0.00    -0.288 OA
ATOM      9  C   UNL d   1      61.879  48.045  49.450  0.00  0.00     0.043 A 
ATOM     10  C   UNL d   1      61.300  48.470  49.862  0.00  0.00     0.069 A 
ATOM     11  O   UNL d   1      60.302  46.875  50.967  0.00  0.00    -0.267 OA
ATOM     12  N   UNL d   1      63.120  45.540  48.837  0.00  0.00    -0.121 N 
ATOM     13  C   UNL d   1      61.252  49.289  49.764  0.00  0.00     0.019 C 
ENDROOT
BRANCH   6  14
ATOM     14  C   UNL d   1      60.200  48.505  50.776  0.00  0.00     0.083 C 
BRANCH  14  15
ATOM     15  C   UNL d   1      59.844  49.157  50.415  0.00  0.00     0.019 C 
BRANCH  15  16
ATOM     16  C   UNL d   1      59.023  49.243  50.487  0.00  0.00     0.004 A 
ATOM     17  C   UNL d   1      58.689  49.317  51.222  0.00  0.00     0.026 A 
ATOM     18  C   UNL d   1      57.877  49.403  51.293  0.00  0.00     0.116 A 
ATOM     19  C   UNL d   1      57.396  49.413  50.612  0.00  0.00     0.116 A 
ATOM     20  C   UNL d   1      57.746  49.337  49.871  0.00  0.00     0.026 A 
ATOM     21  C   UNL d   1      58.558  49.252  49.804  0.00  0.00     0.002 A 
BRANCH  18  22
ATOM     22  O   UNL d   1      57.524  49.479  52.039  0.00  0.00    -0.326 OA
ATOM     23  C   UNL d   1      56.709  49.448  52.101  0.00  0.00     0.181 C 
ENDBRANCH  18  22
BRANCH  19  24
ATOM     24  O   UNL d   1      56.579  49.498  50.675  0.00  0.00    -0.326 OA
ATOM     25  C   UNL d   1      56.093  49.291  50.048  0.00  0.00     0.181 C 
ENDBRANCH  19  24
ENDBRANCH  15  16
ENDBRANCH  14  15
ENDBRANCH   6  14
BRANCH   7  26
ATOM     26  C   UNL d   1      60.921  45.637  50.659  0.00  0.00     0.020 A 
ATOM     27  C   UNL d   1      61.085  45.585  51.458  0.00  0.00     0.099 A 
ATOM     28  N   UNL d   1      60.567  45.204  51.961  0.00  0.00    -0.242 NA
ATOM     29  C   UNL d   1      59.869  44.866  51.659  0.00  0.00     0.099 A 
ATOM     30  C   UNL d   1      59.707  44.922  50.848  0.00  0.00     0.021 A 
ATOM     31  C   UNL d   1      60.231  45.306  50.347  0.00  0.00     0.003 A 
ENDBRANCH   7  26
BRANCH   3  32
ATOM     32  C   UNL d   1      62.065  44.767  49.849  0.00  0.00     0.304 C 
ATOM     33  O   UNL d   1      61.923  44.263  49.217  0.00  0.00    -0.259 OA
BRANCH  32  34
ATOM     34  O   UNL d   1      62.250  44.462  50.589  0.00  0.00    -0.271 OA
BRANCH  34  35
ATOM     35  C   UNL d   1      62.870  43.924  50.695  0.00  0.00     0.126 C 
ATOM     36  C   UNL d   1      63.092  43.437  50.073  0.00  0.00     0.029 C 
ENDBRANCH  34  35
ENDBRANCH  32  34
ENDBRANCH   3  32
TORSDOF 9
ENDMDL
