MODEL 1
REMARK VINA RESULT:      -1.8      0.000      0.000
REMARK  3 active torsions:
REMARK  status: ('A' for Active; 'I' for Inactive)
REMARK    1  A    between atoms: C_7  and  N_1 
REMARK    2  A    between atoms: C_8  and  C_2 
REMARK    3  A    between atoms: N_4  and  C_9 
ROOT
ATOM      1  N   UNL d   1      31.911  16.211 -24.688  0.00  0.00    -0.211 N 
ATOM      2  C   UNL d   1      32.611  16.593 -24.471  0.00  0.00     0.105 A 
ATOM      3  N   UNL d   1      32.115  15.505 -25.076  0.00  0.00    -0.060 NA
ATOM      4  N   UNL d   1      32.940  15.452 -25.097  0.00  0.00    -0.127 NA
ATOM      5  C   UNL d   1      33.241  16.127 -24.723  0.00  0.00     0.143 A 
ENDROOT
BRANCH   1   6
ATOM      6  C   UNL d   1      31.146  16.481 -24.546  0.00  0.00     0.085 A 
ATOM      7  C   UNL d   1      30.772  16.969 -25.096  0.00  0.00     0.021 A 
ATOM      8  C   UNL d   1      30.007  17.241 -24.958  0.00  0.00     0.025 A 
ATOM      9  C   UNL d   1      29.613  17.022 -24.264  0.00  0.00     0.127 A 
ATOM     10  C   UNL d   1      29.983  16.535 -23.714  0.00  0.00     0.025 A 
ATOM     11  C   UNL d   1      30.748  16.263 -23.853  0.00  0.00     0.021 A 
BRANCH   9  12
ATOM     12  N   UNL d   1      28.844  17.296 -24.127  0.00  0.00    -0.114 N 
ATOM     13  O   UNL d   1      28.289  16.795 -23.777  0.00  0.00    -0.532 OA
ATOM     14  O   UNL d   1      28.636  18.057 -24.337  0.00  0.00    -0.532 OA
ENDBRANCH   9  12
ENDBRANCH   1   6
BRANCH   2  15
ATOM     15  C   UNL d   1      32.667  17.314 -24.074  0.00  0.00     0.019 A 
ATOM     16  C   UNL d   1      32.700  18.019 -24.502  0.00  0.00     0.002 A 
ATOM     17  C   UNL d   1      32.756  18.738 -24.109  0.00  0.00     0.011 A 
ATOM     18  C   UNL d   1      32.779  18.759 -23.277  0.00  0.00     0.058 A 
ATOM     19  C   UNL d   1      32.745  18.048 -22.847  0.00  0.00     0.011 A 
ATOM     20 CL   UNL d   1      32.835  19.478 -22.885  0.00  0.00    -0.082 Cl
ATOM     21  C   UNL d   1      32.690  17.330 -23.243  0.00  0.00     0.002 A 
ENDBRANCH   2  15
TORSDOF 3
ENDMDL
