MODEL 1
REMARK VINA RESULT:      -9.1      0.000      0.000
REMARK  4 active torsions:
REMARK  status: ('A' for Active; 'I' for Inactive)
REMARK    1  A    between atoms: N_9  and  C_3 
REMARK    2  A    between atoms: C_11  and  C_4 
REMARK    3  A    between atoms: C_15  and  C_10 
REMARK    4  A    between atoms: C_20  and  C_15 
ROOT
ATOM      1  N   UNL d   1      52.162  34.172  53.409  0.00  0.00    -0.196 N 
ATOM      2  C   UNL d   1      52.868  33.889  53.761  0.00  0.00     0.167 A 
ATOM      3  C   UNL d   1      51.760  33.685  52.908  0.00  0.00     0.153 A 
ATOM      4  C   UNL d   1      53.287  34.360  54.266  0.00  0.00     0.057 A 
ATOM      5  N   UNL d   1      52.329  35.397  54.092  0.00  0.00    -0.161 NA
ATOM      6  N   UNL d   1      53.132  33.135  53.591  0.00  0.00    -0.227 NA
ATOM      7  C   UNL d   1      52.015  32.927  52.730  0.00  0.00     0.057 A 
ATOM      8  C   UNL d   1      53.024  35.118  54.438  0.00  0.00     0.124 A 
ATOM      9  C   UNL d   1      52.710  32.648  53.076  0.00  0.00     0.086 A 
ENDROOT
BRANCH   3  10
ATOM     10  N   UNL d   1      51.042  33.973  52.550  0.00  0.00    -0.285 N 
ATOM     11  C   UNL d   1      50.340  34.086  53.024  0.00  0.00     0.108 A 
ATOM     12  C   UNL d   1      49.634  34.371  52.663  0.00  0.00     0.142 A 
ATOM     13  O   UNL d   1      49.614  34.549  51.828  0.00  0.00    -0.300 OA
ATOM     14  C   UNL d   1      50.318  34.432  51.369  0.00  0.00     0.142 A 
ATOM     15  C   UNL d   1      51.028  34.148  51.722  0.00  0.00     0.108 A 
ENDBRANCH   3  10
BRANCH   9  16
ATOM     16  C   UNL d   1      52.989  31.861  52.902  0.00  0.00     0.019 C 
BRANCH  16  17
ATOM     17  C   UNL d   1      52.576  31.182  53.195  0.00  0.00     0.002 C 
ATOM     18  C   UNL d   1      52.910  30.403  53.133  0.00  0.00     0.000 C 
ENDBRANCH  16  17
ENDBRANCH   9  16
BRANCH   4  19
ATOM     19  C   UNL d   1      53.984  34.068  54.608  0.00  0.00     0.004 A 
ATOM     20  C   UNL d   1      53.936  33.696  55.336  0.00  0.00     0.000 A 
ATOM     21  C   UNL d   1      54.623  33.402  55.686  0.00  0.00     0.000 A 
ATOM     22  C   UNL d   1      55.343  33.486  55.301  0.00  0.00     0.000 A 
ATOM     23  C   UNL d   1      55.377  33.853  54.586  0.00  0.00     0.000 A 
ATOM     24  C   UNL d   1      54.691  34.148  54.236  0.00  0.00     0.000 A 
ENDBRANCH   4  19
TORSDOF 4
ENDMDL
MODEL 2
REMARK VINA RESULT:      -8.7      1.628      3.876
REMARK  4 active torsions:
REMARK  status: ('A' for Active; 'I' for Inactive)
REMARK    1  A    between atoms: N_9  and  C_3 
REMARK    2  A    between atoms: C_11  and  C_4 
REMARK    3  A    between atoms: C_15  and  C_10 
REMARK    4  A    between atoms: C_20  and  C_15 
ROOT
ATOM      1  N   UNL d   1      53.107  33.958  53.877  0.00  0.00    -0.196 N 
ATOM      2  C   UNL d   1      52.452  33.835  53.369  0.00  0.00     0.167 A 
ATOM      3  C   UNL d   1      53.596  33.335  54.030  0.00  0.00     0.153 A 
ATOM      4  C   UNL d   1      51.948  34.445  53.202  0.00  0.00     0.057 A 
ATOM      5  N   UNL d   1      52.720  35.307  54.028  0.00  0.00    -0.161 NA
ATOM      6  N   UNL d   1      52.323  33.097  53.043  0.00  0.00    -0.227 NA
ATOM      7  C   UNL d   1      53.477  32.591  53.708  0.00  0.00     0.057 A 
ATOM      8  C   UNL d   1      52.075  35.187  53.528  0.00  0.00     0.124 A 
ATOM      9  C   UNL d   1      52.832  32.470  53.208  0.00  0.00     0.086 A 
ENDROOT
BRANCH   3  10
ATOM     10  N   UNL d   1      54.262  33.460  54.546  0.00  0.00    -0.285 N 
ATOM     11  C   UNL d   1      55.025  33.667  54.222  0.00  0.00     0.108 A 
ATOM     12  C   UNL d   1      55.680  33.789  54.740  0.00  0.00     0.142 A 
ATOM     13  O   UNL d   1      55.587  33.707  55.584  0.00  0.00    -0.300 OA
ATOM     14  C   UNL d   1      54.823  33.501  55.893  0.00  0.00     0.142 A 
ATOM     15  C   UNL d   1      54.165  33.377  55.382  0.00  0.00     0.108 A 
ENDBRANCH   3  10
BRANCH   9  16
ATOM     16  C   UNL d   1      52.694  31.701  52.865  0.00  0.00     0.019 C 
BRANCH  16  17
ATOM     17  C   UNL d   1      52.923  30.997  53.279  0.00  0.00     0.002 C 
ATOM     18  C   UNL d   1      52.777  30.228  52.950  0.00  0.00     0.000 C 
ENDBRANCH  16  17
ENDBRANCH   9  16
BRANCH   4  19
ATOM     19  C   UNL d   1      51.303  34.311  52.698  0.00  0.00     0.004 A 
ATOM     20  C   UNL d   1      50.568  34.174  53.031  0.00  0.00     0.000 A 
ATOM     21  C   UNL d   1      49.919  34.040  52.540  0.00  0.00     0.000 A 
ATOM     22  C   UNL d   1      50.018  34.045  51.726  0.00  0.00     0.000 A 
ATOM     23  C   UNL d   1      50.746  34.181  51.409  0.00  0.00     0.000 A 
ATOM     24  C   UNL d   1      51.395  34.315  51.900  0.00  0.00     0.000 A 
ENDBRANCH   4  19
TORSDOF 4
ENDMDL
MODEL 3
REMARK VINA RESULT:      -7.1      1.575      3.160
REMARK  4 active torsions:
REMARK  status: ('A' for Active; 'I' for Inactive)
REMARK    1  A    between atoms: N_9  and  C_3 
REMARK    2  A    between atoms: C_11  and  C_4 
REMARK    3  A    between atoms: C_15  and  C_10 
REMARK    4  A    between atoms: C_20  and  C_15 
ROOT
ATOM      1  N   UNL d   1      53.057  32.348  53.797  0.00  0.00    -0.196 N 
ATOM      2  C   UNL d   1      52.989  33.180  53.880  0.00  0.00     0.167 A 
ATOM      3  C   UNL d   1      52.563  31.972  53.284  0.00  0.00     0.153 A 
ATOM      4  C   UNL d   1      53.474  33.578  54.388  0.00  0.00     0.057 A 
ATOM      5  N   UNL d   1      54.103  32.353  54.746  0.00  0.00    -0.161 NA
ATOM      6  N   UNL d   1      52.430  33.586  53.444  0.00  0.00    -0.227 NA
ATOM      7  C   UNL d   1      51.999  32.369  52.842  0.00  0.00     0.057 A 
ATOM      8  C   UNL d   1      54.036  33.171  54.827  0.00  0.00     0.124 A 
ATOM      9  C   UNL d   1      51.932  33.188  52.923  0.00  0.00     0.086 A 
ENDROOT
BRANCH   3  10
ATOM     10  N   UNL d   1      52.632  31.126  53.200  0.00  0.00    -0.285 N 
ATOM     11  C   UNL d   1      52.130  30.606  53.656  0.00  0.00     0.108 A 
ATOM     12  C   UNL d   1      52.205  29.771  53.568  0.00  0.00     0.142 A 
ATOM     13  O   UNL d   1      52.776  29.440  53.027  0.00  0.00    -0.300 OA
ATOM     14  C   UNL d   1      53.268  29.969  52.580  0.00  0.00     0.142 A 
ATOM     15  C   UNL d   1      53.200  30.804  52.663  0.00  0.00     0.108 A 
ENDBRANCH   3  10
BRANCH   9  16
ATOM     16  C   UNL d   1      51.350  33.616  52.469  0.00  0.00     0.019 C 
BRANCH  16  17
ATOM     17  C   UNL d   1      50.577  33.761  52.787  0.00  0.00     0.002 C 
ATOM     18  C   UNL d   1      50.080  34.373  52.469  0.00  0.00     0.000 C 
ENDBRANCH  16  17
ENDBRANCH   9  16
BRANCH   4  19
ATOM     19  C   UNL d   1      53.397  34.401  54.461  0.00  0.00     0.004 A 
ATOM     20  C   UNL d   1      52.980  34.699  55.099  0.00  0.00     0.000 A 
ATOM     21  C   UNL d   1      52.896  35.516  55.182  0.00  0.00     0.000 A 
ATOM     22  C   UNL d   1      53.232  36.017  54.626  0.00  0.00     0.000 A 
ATOM     23  C   UNL d   1      53.640  35.712  54.003  0.00  0.00     0.000 A 
ATOM     24  C   UNL d   1      53.724  34.895  53.919  0.00  0.00     0.000 A 
ENDBRANCH   4  19
TORSDOF 4
ENDMDL
MODEL 4
REMARK VINA RESULT:      -6.9      2.067      4.111
REMARK  4 active torsions:
REMARK  status: ('A' for Active; 'I' for Inactive)
REMARK    1  A    between atoms: N_9  and  C_3 
REMARK    2  A    between atoms: C_11  and  C_4 
REMARK    3  A    between atoms: C_15  and  C_10 
REMARK    4  A    between atoms: C_20  and  C_15 
ROOT
ATOM      1  N   UNL d   1      52.651  31.489  53.612  0.00  0.00    -0.196 N 
ATOM      2  C   UNL d   1      52.626  32.316  53.479  0.00  0.00     0.167 A 
ATOM      3  C   UNL d   1      53.323  31.169  53.922  0.00  0.00     0.153 A 
ATOM      4  C   UNL d   1      51.962  32.657  53.169  0.00  0.00     0.057 A 
ATOM      5  N   UNL d   1      51.334  31.382  53.113  0.00  0.00    -0.161 NA
ATOM      6  N   UNL d   1      53.275  32.776  53.664  0.00  0.00    -0.227 NA
ATOM      7  C   UNL d   1      53.980  31.622  54.111  0.00  0.00     0.057 A 
ATOM      8  C   UNL d   1      51.310  32.196  52.982  0.00  0.00     0.124 A 
ATOM      9  C   UNL d   1      53.956  32.436  53.980  0.00  0.00     0.086 A 
ENDROOT
BRANCH   3  10
ATOM     10  N   UNL d   1      53.349  30.329  54.057  0.00  0.00    -0.285 N 
ATOM     11  C   UNL d   1      53.173  30.011  54.830  0.00  0.00     0.108 A 
ATOM     12  C   UNL d   1      53.200  29.178  54.956  0.00  0.00     0.142 A 
ATOM     13  O   UNL d   1      53.401  28.649  54.317  0.00  0.00    -0.300 OA
ATOM     14  C   UNL d   1      53.574  28.977  53.554  0.00  0.00     0.142 A 
ATOM     15  C   UNL d   1      53.549  29.808  53.420  0.00  0.00     0.108 A 
ENDBRANCH   3  10
BRANCH   9  16
ATOM     16  C   UNL d   1      54.631  32.921  54.172  0.00  0.00     0.019 C 
BRANCH  16  17
ATOM     17  C   UNL d   1      54.734  33.225  54.956  0.00  0.00     0.002 C 
ATOM     18  C   UNL d   1      55.274  33.862  55.112  0.00  0.00     0.000 C 
ENDBRANCH  16  17
ENDBRANCH   9  16
BRANCH   4  19
ATOM     19  C   UNL d   1      51.950  33.477  53.042  0.00  0.00     0.004 A 
ATOM     20  C   UNL d   1      51.657  33.959  53.635  0.00  0.00     0.000 A 
ATOM     21  C   UNL d   1      51.640  34.776  53.520  0.00  0.00     0.000 A 
ATOM     22  C   UNL d   1      51.915  35.093  52.816  0.00  0.00     0.000 A 
ATOM     23  C   UNL d   1      52.201  34.609  52.240  0.00  0.00     0.000 A 
ATOM     24  C   UNL d   1      52.218  33.792  52.354  0.00  0.00     0.000 A 
ENDBRANCH   4  19
TORSDOF 4
ENDMDL
MODEL 5
REMARK VINA RESULT:      -6.7      1.001      2.413
REMARK  4 active torsions:
REMARK  status: ('A' for Active; 'I' for Inactive)
REMARK    1  A    between atoms: N_9  and  C_3 
REMARK    2  A    between atoms: C_11  and  C_4 
REMARK    3  A    between atoms: C_15  and  C_10 
REMARK    4  A    between atoms: C_20  and  C_15 
ROOT
ATOM      1  N   UNL d   1      51.795  33.511  52.847  0.00  0.00    -0.196 N 
ATOM      2  C   UNL d   1      52.519  33.460  53.266  0.00  0.00     0.167 A 
ATOM      3  C   UNL d   1      51.446  34.234  52.770  0.00  0.00     0.153 A 
ATOM      4  C   UNL d   1      52.886  32.746  53.356  0.00  0.00     0.057 A 
ATOM      5  N   UNL d   1      51.839  32.117  52.626  0.00  0.00    -0.161 NA
ATOM      6  N   UNL d   1      52.853  34.135  53.583  0.00  0.00    -0.227 NA
ATOM      7  C   UNL d   1      51.772  34.917  53.083  0.00  0.00     0.057 A 
ATOM      8  C   UNL d   1      52.552  32.067  53.038  0.00  0.00     0.124 A 
ATOM      9  C   UNL d   1      52.485  34.867  53.495  0.00  0.00     0.086 A 
ENDROOT
BRANCH   3  10
ATOM     10  N   UNL d   1      50.710  34.286  52.344  0.00  0.00    -0.285 N 
ATOM     11  C   UNL d   1      50.702  34.252  51.490  0.00  0.00     0.108 A 
ATOM     12  C   UNL d   1      49.970  34.304  51.076  0.00  0.00     0.142 A 
ATOM     13  O   UNL d   1      49.235  34.390  51.502  0.00  0.00    -0.300 OA
ATOM     14  C   UNL d   1      49.257  34.422  52.350  0.00  0.00     0.142 A 
ATOM     15  C   UNL d   1      49.984  34.371  52.771  0.00  0.00     0.108 A 
ENDBRANCH   3  10
BRANCH   9  16
ATOM     16  C   UNL d   1      52.838  35.569  53.828  0.00  0.00     0.019 C 
BRANCH  16  17
ATOM     17  C   UNL d   1      52.674  35.797  54.628  0.00  0.00     0.002 C 
ATOM     18  C   UNL d   1      53.140  36.388  55.021  0.00  0.00     0.000 C 
ENDBRANCH  16  17
ENDBRANCH   9  16
BRANCH   4  19
ATOM     19  C   UNL d   1      53.603  32.708  53.772  0.00  0.00     0.004 A 
ATOM     20  C   UNL d   1      53.580  32.555  54.576  0.00  0.00     0.000 A 
ATOM     21  C   UNL d   1      54.286  32.515  55.000  0.00  0.00     0.000 A 
ATOM     22  C   UNL d   1      55.000  32.630  54.613  0.00  0.00     0.000 A 
ATOM     23  C   UNL d   1      55.010  32.780  53.822  0.00  0.00     0.000 A 
ATOM     24  C   UNL d   1      54.304  32.820  53.397  0.00  0.00     0.000 A 
ENDBRANCH   4  19
TORSDOF 4
ENDMDL
MODEL 6
REMARK VINA RESULT:      -6.3      1.601      3.367
REMARK  4 active torsions:
REMARK  status: ('A' for Active; 'I' for Inactive)
REMARK    1  A    between atoms: N_9  and  C_3 
REMARK    2  A    between atoms: C_11  and  C_4 
REMARK    3  A    between atoms: C_15  and  C_10 
REMARK    4  A    between atoms: C_20  and  C_15 
ROOT
ATOM      1  N   UNL d   1      53.288  33.469  54.019  0.00  0.00    -0.196 N 
ATOM      2  C   UNL d   1      53.077  32.704  53.749  0.00  0.00     0.167 A 
ATOM      3  C   UNL d   1      52.772  34.076  53.895  0.00  0.00     0.153 A 
ATOM      4  C   UNL d   1      53.579  32.081  53.862  0.00  0.00     0.057 A 
ATOM      5  N   UNL d   1      54.505  32.946  54.507  0.00  0.00    -0.161 NA
ATOM      6  N   UNL d   1      52.362  32.590  53.370  0.00  0.00    -0.227 NA
ATOM      7  C   UNL d   1      52.052  33.973  53.517  0.00  0.00     0.057 A 
ATOM      8  C   UNL d   1      54.298  32.193  54.241  0.00  0.00     0.124 A 
ATOM      9  C   UNL d   1      51.844  33.220  53.251  0.00  0.00     0.086 A 
ENDROOT
BRANCH   3  10
ATOM     10  N   UNL d   1      52.986  34.853  54.170  0.00  0.00    -0.285 N 
ATOM     11  C   UNL d   1      53.429  35.382  53.665  0.00  0.00     0.108 A 
ATOM     12  C   UNL d   1      53.638  36.149  53.943  0.00  0.00     0.142 A 
ATOM     13  O   UNL d   1      53.411  36.404  54.726  0.00  0.00    -0.300 OA
ATOM     14  C   UNL d   1      52.971  35.870  55.217  0.00  0.00     0.142 A 
ATOM     15  C   UNL d   1      52.759  35.101  54.946  0.00  0.00     0.108 A 
ENDBRANCH   3  10
BRANCH   9  16
ATOM     16  C   UNL d   1      51.098  33.097  52.856  0.00  0.00     0.019 C 
BRANCH  16  17
ATOM     17  C   UNL d   1      50.493  33.690  52.882  0.00  0.00     0.002 C 
ATOM     18  C   UNL d   1      49.945  33.786  52.240  0.00  0.00     0.000 C 
ENDBRANCH  16  17
ENDBRANCH   9  16
BRANCH   4  19
ATOM     19  C   UNL d   1      53.359  31.329  53.590  0.00  0.00     0.004 A 
ATOM     20  C   UNL d   1      53.109  30.774  54.137  0.00  0.00     0.000 A 
ATOM     21  C   UNL d   1      52.887  30.022  53.878  0.00  0.00     0.000 A 
ATOM     22  C   UNL d   1      52.920  29.841  53.079  0.00  0.00     0.000 A 
ATOM     23  C   UNL d   1      53.168  30.396  52.550  0.00  0.00     0.000 A 
ATOM     24  C   UNL d   1      53.389  31.147  52.808  0.00  0.00     0.000 A 
ENDBRANCH   4  19
TORSDOF 4
ENDMDL
MODEL 7
REMARK VINA RESULT:      -6.3      1.296      3.173
REMARK  4 active torsions:
REMARK  status: ('A' for Active; 'I' for Inactive)
REMARK    1  A    between atoms: N_9  and  C_3 
REMARK    2  A    between atoms: C_11  and  C_4 
REMARK    3  A    between atoms: C_15  and  C_10 
REMARK    4  A    between atoms: C_20  and  C_15 
ROOT
ATOM      1  N   UNL d   1      52.230  32.051  53.251  0.00  0.00    -0.196 N 
ATOM      2  C   UNL d   1      52.756  31.467  53.540  0.00  0.00     0.167 A 
ATOM      3  C   UNL d   1      52.444  32.826  53.313  0.00  0.00     0.153 A 
ATOM      4  C   UNL d   1      52.562  30.684  53.488  0.00  0.00     0.057 A 
ATOM      5  N   UNL d   1      51.331  31.033  52.867  0.00  0.00    -0.161 NA
ATOM      6  N   UNL d   1      53.467  31.691  53.875  0.00  0.00    -0.227 NA
ATOM      7  C   UNL d   1      53.154  33.062  53.648  0.00  0.00     0.057 A 
ATOM      8  C   UNL d   1      51.849  30.457  53.151  0.00  0.00     0.124 A 
ATOM      9  C   UNL d   1      53.673  32.487  53.932  0.00  0.00     0.086 A 
ENDROOT
BRANCH   3  10
ATOM     10  N   UNL d   1      51.909  33.420  53.019  0.00  0.00    -0.285 N 
ATOM     11  C   UNL d   1      51.259  33.692  53.503  0.00  0.00     0.108 A 
ATOM     12  C   UNL d   1      50.733  34.280  53.205  0.00  0.00     0.142 A 
ATOM     13  O   UNL d   1      50.845  34.607  52.424  0.00  0.00    -0.300 OA
ATOM     14  C   UNL d   1      51.495  34.329  51.954  0.00  0.00     0.142 A 
ATOM     15  C   UNL d   1      52.024  33.741  52.245  0.00  0.00     0.108 A 
ENDBRANCH   3  10
BRANCH   9  16
ATOM     16  C   UNL d   1      54.416  32.716  54.283  0.00  0.00     0.019 C 
BRANCH  16  17
ATOM     17  C   UNL d   1      54.433  33.184  54.989  0.00  0.00     0.002 C 
ATOM     18  C   UNL d   1      55.135  33.601  55.223  0.00  0.00     0.000 C 
ENDBRANCH  16  17
ENDBRANCH   9  16
BRANCH   4  19
ATOM     19  C   UNL d   1      53.091  30.115  53.777  0.00  0.00     0.004 A 
ATOM     20  C   UNL d   1      52.947  29.786  54.513  0.00  0.00     0.000 A 
ATOM     21  C   UNL d   1      53.466  29.219  54.812  0.00  0.00     0.000 A 
ATOM     22  C   UNL d   1      54.119  28.993  54.369  0.00  0.00     0.000 A 
ATOM     23  C   UNL d   1      54.251  29.324  53.647  0.00  0.00     0.000 A 
ATOM     24  C   UNL d   1      53.732  29.891  53.348  0.00  0.00     0.000 A 
ENDBRANCH   4  19
TORSDOF 4
ENDMDL
