MODEL 1
REMARK VINA RESULT:      26.7      0.000      0.000
REMARK  2 active torsions:
REMARK  status: ('A' for Active; 'I' for Inactive)
REMARK    1  A    between atoms: C_8  and  C_1 
REMARK    2  A    between atoms: C_7  and  C_2 
ROOT
ATOM      1  C   UNL d   1     -51.333  25.283  33.386  0.00  0.00     0.066 A 
ATOM      2  C   UNL d   1     -50.512  25.218  33.392  0.00  0.00     0.174 A 
ATOM      3  C   UNL d   1     -51.702  26.027  33.367  0.00  0.00     0.199 A 
ATOM      4  O   UNL d   1     -50.045  25.906  33.380  0.00  0.00    -0.303 OA
ATOM      5  C   UNL d   1     -51.219  26.703  33.355  0.00  0.00     0.062 A 
ATOM      6  C   UNL d   1     -50.410  26.642  33.361  0.00  0.00     0.106 A 
ATOM      7  C   UNL d   1     -49.930  27.320  33.349  0.00  0.00     0.067 A 
ATOM      8  C   UNL d   1     -51.579  27.459  33.336  0.00  0.00     0.009 A 
ATOM      9  O   UNL d   1     -52.536  26.078  33.361  0.00  0.00    -0.286 OA
ATOM     10  C   UNL d   1     -50.294  28.065  33.330  0.00  0.00     0.198 A 
ATOM     11  C   UNL d   1     -51.123  28.131  33.323  0.00  0.00     0.042 A 
ATOM     12  O   UNL d   1     -49.827  28.724  33.318  0.00  0.00    -0.286 OA
ENDROOT
BRANCH   1  13
ATOM     13  C   UNL d   1     -51.806  24.628  33.398  0.00  0.00     0.005 A 
ATOM     14  C   UNL d   1     -52.615  24.681  33.444  0.00  0.00     0.000 A 
ATOM     15  C   UNL d   1     -53.011  25.397  33.481  0.00  0.00     0.000 C 
ATOM     16  C   UNL d   1     -53.094  24.002  33.456  0.00  0.00     0.000 A 
ATOM     17  C   UNL d   1     -52.731  23.267  33.420  0.00  0.00     0.000 A 
ATOM     18  C   UNL d   1     -51.911  23.197  33.373  0.00  0.00     0.000 A 
ATOM     19  C   UNL d   1     -51.453  23.871  33.362  0.00  0.00     0.000 A 
ENDBRANCH   1  13
BRANCH   2  20
ATOM     20  C   UNL d   1     -50.154  24.473  33.411  0.00  0.00     0.440 C 
ATOM     21  F   UNL d   1     -49.387  24.455  33.319  0.00  0.00    -0.164 F 
ATOM     22  F   UNL d   1     -49.746  23.759  33.421  0.00  0.00    -0.164 F 
ATOM     23  F   UNL d   1     -50.644  23.742  33.532  0.00  0.00    -0.164 F 
ENDBRANCH   2  20
TORSDOF 2
ENDMDL
MODEL 2
REMARK VINA RESULT:      28.6      1.528      2.211
REMARK  2 active torsions:
REMARK  status: ('A' for Active; 'I' for Inactive)
REMARK    1  A    between atoms: C_8  and  C_1 
REMARK    2  A    between atoms: C_7  and  C_2 
ROOT
ATOM      1  C   UNL d   1     -51.868  25.328  33.319  0.00  0.00     0.066 A 
ATOM      2  C   UNL d   1     -52.275  26.045  33.323  0.00  0.00     0.174 A 
ATOM      3  C   UNL d   1     -51.038  25.310  33.316  0.00  0.00     0.199 A 
ATOM      4  O   UNL d   1     -51.851  26.759  33.325  0.00  0.00    -0.303 OA
ATOM      5  C   UNL d   1     -50.630  26.034  33.317  0.00  0.00     0.062 A 
ATOM      6  C   UNL d   1     -51.029  26.741  33.322  0.00  0.00     0.106 A 
ATOM      7  C   UNL d   1     -50.619  27.464  33.323  0.00  0.00     0.067 A 
ATOM      8  C   UNL d   1     -49.793  26.029  33.314  0.00  0.00     0.009 A 
ATOM      9  O   UNL d   1     -50.638  24.576  33.311  0.00  0.00    -0.286 OA
ATOM     10  C   UNL d   1     -49.790  27.450  33.320  0.00  0.00     0.198 A 
ATOM     11  C   UNL d   1     -49.378  26.727  33.315  0.00  0.00     0.042 A 
ATOM     12  O   UNL d   1     -49.391  28.152  33.321  0.00  0.00    -0.286 OA
ENDROOT
BRANCH   1  13
ATOM     13  C   UNL d   1     -52.261  24.622  33.317  0.00  0.00     0.005 A 
ATOM     14  C   UNL d   1     -51.869  23.911  33.312  0.00  0.00     0.000 A 
ATOM     15  C   UNL d   1     -51.052  23.855  33.308  0.00  0.00     0.000 C 
ATOM     16  C   UNL d   1     -52.280  23.189  33.311  0.00  0.00     0.000 A 
ATOM     17  C   UNL d   1     -53.101  23.206  33.315  0.00  0.00     0.000 A 
ATOM     18  C   UNL d   1     -53.513  23.921  33.320  0.00  0.00     0.000 A 
ATOM     19  C   UNL d   1     -53.097  24.622  33.321  0.00  0.00     0.000 A 
ENDBRANCH   1  13
BRANCH   2  20
ATOM     20  C   UNL d   1     -53.103  26.052  33.326  0.00  0.00     0.440 C 
ATOM     21  F   UNL d   1     -53.454  25.364  33.340  0.00  0.00    -0.164 F 
ATOM     22  F   UNL d   1     -53.923  26.000  33.331  0.00  0.00    -0.164 F 
ATOM     23  F   UNL d   1     -53.546  26.821  33.315  0.00  0.00    -0.164 F 
ENDBRANCH   2  20
TORSDOF 2
ENDMDL
