MODEL 1
REMARK VINA RESULT:      60.9      0.000      0.000
REMARK  8 active torsions:
REMARK  status: ('A' for Active; 'I' for Inactive)
REMARK    1  A    between atoms: C_6  and  C_1 
REMARK    2  A    between atoms: S_11  and  C_3 
REMARK    3  A    between atoms: C_8  and  C_4 
REMARK       I    between atoms: N_10  and  C_6 
REMARK    4  A    between atoms: C_22  and  N_10 
REMARK    5  A    between atoms: C_21  and  S_11 
REMARK    6  A    between atoms: C_13  and  C_21 
REMARK    7  A    between atoms: O_20  and  C_13 
REMARK    8  A    between atoms: C_24  and  O_20 
ROOT
ATOM      1  C   UNL d   1      13.936  14.046  -3.276  0.00  0.00     0.078 A 
ATOM      2  C   UNL d   1      13.587  14.294  -4.617  0.00  0.00     0.094 A 
ATOM      3  C   UNL d   1      13.850  15.072  -4.541  0.00  0.00     0.120 A 
ATOM      4  C   UNL d   1      13.628  13.775  -3.985  0.00  0.00     0.041 A 
ATOM      5  C   UNL d   1      14.199  14.825  -3.201  0.00  0.00     0.087 A 
ATOM      6  N   UNL d   1      14.158  15.344  -3.833  0.00  0.00    -0.238 NA
ATOM      7  C   UNL d   1      13.269  14.030  -5.366  0.00  0.00     0.103 C 
ATOM      8  N   UNL d   1      12.954  13.759  -6.095  0.00  0.00    -0.191 NA
ATOM      9  C   UNL d   1      14.520  15.116  -2.471  0.00  0.00     0.021 C 
ENDROOT
BRANCH   4  10
ATOM     10  C   UNL d   1      13.372  13.017  -4.059  0.00  0.00     0.101 A 
ATOM     11  O   UNL d   1      13.622  12.496  -4.648  0.00  0.00    -0.305 OA
ATOM     12  C   UNL d   1      13.245  11.780  -4.546  0.00  0.00     0.123 A 
ATOM     13  C   UNL d   1      12.769  11.860  -3.903  0.00  0.00     0.029 A 
ATOM     14  C   UNL d   1      12.830  12.599  -3.592  0.00  0.00     0.027 A 
ENDBRANCH   4  10
BRANCH   3  15
ATOM     15  S   UNL d   1      13.813  15.618  -5.187  0.00  0.00    -0.061 SA
BRANCH  15  16
ATOM     16  C   UNL d   1      14.115  16.388  -5.092  0.00  0.00     0.105 C 
BRANCH  16  17
ATOM     17  C   UNL d   1      14.052  16.934  -5.701  0.00  0.00     0.307 C 
ATOM     18  O   UNL d   1      13.621  16.738  -6.373  0.00  0.00    -0.258 OA
BRANCH  17  19
ATOM     19  O   UNL d   1      14.420  17.673  -5.635  0.00  0.00    -0.273 OA
BRANCH  19  20
ATOM     20  C   UNL d   1      14.007  18.357  -5.812  0.00  0.00     0.103 C 
ATOM     21  C   UNL d   1      14.190  19.063  -5.425  0.00  0.00     0.027 C 
ATOM     22  C   UNL d   1      13.408  18.331  -6.379  0.00  0.00     0.027 C 
ENDBRANCH  19  20
ENDBRANCH  17  19
ENDBRANCH  16  17
ENDBRANCH  15  16
ENDBRANCH   3  15
BRANCH   1  23
ATOM     23  C   UNL d   1      13.987  13.521  -2.609  0.00  0.00     0.281 C 
ATOM     24  N   UNL d   1      14.601  13.601  -2.073  0.00  0.00    -0.208 NA
ATOM     25  O   UNL d   1      13.414  12.935  -2.509  0.00  0.00    -0.265 OA
BRANCH  24  26
ATOM     26  C   UNL d   1      14.644  13.080  -1.420  0.00  0.00     0.085 A 
ATOM     27  C   UNL d   1      14.515  13.365  -0.656  0.00  0.00     0.019 A 
ATOM     28  C   UNL d   1      14.561  12.834  -0.016  0.00  0.00     0.002 A 
ATOM     29  C   UNL d   1      14.732  12.041  -0.150  0.00  0.00     0.000 A 
ATOM     30  C   UNL d   1      14.856  11.783  -0.919  0.00  0.00     0.002 A 
ATOM     31  C   UNL d   1      14.814  12.290  -1.549  0.00  0.00     0.019 A 
ENDBRANCH  24  26
ENDBRANCH   1  23
TORSDOF 8
ENDMDL
