MODEL 1
REMARK VINA RESULT:      -2.8      0.000      0.000
REMARK  8 active torsions:
REMARK  status: ('A' for Active; 'I' for Inactive)
REMARK    1  A    between atoms: C_2  and  S_1 
REMARK    2  A    between atoms: N_11  and  S_1 
REMARK    3  A    between atoms: N_6  and  C_17 
REMARK    4  A    between atoms: C_21  and  N_11 
REMARK    5  A    between atoms: O_16  and  C_12 
REMARK    6  A    between atoms: C_22  and  O_16 
REMARK    7  A    between atoms: C_17  and  C_18 
REMARK    8  A    between atoms: C_18  and  C_21 
ROOT
ATOM      1  C   UNL d   1      31.922  17.679 -23.869  0.00  0.00     0.105 A 
ATOM      2  C   UNL d   1      32.180  17.006 -24.275  0.00  0.00     0.014 A 
ATOM      3  C   UNL d   1      31.627  16.467 -24.564  0.00  0.00     0.024 A 
ATOM      4  C   UNL d   1      31.110  17.811 -23.752  0.00  0.00     0.015 A 
ATOM      5  C   UNL d   1      30.816  16.589 -24.454  0.00  0.00     0.100 A 
ATOM      6  C   UNL d   1      30.560  17.270 -24.043  0.00  0.00     0.025 A 
ATOM      7  C   UNL d   1      32.986  16.878 -24.388  0.00  0.00     0.001 A 
ATOM      8  C   UNL d   1      31.876  15.802 -24.965  0.00  0.00     0.002 A 
ATOM      9  C   UNL d   1      33.235  16.202 -24.795  0.00  0.00     0.000 A 
ATOM     10  C   UNL d   1      32.682  15.663 -25.085  0.00  0.00     0.000 A 
ENDROOT
BRANCH   1  11
ATOM     11  S   UNL d   1      32.472  18.220 -23.578  0.00  0.00     0.285 S 
ATOM     12  O   UNL d   1      32.506  17.804 -22.868  0.00  0.00    -0.198 OA
ATOM     13  O   UNL d   1      32.438  18.638 -24.290  0.00  0.00    -0.198 OA
BRANCH  11  14
ATOM     14  N   UNL d   1      33.022  18.762 -23.287  0.00  0.00    -0.157 NA
BRANCH  14  15
ATOM     15  C   UNL d   1      32.909  19.102 -22.538  0.00  0.00     0.114 C 
BRANCH  15  16
ATOM     16  C   UNL d   1      33.139  19.883 -22.404  0.00  0.00     0.041 C 
BRANCH  16  17
ATOM     17  C   UNL d   1      33.137  20.193 -21.638  0.00  0.00     0.083 C 
BRANCH  17  18
ATOM     18  N   UNL d   1      32.856  20.956 -21.498  0.00  0.00    -0.285 N 
ATOM     19  C   UNL d   1      32.221  21.154 -21.008  0.00  0.00     0.183 A 
ATOM     20  N   UNL d   1      32.134  21.979 -21.032  0.00  0.00    -0.222 NA
ATOM     21  C   UNL d   1      32.713  22.284 -21.534  0.00  0.00     0.120 A 
ATOM     22  C   UNL d   1      33.159  21.649 -21.822  0.00  0.00     0.102 A 
ENDBRANCH  17  18
ENDBRANCH  16  17
ENDBRANCH  15  16
ENDBRANCH  14  15
ENDBRANCH  11  14
ENDBRANCH   1  11
BRANCH   5  23
ATOM     23  O   UNL d   1      30.266  16.047 -24.745  0.00  0.00    -0.305 OA
BRANCH  23  24
ATOM     24  C   UNL d   1      29.525  16.000 -24.401  0.00  0.00     0.123 C 
ATOM     25  C   UNL d   1      28.938  15.545 -24.760  0.00  0.00     0.029 C 
ENDBRANCH  23  24
ENDBRANCH   5  23
TORSDOF 8
ENDMDL
MODEL 2
REMARK VINA RESULT:      -1.2      1.950      5.859
REMARK  8 active torsions:
REMARK  status: ('A' for Active; 'I' for Inactive)
REMARK    1  A    between atoms: C_2  and  S_1 
REMARK    2  A    between atoms: N_11  and  S_1 
REMARK    3  A    between atoms: N_6  and  C_17 
REMARK    4  A    between atoms: C_21  and  N_11 
REMARK    5  A    between atoms: O_16  and  C_12 
REMARK    6  A    between atoms: C_22  and  O_16 
REMARK    7  A    between atoms: C_17  and  C_18 
REMARK    8  A    between atoms: C_18  and  C_21 
ROOT
ATOM      1  C   UNL d   1      32.708  21.047 -21.900  0.00  0.00     0.105 A 
ATOM      2  C   UNL d   1      32.858  21.806 -22.190  0.00  0.00     0.014 A 
ATOM      3  C   UNL d   1      32.771  22.458 -21.691  0.00  0.00     0.024 A 
ATOM      4  C   UNL d   1      32.471  20.940 -21.111  0.00  0.00     0.015 A 
ATOM      5  C   UNL d   1      32.536  22.363 -20.904  0.00  0.00     0.100 A 
ATOM      6  C   UNL d   1      32.385  21.594 -20.616  0.00  0.00     0.025 A 
ATOM      7  C   UNL d   1      33.093  21.909 -22.973  0.00  0.00     0.001 A 
ATOM      8  C   UNL d   1      32.919  23.210 -21.973  0.00  0.00     0.002 A 
ATOM      9  C   UNL d   1      33.241  22.672 -23.255  0.00  0.00     0.000 A 
ATOM     10  C   UNL d   1      33.155  23.324 -22.756  0.00  0.00     0.000 A 
ENDROOT
BRANCH   1  11
ATOM     11  S   UNL d   1      32.793  20.393 -22.395  0.00  0.00     0.285 S 
ATOM     12  O   UNL d   1      32.346  20.772 -22.974  0.00  0.00    -0.198 OA
ATOM     13  O   UNL d   1      33.241  20.012 -21.815  0.00  0.00    -0.198 OA
BRANCH  11  14
ATOM     14  N   UNL d   1      32.878  19.738 -22.891  0.00  0.00    -0.157 NA
BRANCH  14  15
ATOM     15  C   UNL d   1      32.482  19.031 -22.711  0.00  0.00     0.114 C 
BRANCH  15  16
ATOM     16  C   UNL d   1      32.584  18.370 -23.194  0.00  0.00     0.041 C 
BRANCH  16  17
ATOM     17  C   UNL d   1      31.991  17.799 -23.251  0.00  0.00     0.083 C 
BRANCH  17  18
ATOM     18  N   UNL d   1      32.120  17.105 -23.677  0.00  0.00    -0.285 N 
ATOM     19  C   UNL d   1      32.181  16.345 -23.356  0.00  0.00     0.183 A 
ATOM     20  N   UNL d   1      32.311  15.818 -23.983  0.00  0.00    -0.222 NA
ATOM     21  C   UNL d   1      32.329  16.252 -24.684  0.00  0.00     0.120 A 
ATOM     22  C   UNL d   1      32.211  17.049 -24.493  0.00  0.00     0.102 A 
ENDBRANCH  17  18
ENDBRANCH  16  17
ENDBRANCH  15  16
ENDBRANCH  14  15
ENDBRANCH  11  14
ENDBRANCH   1  11
BRANCH   5  23
ATOM     23  O   UNL d   1      32.451  23.017 -20.409  0.00  0.00    -0.305 OA
BRANCH  23  24
ATOM     24  C   UNL d   1      32.403  22.907 -19.599  0.00  0.00     0.123 C 
ATOM     25  C   UNL d   1      32.220  23.547 -19.112  0.00  0.00     0.029 C 
ENDBRANCH  23  24
ENDBRANCH   5  23
TORSDOF 8
ENDMDL
