MODEL 1
REMARK VINA RESULT:      -4.3      0.000      0.000
REMARK  6 active torsions:
REMARK  status: ('A' for Active; 'I' for Inactive)
REMARK    1  A    between atoms: C_3  and  N_1 
REMARK       I    between atoms: C_2  and  N_6 
REMARK       I    between atoms: N_7  and  C_2 
REMARK    2  A    between atoms: C_5  and  C_3 
REMARK    3  A    between atoms: C_8  and  C_3 
REMARK    4  A    between atoms: N_6  and  C_5 
REMARK    5  A    between atoms: C_20  and  N_7 
REMARK    6  A    between atoms: N_12  and  C_9 
ROOT
ATOM      1  C   UNL d   1     -40.641  14.525  20.503  0.00  0.00     0.084 C 
ENDROOT
BRANCH   1   2
ATOM      2  N   UNL d   1     -39.969  14.467  20.978  0.00  0.00    -0.300 N 
ATOM      3  C   UNL d   1     -39.523  13.769  20.995  0.00  0.00     0.100 A 
ATOM      4  C   UNL d   1     -38.852  13.716  21.472  0.00  0.00     0.100 A 
ATOM      5  N   UNL d   1     -38.627  14.362  21.932  0.00  0.00    -0.299 N 
ATOM      6  C   UNL d   1     -39.067  15.060  21.920  0.00  0.00     0.100 A 
ATOM      7  C   UNL d   1     -37.944  14.296  22.412  0.00  0.00     0.100 C 
ATOM      8  C   UNL d   1     -39.739  15.118  21.445  0.00  0.00     0.100 A 
ENDBRANCH   1   2
BRANCH   1   9
ATOM      9  C   UNL d   1     -41.381  14.408  20.845  0.00  0.00     0.121 C 
BRANCH   9  10
ATOM     10  N   UNL d   1     -41.745  13.665  20.802  0.00  0.00    -0.188 NA
ATOM     11  C   UNL d   1     -42.445  13.523  21.211  0.00  0.00     0.369 C 
ATOM     12  N   UNL d   1     -42.809  12.779  21.168  0.00  0.00    -0.191 NA
ATOM     13  O   UNL d   1     -42.786  14.114  21.664  0.00  0.00    -0.242 OA
BRANCH  12  14
ATOM     14  C   UNL d   1     -43.508  12.638  21.578  0.00  0.00     0.086 A 
ATOM     15  C   UNL d   1     -43.532  12.062  22.171  0.00  0.00     0.022 A 
ATOM     16  C   UNL d   1     -44.231  11.922  22.581  0.00  0.00     0.031 A 
ATOM     17  C   UNL d   1     -44.916  12.359  22.399  0.00  0.00     0.140 A 
ATOM     18  C   UNL d   1     -44.893  12.924  21.817  0.00  0.00     0.031 A 
ATOM     19  F   UNL d   1     -45.622  12.218  22.811  0.00  0.00    -0.204 F 
ATOM     20  C   UNL d   1     -44.187  13.071  21.398  0.00  0.00     0.022 A 
ENDBRANCH  12  14
ENDBRANCH   9  10
ENDBRANCH   1   9
BRANCH   1  21
ATOM     21  C   UNL d   1     -40.566  14.699  19.697  0.00  0.00     0.018 A 
ATOM     22  C   UNL d   1     -40.650  15.477  19.436  0.00  0.00     0.003 A 
ATOM     23  C   UNL d   1     -40.574  15.643  18.637  0.00  0.00     0.018 A 
ATOM     24  C   UNL d   1     -40.415  15.047  18.089  0.00  0.00     0.064 A 
ATOM     25  C   UNL d   1     -40.332  14.272  18.358  0.00  0.00     0.018 A 
ATOM     26  C   UNL d   1     -40.406  14.095  19.156  0.00  0.00     0.003 A 
BRANCH  24  27
ATOM     27  N   UNL d   1     -40.339  15.217  17.284  0.00  0.00    -0.301 N 
ATOM     28  C   UNL d   1     -39.622  15.060  16.910  0.00  0.00     0.100 C 
ATOM     29  C   UNL d   1     -40.956  15.533  16.864  0.00  0.00     0.100 C 
ENDBRANCH  24  27
ENDBRANCH   1  21
TORSDOF 6
ENDMDL
MODEL 2
REMARK VINA RESULT:      -2.9      2.470      5.079
REMARK  6 active torsions:
REMARK  status: ('A' for Active; 'I' for Inactive)
REMARK    1  A    between atoms: C_3  and  N_1 
REMARK       I    between atoms: C_2  and  N_6 
REMARK       I    between atoms: N_7  and  C_2 
REMARK    2  A    between atoms: C_5  and  C_3 
REMARK    3  A    between atoms: C_8  and  C_3 
REMARK    4  A    between atoms: N_6  and  C_5 
REMARK    5  A    between atoms: C_20  and  N_7 
REMARK    6  A    between atoms: N_12  and  C_9 
ROOT
ATOM      1  C   UNL d   1     -40.382  14.683  20.828  0.00  0.00     0.084 C 
ENDROOT
BRANCH   1   2
ATOM      2  N   UNL d   1     -39.892  14.897  21.457  0.00  0.00    -0.300 N 
ATOM      3  C   UNL d   1     -39.423  14.330  21.838  0.00  0.00     0.100 A 
ATOM      4  C   UNL d   1     -38.935  14.548  22.466  0.00  0.00     0.100 A 
ATOM      5  N   UNL d   1     -38.917  15.336  22.713  0.00  0.00    -0.299 N 
ATOM      6  C   UNL d   1     -39.381  15.904  22.338  0.00  0.00     0.100 A 
ATOM      7  C   UNL d   1     -38.417  15.545  23.352  0.00  0.00     0.100 C 
ATOM      8  C   UNL d   1     -39.871  15.691  21.709  0.00  0.00     0.100 A 
ENDBRANCH   1   2
BRANCH   1   9
ATOM      9  C   UNL d   1     -40.160  14.892  20.063  0.00  0.00     0.121 C 
BRANCH   9  10
ATOM     10  N   UNL d   1     -39.657  14.397  19.627  0.00  0.00    -0.188 NA
ATOM     11  C   UNL d   1     -39.451  14.594  18.855  0.00  0.00     0.369 C 
ATOM     12  N   UNL d   1     -38.949  14.099  18.419  0.00  0.00    -0.191 NA
ATOM     13  O   UNL d   1     -39.741  15.278  18.512  0.00  0.00    -0.242 OA
BRANCH  12  14
ATOM     14  C   UNL d   1     -38.744  14.296  17.648  0.00  0.00     0.086 A 
ATOM     15  C   UNL d   1     -39.139  13.946  17.012  0.00  0.00     0.022 A 
ATOM     16  C   UNL d   1     -38.934  14.143  16.240  0.00  0.00     0.031 A 
ATOM     17  C   UNL d   1     -38.328  14.696  16.097  0.00  0.00     0.140 A 
ATOM     18  C   UNL d   1     -37.940  15.040  16.722  0.00  0.00     0.031 A 
ATOM     19  F   UNL d   1     -38.120  14.896  15.320  0.00  0.00    -0.204 F 
ATOM     20  C   UNL d   1     -38.143  14.844  17.507  0.00  0.00     0.022 A 
ENDBRANCH  12  14
ENDBRANCH   9  10
ENDBRANCH   1   9
BRANCH   1  21
ATOM     21  C   UNL d   1     -41.083  14.267  20.971  0.00  0.00     0.018 A 
ATOM     22  C   UNL d   1     -41.065  13.445  21.034  0.00  0.00     0.003 A 
ATOM     23  C   UNL d   1     -41.763  13.037  21.176  0.00  0.00     0.018 A 
ATOM     24  C   UNL d   1     -42.481  13.434  21.256  0.00  0.00     0.064 A 
ATOM     25  C   UNL d   1     -42.490  14.257  21.191  0.00  0.00     0.018 A 
ATOM     26  C   UNL d   1     -41.798  14.673  21.050  0.00  0.00     0.003 A 
BRANCH  24  27
ATOM     27  N   UNL d   1     -43.182  13.022  21.399  0.00  0.00    -0.301 N 
ATOM     28  C   UNL d   1     -43.140  12.263  21.717  0.00  0.00     0.100 C 
ATOM     29  C   UNL d   1     -43.903  13.352  21.231  0.00  0.00     0.100 C 
ENDBRANCH  24  27
ENDBRANCH   1  21
TORSDOF 6
ENDMDL
