MODEL 1
REMARK VINA RESULT:      21.6      0.000      0.000
REMARK  5 active torsions:
REMARK  status: ('A' for Active; 'I' for Inactive)
REMARK    1  A    between atoms: C_12  and  N_3 
REMARK    2  A    between atoms: C_10  and  N_7 
REMARK    3  A    between atoms: C_11  and  C_10 
REMARK    4  A    between atoms: C_15  and  C_11 
REMARK    5  A    between atoms: C_16  and  C_12 
ROOT
ATOM      1  C   UNL d   1      45.936 -15.024  44.042  0.00  0.00     0.191 A 
ATOM      2  C   UNL d   1      45.481 -15.582  44.464  0.00  0.00     0.196 A 
ATOM      3  N   UNL d   1      45.685 -14.269  44.280  0.00  0.00    -0.191 N 
ATOM      4  N   UNL d   1      46.503 -15.282  43.513  0.00  0.00    -0.204 NA
ATOM      5  N   UNL d   1      44.959 -15.158  44.952  0.00  0.00    -0.122 NA
ATOM      6  N   UNL d   1      45.091 -14.366  44.833  0.00  0.00    -0.058 NA
ATOM      7  N   UNL d   1      46.177 -16.645  43.810  0.00  0.00    -0.251 N 
ATOM      8  C   UNL d   1      45.606 -16.380  44.344  0.00  0.00     0.289 A 
ATOM      9  C   UNL d   1      46.633 -16.087  43.389  0.00  0.00     0.187 A 
ATOM     10  O   UNL d   1      45.151 -16.938  44.765  0.00  0.00    -0.265 OA
ENDROOT
BRANCH   7  11
ATOM     11  C   UNL d   1      46.310 -17.455  43.683  0.00  0.00     0.127 C 
BRANCH  11  12
ATOM     12  C   UNL d   1      46.335 -17.763  42.909  0.00  0.00     0.213 C 
ATOM     13  O   UNL d   1      46.395 -17.250  42.265  0.00  0.00    -0.285 OA
BRANCH  12  14
ATOM     14  C   UNL d   1      46.299 -18.575  42.795  0.00  0.00     0.041 A 
ATOM     15  C   UNL d   1      46.646 -18.916  42.128  0.00  0.00     0.003 A 
ATOM     16  C   UNL d   1      46.613 -19.722  42.011  0.00  0.00     0.000 A 
ATOM     17  C   UNL d   1      46.229 -20.201  42.567  0.00  0.00     0.000 A 
ATOM     18  C   UNL d   1      45.882 -19.860  43.235  0.00  0.00     0.000 A 
ATOM     19  C   UNL d   1      45.916 -19.055  43.351  0.00  0.00     0.003 A 
ENDBRANCH  12  14
ENDBRANCH  11  12
ENDBRANCH   7  11
BRANCH   3  20
ATOM     20  C   UNL d   1      45.984 -13.537  44.004  0.00  0.00     0.104 C 
BRANCH  20  21
ATOM     21  C   UNL d   1      45.510 -13.050  43.523  0.00  0.00     0.019 A 
ATOM     22  C   UNL d   1      44.753 -12.831  43.767  0.00  0.00     0.002 A 
ATOM     23  C   UNL d   1      44.305 -12.356  43.284  0.00  0.00     0.000 A 
ATOM     24  C   UNL d   1      44.583 -12.089  42.566  0.00  0.00     0.000 A 
ATOM     25  C   UNL d   1      45.362 -12.315  42.316  0.00  0.00     0.000 A 
ATOM     26  C   UNL d   1      45.815 -12.795  42.802  0.00  0.00     0.002 A 
ENDBRANCH  20  21
ENDBRANCH   3  20
TORSDOF 5
ENDMDL
