MODEL 1
REMARK VINA RESULT:       4.1      0.000      0.000
REMARK  4 active torsions:
REMARK  status: ('A' for Active; 'I' for Inactive)
REMARK    1  A    between atoms: C_4  and  C_1 
REMARK    2  A    between atoms: C_12  and  N_2 
REMARK    3  A    between atoms: C_11  and  N_5 
REMARK    4  A    between atoms: C_14  and  C_12 
ROOT
ATOM      1  C   UNL d   1     -41.455-121.746 -52.586  0.00  0.00     0.149 A 
ATOM      2  N   UNL d   1     -41.398-122.124 -51.840  0.00  0.00    -0.289 N 
ATOM      3  N   UNL d   1     -41.394-120.930 -52.467  0.00  0.00    -0.227 NA
ATOM      4  C   UNL d   1     -41.300-121.529 -51.266  0.00  0.00     0.083 A 
ATOM      5  C   UNL d   1     -41.297-120.794 -51.646  0.00  0.00     0.099 A 
ATOM      6  C   UNL d   1     -41.213-121.566 -50.438  0.00  0.00     0.019 A 
ATOM      7  C   UNL d   1     -41.209-120.099 -51.214  0.00  0.00     0.021 A 
ATOM      8  C   UNL d   1     -41.125-120.863 -50.007  0.00  0.00     0.002 A 
ATOM      9  C   UNL d   1     -41.123-120.132 -50.394  0.00  0.00     0.002 A 
ENDROOT
BRANCH   1  10
ATOM     10  C   UNL d   1     -41.556-122.129 -53.309  0.00  0.00     0.057 A 
ATOM     11  C   UNL d   1     -42.044-121.886 -53.923  0.00  0.00     0.081 A 
ATOM     12  N   UNL d   1     -41.971-122.437 -54.540  0.00  0.00    -0.298 N 
ATOM     13  C   UNL d   1     -41.437-123.017 -54.302  0.00  0.00     0.261 A 
ATOM     14  C   UNL d   1     -41.178-122.829 -53.541  0.00  0.00     0.065 A 
ATOM     15  O   UNL d   1     -41.202-123.668 -54.744  0.00  0.00    -0.267 OA
BRANCH  12  16
ATOM     16  C   UNL d   1     -42.365-122.407 -55.264  0.00  0.00     0.071 C 
ATOM     17  C   UNL d   1     -42.646-122.317 -56.027  0.00  0.00     0.023 C 
ATOM     18  C   UNL d   1     -41.999-122.068 -55.915  0.00  0.00     0.023 C 
ATOM     19  C   UNL d   1     -43.125-122.719 -55.327  0.00  0.00     0.023 C 
ENDBRANCH  12  16
ENDBRANCH   1  10
BRANCH   2  20
ATOM     20  C   UNL d   1     -41.431-122.932 -51.702  0.00  0.00     0.082 C 
BRANCH  20  21
ATOM     21  C   UNL d   1     -41.879-123.228 -51.072  0.00  0.00     0.018 A 
ATOM     22  C   UNL d   1     -41.497-123.492 -50.389  0.00  0.00     0.002 A 
ATOM     23  C   UNL d   1     -41.938-123.786 -49.760  0.00  0.00     0.000 A 
ATOM     24  C   UNL d   1     -42.759-123.817 -49.814  0.00  0.00     0.000 A 
ATOM     25  C   UNL d   1     -43.137-123.551 -50.501  0.00  0.00     0.000 A 
ATOM     26  C   UNL d   1     -42.695-123.260 -51.122  0.00  0.00     0.002 A 
ENDBRANCH  20  21
ENDBRANCH   2  20
TORSDOF 4
ENDMDL
MODEL 2
REMARK VINA RESULT:       6.7      1.646      3.073
REMARK  4 active torsions:
REMARK  status: ('A' for Active; 'I' for Inactive)
REMARK    1  A    between atoms: C_4  and  C_1 
REMARK    2  A    between atoms: C_12  and  N_2 
REMARK    3  A    between atoms: C_11  and  N_5 
REMARK    4  A    between atoms: C_14  and  C_12 
ROOT
ATOM      1  C   UNL d   1     -41.665-123.135 -49.845  0.00  0.00     0.149 A 
ATOM      2  N   UNL d   1     -42.314-123.483 -49.444  0.00  0.00    -0.289 N 
ATOM      3  N   UNL d   1     -41.124-122.870 -49.277  0.00  0.00    -0.227 NA
ATOM      4  C   UNL d   1     -42.163-123.427 -48.628  0.00  0.00     0.083 A 
ATOM      5  C   UNL d   1     -41.433-123.051 -48.520  0.00  0.00     0.099 A 
ATOM      6  C   UNL d   1     -42.603-123.674 -47.964  0.00  0.00     0.019 A 
ATOM      7  C   UNL d   1     -41.138-122.918 -47.763  0.00  0.00     0.021 A 
ATOM      8  C   UNL d   1     -42.301-123.538 -47.204  0.00  0.00     0.002 A 
ATOM      9  C   UNL d   1     -41.570-123.161 -47.104  0.00  0.00     0.002 A 
ENDROOT
BRANCH   1  10
ATOM     10  C   UNL d   1     -41.585-123.072 -50.663  0.00  0.00     0.057 A 
ATOM     11  C   UNL d   1     -41.738-122.404 -51.115  0.00  0.00     0.081 A 
ATOM     12  N   UNL d   1     -41.584-122.593 -51.908  0.00  0.00    -0.298 N 
ATOM     13  C   UNL d   1     -41.335-123.378 -51.941  0.00  0.00     0.261 A 
ATOM     14  C   UNL d   1     -41.336-123.676 -51.171  0.00  0.00     0.065 A 
ATOM     15  O   UNL d   1     -41.125-123.791 -52.618  0.00  0.00    -0.267 OA
BRANCH  12  16
ATOM     16  C   UNL d   1     -41.664-122.082 -52.551  0.00  0.00     0.071 C 
ATOM     17  C   UNL d   1     -41.635-121.517 -53.142  0.00  0.00     0.023 C 
ATOM     18  C   UNL d   1     -41.123-121.476 -52.664  0.00  0.00     0.023 C 
ATOM     19  C   UNL d   1     -42.292-122.186 -53.077  0.00  0.00     0.023 C 
ENDBRANCH  12  16
ENDBRANCH   1  10
BRANCH   2  20
ATOM     20  C   UNL d   1     -42.976-123.817 -49.794  0.00  0.00     0.082 C 
BRANCH  20  21
ATOM     21  C   UNL d   1     -43.688-123.396 -49.823  0.00  0.00     0.018 A 
ATOM     22  C   UNL d   1     -43.677-122.585 -49.975  0.00  0.00     0.002 A 
ATOM     23  C   UNL d   1     -44.381-122.162 -50.004  0.00  0.00     0.000 A 
ATOM     24  C   UNL d   1     -45.097-122.550 -49.881  0.00  0.00     0.000 A 
ATOM     25  C   UNL d   1     -45.103-123.364 -49.729  0.00  0.00     0.000 A 
ATOM     26  C   UNL d   1     -44.401-123.779 -49.701  0.00  0.00     0.002 A 
ENDBRANCH  20  21
ENDBRANCH   2  20
TORSDOF 4
ENDMDL
MODEL 3
REMARK VINA RESULT:       7.0      1.815      4.619
REMARK  4 active torsions:
REMARK  status: ('A' for Active; 'I' for Inactive)
REMARK    1  A    between atoms: C_4  and  C_1 
REMARK    2  A    between atoms: C_12  and  N_2 
REMARK    3  A    between atoms: C_11  and  N_5 
REMARK    4  A    between atoms: C_14  and  C_12 
ROOT
ATOM      1  C   UNL d   1     -42.357-123.352 -51.253  0.00  0.00     0.149 A 
ATOM      2  N   UNL d   1     -41.676-122.977 -51.569  0.00  0.00    -0.289 N 
ATOM      3  N   UNL d   1     -42.757-123.724 -51.875  0.00  0.00    -0.227 NA
ATOM      4  C   UNL d   1     -41.666-123.126 -52.387  0.00  0.00     0.083 A 
ATOM      5  C   UNL d   1     -42.328-123.584 -52.581  0.00  0.00     0.099 A 
ATOM      6  C   UNL d   1     -41.132-122.898 -52.985  0.00  0.00     0.019 A 
ATOM      7  C   UNL d   1     -42.464-123.817 -53.358  0.00  0.00     0.021 A 
ATOM      8  C   UNL d   1     -41.273-123.136 -53.767  0.00  0.00     0.002 A 
ATOM      9  C   UNL d   1     -41.937-123.594 -53.953  0.00  0.00     0.002 A 
ENDROOT
BRANCH   1  10
ATOM     10  C   UNL d   1     -42.583-123.346 -50.461  0.00  0.00     0.057 A 
ATOM     11  C   UNL d   1     -42.080-123.313 -49.813  0.00  0.00     0.081 A 
ATOM     12  N   UNL d   1     -42.547-123.319 -49.127  0.00  0.00    -0.298 N 
ATOM     13  C   UNL d   1     -43.338-123.356 -49.356  0.00  0.00     0.261 A 
ATOM     14  C   UNL d   1     -43.362-123.373 -50.182  0.00  0.00     0.065 A 
ATOM     15  O   UNL d   1     -43.987-123.373 -48.854  0.00  0.00    -0.267 OA
BRANCH  12  16
ATOM     16  C   UNL d   1     -42.267-123.293 -48.351  0.00  0.00     0.071 C 
ATOM     17  C   UNL d   1     -42.093-123.185 -47.559  0.00  0.00     0.023 C 
ATOM     18  C   UNL d   1     -42.660-122.841 -47.790  0.00  0.00     0.023 C 
ATOM     19  C   UNL d   1     -41.594-123.722 -48.147  0.00  0.00     0.023 C 
ENDBRANCH  12  16
ENDBRANCH   1  10
BRANCH   2  20
ATOM     20  C   UNL d   1     -41.123-122.545 -51.146  0.00  0.00     0.082 C 
BRANCH  20  21
ATOM     21  C   UNL d   1     -41.123-121.718 -51.185  0.00  0.00     0.018 A 
ATOM     22  C   UNL d   1     -41.123-121.276 -50.487  0.00  0.00     0.002 A 
ATOM     23  C   UNL d   1     -41.124-120.455 -50.521  0.00  0.00     0.000 A 
ATOM     24  C   UNL d   1     -41.125-120.075 -51.251  0.00  0.00     0.000 A 
ATOM     25  C   UNL d   1     -41.125-120.522 -51.948  0.00  0.00     0.000 A 
ATOM     26  C   UNL d   1     -41.124-121.337 -51.909  0.00  0.00     0.002 A 
ENDBRANCH  20  21
ENDBRANCH   2  20
TORSDOF 4
ENDMDL
