MODEL 1
REMARK VINA RESULT:      -6.9      0.000      0.000
REMARK  4 active torsions:
REMARK  status: ('A' for Active; 'I' for Inactive)
REMARK    1  A    between atoms: N_4  and  C_8 
REMARK    2  A    between atoms: C_15  and  C_5 
REMARK    3  A    between atoms: O_17  and  C_15 
REMARK    4  A    between atoms: C_16  and  O_17 
ROOT
ATOM      1  C   UNL d   1     -47.329  13.821  23.135  0.00  0.00     0.144 C 
ENDROOT
BRANCH   1   2
ATOM      2  C   UNL d   1     -46.619  13.464  22.928  0.00  0.00     0.142 A 
ATOM      3  N   UNL d   1     -46.286  12.806  23.292  0.00  0.00    -0.057 NA
ATOM      4  C   UNL d   1     -45.586  12.642  22.910  0.00  0.00     0.735 A 
ATOM      5  N   UNL d   1     -45.480  13.196  22.309  0.00  0.00    -0.136 N 
ATOM      6  N   UNL d   1     -45.016  12.056  23.025  0.00  0.00    -0.059 NA
ATOM      7  C   UNL d   1     -46.123  13.695  22.332  0.00  0.00     0.120 A 
ATOM      8  C   UNL d   1     -44.815  13.182  21.813  0.00  0.00     0.100 A 
ATOM      9  C   UNL d   1     -44.235  12.578  21.937  0.00  0.00     0.041 A 
ATOM     10  C   UNL d   1     -44.348  12.019  22.548  0.00  0.00     0.119 A 
ENDBRANCH   1   2
BRANCH   1  11
ATOM     11  O   UNL d   1     -48.056  13.499  22.876  0.00  0.00    -0.303 OA
BRANCH  11  12
ATOM     12  C   UNL d   1     -48.778  13.177  22.623  0.00  0.00     0.102 A 
ATOM     13  C   UNL d   1     -49.209  12.668  23.119  0.00  0.00     0.048 A 
ATOM     14  C   UNL d   1     -49.925  12.347  22.874  0.00  0.00     0.129 A 
ATOM     15  C   UNL d   1     -50.224  12.532  22.118  0.00  0.00     0.024 A 
ATOM     16  C   UNL d   1     -49.796  13.039  21.622  0.00  0.00     0.004 A 
ATOM     17  C   UNL d   1     -49.081  13.355  21.877  0.00  0.00     0.025 A 
BRANCH  14  18
ATOM     18  N   UNL d   1     -50.341  11.843  23.379  0.00  0.00    -0.114 N 
ATOM     19  O   UNL d   1     -50.023  11.103  23.570  0.00  0.00    -0.532 OA
ATOM     20  O   UNL d   1     -51.063  12.066  23.691  0.00  0.00    -0.532 OA
ENDBRANCH  14  18
ENDBRANCH  11  12
ENDBRANCH   1  11
TORSDOF 4
ENDMDL
MODEL 2
REMARK VINA RESULT:      -6.4      1.805      2.493
REMARK  4 active torsions:
REMARK  status: ('A' for Active; 'I' for Inactive)
REMARK    1  A    between atoms: N_4  and  C_8 
REMARK    2  A    between atoms: C_15  and  C_5 
REMARK    3  A    between atoms: O_17  and  C_15 
REMARK    4  A    between atoms: C_16  and  O_17 
ROOT
ATOM      1  C   UNL d   1     -49.132  12.089  23.696  0.00  0.00     0.144 C 
ENDROOT
BRANCH   1   2
ATOM      2  C   UNL d   1     -48.321  11.993  23.608  0.00  0.00     0.142 A 
ATOM      3  N   UNL d   1     -47.783  12.584  23.417  0.00  0.00    -0.057 NA
ATOM      4  C   UNL d   1     -47.044  12.245  23.388  0.00  0.00     0.735 A 
ATOM      5  N   UNL d   1     -47.118  11.442  23.562  0.00  0.00    -0.136 N 
ATOM      6  N   UNL d   1     -46.297  12.556  23.227  0.00  0.00    -0.059 NA
ATOM      7  C   UNL d   1     -47.909  11.301  23.695  0.00  0.00     0.120 A 
ATOM      8  C   UNL d   1     -46.461  10.935  23.579  0.00  0.00     0.100 A 
ATOM      9  C   UNL d   1     -45.699  11.262  23.411  0.00  0.00     0.041 A 
ATOM     10  C   UNL d   1     -45.629  12.075  23.236  0.00  0.00     0.119 A 
ENDBRANCH   1   2
BRANCH   1  11
ATOM     11  O   UNL d   1     -49.553  12.606  23.191  0.00  0.00    -0.303 OA
BRANCH  11  12
ATOM     12  C   UNL d   1     -49.972  13.121  22.694  0.00  0.00     0.102 A 
ATOM     13  C   UNL d   1     -50.012  13.934  22.867  0.00  0.00     0.048 A 
ATOM     14  C   UNL d   1     -50.425  14.449  22.378  0.00  0.00     0.129 A 
ATOM     15  C   UNL d   1     -50.811  14.156  21.699  0.00  0.00     0.024 A 
ATOM     16  C   UNL d   1     -50.773  13.348  21.525  0.00  0.00     0.004 A 
ATOM     17  C   UNL d   1     -50.357  12.840  22.020  0.00  0.00     0.025 A 
BRANCH  14  18
ATOM     18  N   UNL d   1     -50.455  15.254  22.564  0.00  0.00    -0.114 N 
ATOM     19  O   UNL d   1     -51.054  15.535  23.062  0.00  0.00    -0.532 OA
ATOM     20  O   UNL d   1     -49.902  15.774  22.262  0.00  0.00    -0.532 OA
ENDBRANCH  14  18
ENDBRANCH  11  12
ENDBRANCH   1  11
TORSDOF 4
ENDMDL
MODEL 3
REMARK VINA RESULT:      -6.3      1.637      4.704
REMARK  4 active torsions:
REMARK  status: ('A' for Active; 'I' for Inactive)
REMARK    1  A    between atoms: N_4  and  C_8 
REMARK    2  A    between atoms: C_15  and  C_5 
REMARK    3  A    between atoms: O_17  and  C_15 
REMARK    4  A    between atoms: C_16  and  O_17 
ROOT
ATOM      1  C   UNL d   1     -48.186  12.696  21.507  0.00  0.00     0.144 C 
ENDROOT
BRANCH   1   2
ATOM      2  C   UNL d   1     -48.839  12.629  22.001  0.00  0.00     0.142 A 
ATOM      3  N   UNL d   1     -49.358  13.235  22.200  0.00  0.00    -0.057 NA
ATOM      4  C   UNL d   1     -49.920  12.925  22.699  0.00  0.00     0.735 A 
ATOM      5  N   UNL d   1     -49.755  12.125  22.813  0.00  0.00    -0.136 N 
ATOM      6  N   UNL d   1     -50.574  13.259  23.075  0.00  0.00    -0.059 NA
ATOM      7  C   UNL d   1     -49.088  11.957  22.378  0.00  0.00     0.120 A 
ATOM      8  C   UNL d   1     -50.228  11.645  23.297  0.00  0.00     0.100 A 
ATOM      9  C   UNL d   1     -50.896  11.996  23.680  0.00  0.00     0.041 A 
ATOM     10  C   UNL d   1     -51.059  12.806  23.560  0.00  0.00     0.119 A 
ENDBRANCH   1   2
BRANCH   1  11
ATOM     11  O   UNL d   1     -47.467  13.010  21.798  0.00  0.00    -0.303 OA
BRANCH  11  12
ATOM     12  C   UNL d   1     -46.753  13.318  22.084  0.00  0.00     0.102 A 
ATOM     13  C   UNL d   1     -46.051  12.875  22.029  0.00  0.00     0.048 A 
ATOM     14  C   UNL d   1     -45.340  13.174  22.312  0.00  0.00     0.129 A 
ATOM     15  C   UNL d   1     -45.318  13.933  22.658  0.00  0.00     0.024 A 
ATOM     16  C   UNL d   1     -46.016  14.376  22.714  0.00  0.00     0.004 A 
ATOM     17  C   UNL d   1     -46.723  14.067  22.429  0.00  0.00     0.025 A 
BRANCH  14  18
ATOM     18  N   UNL d   1     -44.652  12.722  22.249  0.00  0.00    -0.114 N 
ATOM     19  O   UNL d   1     -44.062  12.947  21.714  0.00  0.00    -0.532 OA
ATOM     20  O   UNL d   1     -44.546  12.055  22.710  0.00  0.00    -0.532 OA
ENDBRANCH  14  18
ENDBRANCH  11  12
ENDBRANCH   1  11
TORSDOF 4
ENDMDL
MODEL 4
REMARK VINA RESULT:      -5.9      8.001      9.087
REMARK  4 active torsions:
REMARK  status: ('A' for Active; 'I' for Inactive)
REMARK    1  A    between atoms: N_4  and  C_8 
REMARK    2  A    between atoms: C_15  and  C_5 
REMARK    3  A    between atoms: O_17  and  C_15 
REMARK    4  A    between atoms: C_16  and  O_17 
ROOT
ATOM      1  C   UNL d   1     -40.800  14.416  20.350  0.00  0.00     0.144 C 
ENDROOT
BRANCH   1   2
ATOM      2  C   UNL d   1     -40.278  14.627  20.947  0.00  0.00     0.142 A 
ATOM      3  N   UNL d   1     -40.089  15.394  21.175  0.00  0.00    -0.057 NA
ATOM      4  C   UNL d   1     -39.552  15.345  21.785  0.00  0.00     0.735 A 
ATOM      5  N   UNL d   1     -39.404  14.549  21.939  0.00  0.00    -0.136 N 
ATOM      6  N   UNL d   1     -39.167  15.922  22.233  0.00  0.00    -0.059 NA
ATOM      7  C   UNL d   1     -39.856  14.119  21.417  0.00  0.00     0.120 A 
ATOM      8  C   UNL d   1     -38.877  14.309  22.534  0.00  0.00     0.100 A 
ATOM      9  C   UNL d   1     -38.486  14.906  22.988  0.00  0.00     0.041 A 
ATOM     10  C   UNL d   1     -38.640  15.711  22.828  0.00  0.00     0.119 A 
ENDBRANCH   1   2
BRANCH   1  11
ATOM     11  O   UNL d   1     -40.543  14.389  19.554  0.00  0.00    -0.303 OA
BRANCH  11  12
ATOM     12  C   UNL d   1     -40.292  14.364  18.764  0.00  0.00     0.102 A 
ATOM     13  C   UNL d   1     -40.645  14.858  18.195  0.00  0.00     0.048 A 
ATOM     14  C   UNL d   1     -40.400  14.837  17.410  0.00  0.00     0.129 A 
ATOM     15  C   UNL d   1     -39.791  14.317  17.179  0.00  0.00     0.024 A 
ATOM     16  C   UNL d   1     -39.439  13.825  17.745  0.00  0.00     0.004 A 
ATOM     17  C   UNL d   1     -39.690  13.852  18.527  0.00  0.00     0.025 A 
BRANCH  14  18
ATOM     18  N   UNL d   1     -40.760  15.334  16.857  0.00  0.00    -0.114 N 
ATOM     19  O   UNL d   1     -40.312  15.920  16.482  0.00  0.00    -0.532 OA
ATOM     20  O   UNL d   1     -41.553  15.253  16.675  0.00  0.00    -0.532 OA
ENDBRANCH  14  18
ENDBRANCH  11  12
ENDBRANCH   1  11
TORSDOF 4
ENDMDL
MODEL 5
REMARK VINA RESULT:      -5.8      8.290      9.438
REMARK  4 active torsions:
REMARK  status: ('A' for Active; 'I' for Inactive)
REMARK    1  A    between atoms: N_4  and  C_8 
REMARK    2  A    between atoms: C_15  and  C_5 
REMARK    3  A    between atoms: O_17  and  C_15 
REMARK    4  A    between atoms: C_16  and  O_17 
ROOT
ATOM      1  C   UNL d   1     -40.749  14.391  18.361  0.00  0.00     0.144 C 
ENDROOT
BRANCH   1   2
ATOM      2  C   UNL d   1     -40.135  14.290  17.825  0.00  0.00     0.142 A 
ATOM      3  N   UNL d   1     -39.684  13.609  17.731  0.00  0.00    -0.057 NA
ATOM      4  C   UNL d   1     -39.141  13.753  17.141  0.00  0.00     0.735 A 
ATOM      5  N   UNL d   1     -39.253  14.522  16.866  0.00  0.00    -0.136 N 
ATOM      6  N   UNL d   1     -38.549  13.286  16.806  0.00  0.00    -0.059 NA
ATOM      7  C   UNL d   1     -39.867  14.840  17.295  0.00  0.00     0.120 A 
ATOM      8  C   UNL d   1     -38.785  14.842  16.259  0.00  0.00     0.100 A 
ATOM      9  C   UNL d   1     -38.180  14.356  15.922  0.00  0.00     0.041 A 
ATOM     10  C   UNL d   1     -38.072  13.578  16.204  0.00  0.00     0.119 A 
ENDBRANCH   1   2
BRANCH   1  11
ATOM     11  O   UNL d   1     -40.590  14.656  19.139  0.00  0.00    -0.303 OA
BRANCH  11  12
ATOM     12  C   UNL d   1     -40.438  14.917  19.911  0.00  0.00     0.102 A 
ATOM     13  C   UNL d   1     -39.971  14.460  20.426  0.00  0.00     0.048 A 
ATOM     14  C   UNL d   1     -39.817  14.714  21.192  0.00  0.00     0.129 A 
ATOM     15  C   UNL d   1     -40.130  15.439  21.460  0.00  0.00     0.024 A 
ATOM     16  C   UNL d   1     -40.594  15.896  20.948  0.00  0.00     0.004 A 
ATOM     17  C   UNL d   1     -40.744  15.633  20.184  0.00  0.00     0.025 A 
BRANCH  14  18
ATOM     18  N   UNL d   1     -39.352  14.248  21.691  0.00  0.00    -0.114 N 
ATOM     19  O   UNL d   1     -39.708  13.650  22.141  0.00  0.00    -0.532 OA
ATOM     20  O   UNL d   1     -38.545  14.370  21.747  0.00  0.00    -0.532 OA
ENDBRANCH  14  18
ENDBRANCH  11  12
ENDBRANCH   1  11
TORSDOF 4
ENDMDL
MODEL 6
REMARK VINA RESULT:      -5.7      7.878      9.162
REMARK  4 active torsions:
REMARK  status: ('A' for Active; 'I' for Inactive)
REMARK    1  A    between atoms: N_4  and  C_8 
REMARK    2  A    between atoms: C_15  and  C_5 
REMARK    3  A    between atoms: O_17  and  C_15 
REMARK    4  A    between atoms: C_16  and  O_17 
ROOT
ATOM      1  C   UNL d   1     -40.864  14.633  20.640  0.00  0.00     0.144 C 
ENDROOT
BRANCH   1   2
ATOM      2  C   UNL d   1     -40.720  14.678  19.833  0.00  0.00     0.142 A 
ATOM      3  N   UNL d   1     -40.678  14.042  19.314  0.00  0.00    -0.057 NA
ATOM      4  C   UNL d   1     -40.527  14.340  18.571  0.00  0.00     0.735 A 
ATOM      5  N   UNL d   1     -40.474  15.161  18.625  0.00  0.00    -0.136 N 
ATOM      6  N   UNL d   1     -40.427  13.976  17.838  0.00  0.00    -0.059 NA
ATOM      7  C   UNL d   1     -40.594  15.355  19.406  0.00  0.00     0.120 A 
ATOM      8  C   UNL d   1     -40.322  15.634  17.960  0.00  0.00     0.100 A 
ATOM      9  C   UNL d   1     -40.221  15.253  17.212  0.00  0.00     0.041 A 
ATOM     10  C   UNL d   1     -40.276  14.421  17.163  0.00  0.00     0.119 A 
ENDBRANCH   1   2
BRANCH   1  11
ATOM     11  O   UNL d   1     -40.226  14.597  21.182  0.00  0.00    -0.303 OA
BRANCH  11  12
ATOM     12  C   UNL d   1     -39.598  14.562  21.721  0.00  0.00     0.102 A 
ATOM     13  C   UNL d   1     -39.283  13.829  21.954  0.00  0.00     0.048 A 
ATOM     14  C   UNL d   1     -38.660  13.788  22.489  0.00  0.00     0.129 A 
ATOM     15  C   UNL d   1     -38.338  14.490  22.803  0.00  0.00     0.024 A 
ATOM     16  C   UNL d   1     -38.650  15.221  22.573  0.00  0.00     0.004 A 
ATOM     17  C   UNL d   1     -39.273  15.252  22.037  0.00  0.00     0.025 A 
BRANCH  14  18
ATOM     18  N   UNL d   1     -38.359  13.052  22.710  0.00  0.00    -0.114 N 
ATOM     19  O   UNL d   1     -38.483  12.775  23.481  0.00  0.00    -0.532 OA
ATOM     20  O   UNL d   1     -37.940  12.594  22.179  0.00  0.00    -0.532 OA
ENDBRANCH  14  18
ENDBRANCH  11  12
ENDBRANCH   1  11
TORSDOF 4
ENDMDL
MODEL 7
REMARK VINA RESULT:      -5.1      1.858      2.295
REMARK  4 active torsions:
REMARK  status: ('A' for Active; 'I' for Inactive)
REMARK    1  A    between atoms: N_4  and  C_8 
REMARK    2  A    between atoms: C_15  and  C_5 
REMARK    3  A    between atoms: O_17  and  C_15 
REMARK    4  A    between atoms: C_16  and  O_17 
ROOT
ATOM      1  C   UNL d   1     -47.302  14.380  22.688  0.00  0.00     0.144 C 
ENDROOT
BRANCH   1   2
ATOM      2  C   UNL d   1     -47.047  13.632  22.912  0.00  0.00     0.142 A 
ATOM      3  N   UNL d   1     -46.265  13.384  22.961  0.00  0.00    -0.057 NA
ATOM      4  C   UNL d   1     -46.268  12.606  23.203  0.00  0.00     0.735 A 
ATOM      5  N   UNL d   1     -47.050  12.368  23.305  0.00  0.00    -0.136 N 
ATOM      6  N   UNL d   1     -45.659  12.069  23.349  0.00  0.00    -0.059 NA
ATOM      7  C   UNL d   1     -47.519  13.008  23.122  0.00  0.00     0.120 A 
ATOM      8  C   UNL d   1     -47.245  11.599  23.551  0.00  0.00     0.100 A 
ATOM      9  C   UNL d   1     -46.615  11.054  23.698  0.00  0.00     0.041 A 
ATOM     10  C   UNL d   1     -45.825  11.301  23.593  0.00  0.00     0.119 A 
ENDBRANCH   1   2
BRANCH   1  11
ATOM     11  O   UNL d   1     -48.115  14.577  22.724  0.00  0.00    -0.303 OA
BRANCH  11  12
ATOM     12  C   UNL d   1     -48.919  14.776  22.763  0.00  0.00     0.102 A 
ATOM     13  C   UNL d   1     -49.467  14.416  22.252  0.00  0.00     0.048 A 
ATOM     14  C   UNL d   1     -50.265  14.610  22.285  0.00  0.00     0.129 A 
ATOM     15  C   UNL d   1     -50.532  15.174  22.839  0.00  0.00     0.024 A 
ATOM     16  C   UNL d   1     -49.987  15.533  23.349  0.00  0.00     0.004 A 
ATOM     17  C   UNL d   1     -49.191  15.333  23.308  0.00  0.00     0.025 A 
BRANCH  14  18
ATOM     18  N   UNL d   1     -50.797  14.243  21.770  0.00  0.00    -0.114 N 
ATOM     19  O   UNL d   1     -51.064  14.652  21.101  0.00  0.00    -0.532 OA
ATOM     20  O   UNL d   1     -51.062  13.484  21.913  0.00  0.00    -0.532 OA
ENDBRANCH  14  18
ENDBRANCH  11  12
ENDBRANCH   1  11
TORSDOF 4
ENDMDL
MODEL 8
REMARK VINA RESULT:      -5.1      1.470      2.053
REMARK  4 active torsions:
REMARK  status: ('A' for Active; 'I' for Inactive)
REMARK    1  A    between atoms: N_4  and  C_8 
REMARK    2  A    between atoms: C_15  and  C_5 
REMARK    3  A    between atoms: O_17  and  C_15 
REMARK    4  A    between atoms: C_16  and  O_17 
ROOT
ATOM      1  C   UNL d   1     -46.317  12.771  22.831  0.00  0.00     0.144 C 
ENDROOT
BRANCH   1   2
ATOM      2  C   UNL d   1     -45.773  12.174  22.983  0.00  0.00     0.142 A 
ATOM      3  N   UNL d   1     -44.973  12.191  22.797  0.00  0.00    -0.057 NA
ATOM      4  C   UNL d   1     -44.646  11.488  23.045  0.00  0.00     0.735 A 
ATOM      5  N   UNL d   1     -45.241  11.031  23.387  0.00  0.00    -0.136 N 
ATOM      6  N   UNL d   1     -43.878  11.190  23.010  0.00  0.00    -0.059 NA
ATOM      7  C   UNL d   1     -45.929  11.465  23.342  0.00  0.00     0.120 A 
ATOM      8  C   UNL d   1     -45.089  10.276  23.698  0.00  0.00     0.100 A 
ATOM      9  C   UNL d   1     -44.299   9.978  23.658  0.00  0.00     0.041 A 
ATOM     10  C   UNL d   1     -43.700  10.446  23.311  0.00  0.00     0.119 A 
ENDBRANCH   1   2
BRANCH   1  11
ATOM     11  O   UNL d   1     -47.138  12.613  22.867  0.00  0.00    -0.303 OA
BRANCH  11  12
ATOM     12  C   UNL d   1     -47.951  12.454  22.899  0.00  0.00     0.102 A 
ATOM     13  C   UNL d   1     -48.452  12.693  22.281  0.00  0.00     0.048 A 
ATOM     14  C   UNL d   1     -49.259  12.538  22.307  0.00  0.00     0.129 A 
ATOM     15  C   UNL d   1     -49.581  12.135  22.962  0.00  0.00     0.024 A 
ATOM     16  C   UNL d   1     -49.084  11.895  23.579  0.00  0.00     0.004 A 
ATOM     17  C   UNL d   1     -48.278  12.055  23.543  0.00  0.00     0.025 A 
BRANCH  14  18
ATOM     18  N   UNL d   1     -49.743  12.782  21.685  0.00  0.00    -0.114 N 
ATOM     19  O   UNL d   1     -49.562  12.550  20.911  0.00  0.00    -0.532 OA
ATOM     20  O   UNL d   1     -50.399  13.251  21.823  0.00  0.00    -0.532 OA
ENDBRANCH  14  18
ENDBRANCH  11  12
ENDBRANCH   1  11
TORSDOF 4
ENDMDL
