MODEL 1
REMARK VINA RESULT:      -4.7      0.000      0.000
REMARK  5 active torsions:
REMARK  status: ('A' for Active; 'I' for Inactive)
REMARK    1  A    between atoms: C_12  and  N_4 
REMARK    2  A    between atoms: C_10  and  N_6 
REMARK    3  A    between atoms: C_11  and  C_10 
REMARK       I    between atoms: N_14  and  C_11 
REMARK    4  A    between atoms: C_16  and  N_14 
REMARK    5  A    between atoms: C_17  and  C_16 
ROOT
ATOM      1  C   UNL d   1      57.395   0.222  32.030  0.00  0.00     0.172 A 
ATOM      2  C   UNL d   1      58.192   0.431  32.079  0.00  0.00     0.113 A 
ATOM      3  N   UNL d   1      57.055   0.056  31.302  0.00  0.00    -0.206 NA
ATOM      4  N   UNL d   1      57.089   0.228  32.802  0.00  0.00    -0.212 N 
ATOM      5  C   UNL d   1      58.649   0.473  31.400  0.00  0.00     0.271 A 
ATOM      6  N   UNL d   1      58.311   0.307  30.663  0.00  0.00    -0.251 N 
ATOM      7  N   UNL d   1      57.696   0.438  33.309  0.00  0.00    -0.162 NA
ATOM      8  C   UNL d   1      57.514   0.098  30.614  0.00  0.00     0.187 A 
ATOM      9  C   UNL d   1      58.364   0.562  32.880  0.00  0.00     0.129 A 
ATOM     10  O   UNL d   1      59.445   0.682  31.449  0.00  0.00    -0.266 OA
ENDROOT
BRANCH   6  11
ATOM     11  C   UNL d   1      58.770   0.348  29.967  0.00  0.00     0.147 C 
BRANCH  11  12
ATOM     12  C   UNL d   1      58.628  -0.183  29.343  0.00  0.00     0.297 C 
ATOM     13  N   UNL d   1      59.135  -0.826  29.243  0.00  0.00    -0.205 NA
ATOM     14  O   UNL d   1      57.995  -0.061  28.842  0.00  0.00    -0.264 OA
BRANCH  13  15
ATOM     15  C   UNL d   1      58.993  -1.357  28.619  0.00  0.00     0.102 C 
BRANCH  15  16
ATOM     16  C   UNL d   1      59.352  -2.092  28.639  0.00  0.00     0.019 A 
ATOM     17  C   UNL d   1      60.154  -2.171  28.505  0.00  0.00     0.002 A 
ATOM     18  C   UNL d   1      60.513  -2.921  28.526  0.00  0.00     0.000 A 
ATOM     19  C   UNL d   1      60.046  -3.582  28.686  0.00  0.00     0.000 A 
ATOM     20  C   UNL d   1      59.243  -3.511  28.821  0.00  0.00     0.000 A 
ATOM     21  C   UNL d   1      58.885  -2.760  28.799  0.00  0.00     0.002 A 
ENDBRANCH  15  16
ENDBRANCH  13  15
ENDBRANCH  11  12
ENDBRANCH   6  11
BRANCH   4  22
ATOM     22  C   UNL d   1      56.332   0.062  33.052  0.00  0.00     0.085 A 
ATOM     23  C   UNL d   1      56.095  -0.728  33.171  0.00  0.00     0.019 A 
ATOM     24  C   UNL d   1      55.333  -0.888  33.422  0.00  0.00     0.002 A 
ATOM     25  C   UNL d   1      54.790  -0.259  33.560  0.00  0.00     0.000 A 
ATOM     26  C   UNL d   1      55.033   0.506  33.440  0.00  0.00     0.002 A 
ATOM     27  C   UNL d   1      55.797   0.677  33.188  0.00  0.00     0.019 A 
ENDBRANCH   4  22
TORSDOF 5
ENDMDL
MODEL 2
REMARK VINA RESULT:      -4.1      0.850      5.305
REMARK  5 active torsions:
REMARK  status: ('A' for Active; 'I' for Inactive)
REMARK    1  A    between atoms: C_12  and  N_4 
REMARK    2  A    between atoms: C_10  and  N_6 
REMARK    3  A    between atoms: C_11  and  C_10 
REMARK       I    between atoms: N_14  and  C_11 
REMARK    4  A    between atoms: C_16  and  N_14 
REMARK    5  A    between atoms: C_17  and  C_16 
ROOT
ATOM      1  C   UNL d   1      59.163  -1.445  29.416  0.00  0.00     0.172 A 
ATOM      2  C   UNL d   1      59.193  -0.666  29.146  0.00  0.00     0.113 A 
ATOM      3  N   UNL d   1      58.641  -1.654  30.014  0.00  0.00    -0.206 NA
ATOM      4  N   UNL d   1      59.720  -1.880  28.981  0.00  0.00    -0.212 N 
ATOM      5  C   UNL d   1      58.701  -0.097  29.473  0.00  0.00     0.271 A 
ATOM      6  N   UNL d   1      58.173  -0.303  30.076  0.00  0.00    -0.251 N 
ATOM      7  N   UNL d   1      60.081  -1.368  28.455  0.00  0.00    -0.162 NA
ATOM      8  C   UNL d   1      58.143  -1.082  30.346  0.00  0.00     0.187 A 
ATOM      9  C   UNL d   1      59.768  -0.634  28.549  0.00  0.00     0.129 A 
ATOM     10  O   UNL d   1      58.731   0.682  29.202  0.00  0.00    -0.266 OA
ENDROOT
BRANCH   6  11
ATOM     11  C   UNL d   1      57.669   0.270  30.414  0.00  0.00     0.147 C 
BRANCH  11  12
ATOM     12  C   UNL d   1      57.641   0.365  31.239  0.00  0.00     0.297 C 
ATOM     13  N   UNL d   1      56.913   0.310  31.623  0.00  0.00    -0.205 NA
ATOM     14  O   UNL d   1      58.329   0.510  31.655  0.00  0.00    -0.264 OA
BRANCH  13  15
ATOM     15  C   UNL d   1      56.885   0.405  32.448  0.00  0.00     0.102 C 
BRANCH  15  16
ATOM     16  C   UNL d   1      56.230   0.128  32.854  0.00  0.00     0.019 A 
ATOM     17  C   UNL d   1      56.098  -0.674  32.939  0.00  0.00     0.002 A 
ATOM     18  C   UNL d   1      55.431  -0.948  33.352  0.00  0.00     0.000 A 
ATOM     19  C   UNL d   1      54.906  -0.398  33.675  0.00  0.00     0.000 A 
ATOM     20  C   UNL d   1      55.032   0.405  33.594  0.00  0.00     0.000 A 
ATOM     21  C   UNL d   1      55.700   0.678  33.180  0.00  0.00     0.002 A 
ENDBRANCH  15  16
ENDBRANCH  13  15
ENDBRANCH  11  12
ENDBRANCH   6  11
BRANCH   4  22
ATOM     22  C   UNL d   1      59.904  -2.671  29.036  0.00  0.00     0.085 A 
ATOM     23  C   UNL d   1      59.485  -3.230  28.583  0.00  0.00     0.019 A 
ATOM     24  C   UNL d   1      59.675  -4.024  28.643  0.00  0.00     0.002 A 
ATOM     25  C   UNL d   1      60.291  -4.276  29.159  0.00  0.00     0.000 A 
ATOM     26  C   UNL d   1      60.692  -3.720  29.596  0.00  0.00     0.002 A 
ATOM     27  C   UNL d   1      60.508  -2.921  29.542  0.00  0.00     0.019 A 
ENDBRANCH   4  22
TORSDOF 5
ENDMDL
MODEL 3
REMARK VINA RESULT:      -2.8      1.304      2.056
REMARK  5 active torsions:
REMARK  status: ('A' for Active; 'I' for Inactive)
REMARK    1  A    between atoms: C_12  and  N_4 
REMARK    2  A    between atoms: C_10  and  N_6 
REMARK    3  A    between atoms: C_11  and  C_10 
REMARK       I    between atoms: N_14  and  C_11 
REMARK    4  A    between atoms: C_16  and  N_14 
REMARK    5  A    between atoms: C_17  and  C_16 
ROOT
ATOM      1  C   UNL d   1      56.185  -0.211  32.692  0.00  0.00     0.172 A 
ATOM      2  C   UNL d   1      56.355  -0.845  32.191  0.00  0.00     0.113 A 
ATOM      3  N   UNL d   1      56.415   0.550  32.488  0.00  0.00    -0.206 NA
ATOM      4  N   UNL d   1      55.781  -0.516  33.350  0.00  0.00    -0.212 N 
ATOM      5  C   UNL d   1      56.755  -0.717  31.487  0.00  0.00     0.271 A 
ATOM      6  N   UNL d   1      56.990   0.048  31.277  0.00  0.00    -0.251 N 
ATOM      7  N   UNL d   1      55.710  -1.325  33.246  0.00  0.00    -0.162 NA
ATOM      8  C   UNL d   1      56.819   0.682  31.777  0.00  0.00     0.187 A 
ATOM      9  C   UNL d   1      56.054  -1.530  32.549  0.00  0.00     0.129 A 
ATOM     10  O   UNL d   1      56.926  -1.351  30.987  0.00  0.00    -0.266 OA
ENDROOT
BRANCH   6  11
ATOM     11  C   UNL d   1      57.397   0.186  30.561  0.00  0.00     0.147 C 
BRANCH  11  12
ATOM     12  C   UNL d   1      58.226   0.246  30.560  0.00  0.00     0.297 C 
ATOM     13  N   UNL d   1      58.654  -0.139  29.969  0.00  0.00    -0.205 NA
ATOM     14  O   UNL d   1      58.603   0.682  31.139  0.00  0.00    -0.264 OA
BRANCH  13  15
ATOM     15  C   UNL d   1      59.483  -0.079  29.967  0.00  0.00     0.102 C 
BRANCH  15  16
ATOM     16  C   UNL d   1      59.915  -0.614  29.525  0.00  0.00     0.019 A 
ATOM     17  C   UNL d   1      59.617  -1.355  29.354  0.00  0.00     0.002 A 
ATOM     18  C   UNL d   1      60.061  -1.895  28.904  0.00  0.00     0.000 A 
ATOM     19  C   UNL d   1      60.807  -1.669  28.633  0.00  0.00     0.000 A 
ATOM     20  C   UNL d   1      61.113  -0.930  28.800  0.00  0.00     0.000 A 
ATOM     21  C   UNL d   1      60.667  -0.391  29.250  0.00  0.00     0.002 A 
ENDBRANCH  15  16
ENDBRANCH  13  15
ENDBRANCH  11  12
ENDBRANCH   6  11
BRANCH   4  22
ATOM     22  C   UNL d   1      55.493  -0.120  34.000  0.00  0.00     0.085 A 
ATOM     23  C   UNL d   1      54.744   0.245  33.968  0.00  0.00     0.019 A 
ATOM     24  C   UNL d   1      54.460   0.641  34.625  0.00  0.00     0.002 A 
ATOM     25  C   UNL d   1      54.920   0.682  35.329  0.00  0.00     0.000 A 
ATOM     26  C   UNL d   1      55.648   0.322  35.347  0.00  0.00     0.002 A 
ATOM     27  C   UNL d   1      55.942  -0.079  34.692  0.00  0.00     0.019 A 
ENDBRANCH   4  22
TORSDOF 5
ENDMDL
