MODEL 1
REMARK VINA RESULT:      13.9      0.000      0.000
REMARK  4 active torsions:
REMARK  status: ('A' for Active; 'I' for Inactive)
REMARK    1  A    between atoms: N_2  and  S_1 
REMARK    2  A    between atoms: C_3  and  S_1 
REMARK    3  A    between atoms: C_11  and  N_2 
REMARK    4  A    between atoms: C_6  and  C_7 
ROOT
ATOM      1  S   UNL d   1      45.607 -15.847  44.752  0.00  0.00     0.285 S 
ATOM      2  O   UNL d   1      46.414 -15.757  44.901  0.00  0.00    -0.198 OA
ATOM      3  O   UNL d   1      44.801 -15.937  44.604  0.00  0.00    -0.198 OA
ENDROOT
BRANCH   1   4
ATOM      4  N   UNL d   1      45.659 -16.645  44.954  0.00  0.00    -0.158 NA
BRANCH   4   5
ATOM      5  C   UNL d   1      45.869 -17.208  44.389  0.00  0.00     0.094 A 
ATOM      6  C   UNL d   1      45.593 -17.145  43.613  0.00  0.00     0.020 A 
ATOM      7  C   UNL d   1      45.805 -17.709  43.052  0.00  0.00     0.005 A 
ATOM      8  C   UNL d   1      46.299 -18.345  43.266  0.00  0.00     0.039 A 
ATOM      9  C   UNL d   1      46.574 -18.407  44.041  0.00  0.00     0.005 A 
ATOM     10  C   UNL d   1      46.365 -17.845  44.607  0.00  0.00     0.020 A 
BRANCH   8  11
ATOM     11  C   UNL d   1      46.517 -18.919  42.701  0.00  0.00     0.196 C 
ATOM     12  O   UNL d   1      46.647 -18.698  41.919  0.00  0.00    -0.287 OA
ATOM     13  C   UNL d   1      46.606 -19.722  42.922  0.00  0.00     0.045 C 
ENDBRANCH   8  11
ENDBRANCH   4   5
ENDBRANCH   1   4
BRANCH   1  14
ATOM     14  C   UNL d   1      45.555 -15.049  44.550  0.00  0.00     0.105 A 
ATOM     15  C   UNL d   1      44.839 -14.738  44.304  0.00  0.00     0.013 A 
ATOM     16  C   UNL d   1      44.787 -13.927  44.099  0.00  0.00     0.001 A 
ATOM     17  C   UNL d   1      45.452 -13.449  44.145  0.00  0.00     0.000 A 
ATOM     18  C   UNL d   1      46.176 -13.762  44.394  0.00  0.00     0.001 A 
ATOM     19  C   UNL d   1      45.400 -12.650  43.943  0.00  0.00     0.000 C 
ATOM     20  C   UNL d   1      46.229 -14.573  44.599  0.00  0.00     0.013 A 
ENDBRANCH   1  14
TORSDOF 4
ENDMDL
MODEL 2
REMARK VINA RESULT:      13.9      0.979      4.284
REMARK  4 active torsions:
REMARK  status: ('A' for Active; 'I' for Inactive)
REMARK    1  A    between atoms: N_2  and  S_1 
REMARK    2  A    between atoms: C_3  and  S_1 
REMARK    3  A    between atoms: C_11  and  N_2 
REMARK    4  A    between atoms: C_6  and  C_7 
ROOT
ATOM      1  S   UNL d   1      45.748 -16.883  44.431  0.00  0.00     0.285 S 
ATOM      2  O   UNL d   1      45.113 -16.691  43.941  0.00  0.00    -0.198 OA
ATOM      3  O   UNL d   1      46.384 -17.076  44.922  0.00  0.00    -0.198 OA
ENDROOT
BRANCH   1   4
ATOM      4  N   UNL d   1      45.525 -16.286  44.955  0.00  0.00    -0.158 NA
BRANCH   4   5
ATOM      5  C   UNL d   1      45.539 -15.495  44.718  0.00  0.00     0.094 A 
ATOM      6  C   UNL d   1      46.256 -15.112  44.580  0.00  0.00     0.020 A 
ATOM      7  C   UNL d   1      46.266 -14.324  44.345  0.00  0.00     0.005 A 
ATOM      8  C   UNL d   1      45.550 -13.910  44.245  0.00  0.00     0.039 A 
ATOM      9  C   UNL d   1      44.832 -14.293  44.384  0.00  0.00     0.005 A 
ATOM     10  C   UNL d   1      44.818 -15.083  44.620  0.00  0.00     0.020 A 
BRANCH   8  11
ATOM     11  C   UNL d   1      45.553 -13.111  44.007  0.00  0.00     0.196 C 
ATOM     12  O   UNL d   1      45.378 -12.913  43.228  0.00  0.00    -0.287 OA
ATOM     13  C   UNL d   1      45.733 -12.502  44.554  0.00  0.00     0.045 C 
ENDBRANCH   8  11
ENDBRANCH   4   5
ENDBRANCH   1   4
BRANCH   1  14
ATOM     14  C   UNL d   1      45.972 -17.481  43.908  0.00  0.00     0.105 A 
ATOM     15  C   UNL d   1      46.275 -18.184  44.199  0.00  0.00     0.013 A 
ATOM     16  C   UNL d   1      46.501 -18.790  43.668  0.00  0.00     0.001 A 
ATOM     17  C   UNL d   1      46.419 -18.679  42.859  0.00  0.00     0.000 A 
ATOM     18  C   UNL d   1      46.113 -17.969  42.564  0.00  0.00     0.001 A 
ATOM     19  C   UNL d   1      46.642 -19.276  42.335  0.00  0.00     0.000 C 
ATOM     20  C   UNL d   1      45.886 -17.362  43.095  0.00  0.00     0.013 A 
ENDBRANCH   1  14
TORSDOF 4
ENDMDL
