MODEL 1
REMARK VINA RESULT:      -3.6      0.000      0.000
REMARK  3 active torsions:
REMARK  status: ('A' for Active; 'I' for Inactive)
REMARK    1  A    between atoms: C_5  and  C_1 
REMARK    2  A    between atoms: C_4  and  C_6 
REMARK    3  A    between atoms: C_6  and  C_5 
ROOT
ATOM      1  C   UNL d   1      33.241  20.931 -21.701  0.00  0.00     0.068 C 
ENDROOT
BRANCH   1   2
ATOM      2  C   UNL d   1      33.181  20.248 -22.169  0.00  0.00     0.114 A 
ATOM      3  N   UNL d   1      33.086  20.228 -22.989  0.00  0.00    -0.238 NA
ATOM      4  C   UNL d   1      33.052  19.435 -23.220  0.00  0.00     0.088 A 
ATOM      5  C   UNL d   1      32.963  19.080 -23.960  0.00  0.00     0.020 A 
ATOM      6  C   UNL d   1      33.125  18.964 -22.546  0.00  0.00     0.049 A 
ATOM      7  C   UNL d   1      32.947  18.257 -24.026  0.00  0.00     0.002 A 
ATOM      8  C   UNL d   1      33.022  17.795 -23.348  0.00  0.00     0.001 A 
ATOM      9  C   UNL d   1      33.110  18.149 -22.611  0.00  0.00     0.008 A 
ATOM     10  S   UNL d   1      33.205  19.472 -21.893  0.00  0.00    -0.066 SA
ENDBRANCH   1   2
BRANCH   1  11
ATOM     11  C   UNL d   1      32.593  21.169 -21.241  0.00  0.00     0.201 C 
ATOM     12  O   UNL d   1      31.866  20.781 -21.306  0.00  0.00    -0.286 OA
BRANCH  11  13
ATOM     13  C   UNL d   1      32.678  21.804 -20.710  0.00  0.00     0.078 A 
ATOM     14  C   UNL d   1      32.289  22.528 -20.863  0.00  0.00     0.202 A 
ATOM     15  C   UNL d   1      32.371  23.159 -20.339  0.00  0.00     0.084 A 
ATOM     16  O   UNL d   1      31.823  22.611 -21.538  0.00  0.00    -0.286 OA
ATOM     17  C   UNL d   1      32.842  23.068 -19.662  0.00  0.00     0.199 A 
ATOM     18  C   UNL d   1      33.226  22.352 -19.511  0.00  0.00     0.042 A 
ATOM     19  O   UNL d   1      32.923  23.700 -19.138  0.00  0.00    -0.286 OA
ATOM     20  C   UNL d   1      33.145  21.720 -20.035  0.00  0.00     0.010 A 
ENDBRANCH  11  13
ENDBRANCH   1  11
TORSDOF 3
ENDMDL
MODEL 2
REMARK VINA RESULT:      -3.0      1.532      4.513
REMARK  3 active torsions:
REMARK  status: ('A' for Active; 'I' for Inactive)
REMARK    1  A    between atoms: C_5  and  C_1 
REMARK    2  A    between atoms: C_4  and  C_6 
REMARK    3  A    between atoms: C_6  and  C_5 
ROOT
ATOM      1  C   UNL d   1      32.557  20.306 -21.729  0.00  0.00     0.068 C 
ENDROOT
BRANCH   1   2
ATOM      2  C   UNL d   1      32.566  21.019 -21.305  0.00  0.00     0.114 A 
ATOM      3  N   UNL d   1      32.042  21.650 -21.405  0.00  0.00    -0.238 NA
ATOM      4  C   UNL d   1      32.256  22.242 -20.868  0.00  0.00     0.088 A 
ATOM      5  C   UNL d   1      31.938  22.988 -20.716  0.00  0.00     0.020 A 
ATOM      6  C   UNL d   1      32.910  21.980 -20.437  0.00  0.00     0.049 A 
ATOM      7  C   UNL d   1      32.272  23.471 -20.136  0.00  0.00     0.002 A 
ATOM      8  C   UNL d   1      32.925  23.201 -19.711  0.00  0.00     0.001 A 
ATOM      9  C   UNL d   1      33.241  22.458 -19.862  0.00  0.00     0.008 A 
ATOM     10  S   UNL d   1      33.101  21.219 -20.710  0.00  0.00    -0.066 SA
ENDBRANCH   1   2
BRANCH   1  11
ATOM     11  C   UNL d   1      32.932  20.266 -22.468  0.00  0.00     0.201 C 
ATOM     12  O   UNL d   1      33.229  20.949 -22.827  0.00  0.00    -0.286 OA
BRANCH  11  13
ATOM     13  C   UNL d   1      33.009  19.531 -22.850  0.00  0.00     0.078 A 
ATOM     14  C   UNL d   1      32.976  19.491 -23.684  0.00  0.00     0.202 A 
ATOM     15  C   UNL d   1      33.052  18.763 -24.066  0.00  0.00     0.084 A 
ATOM     16  O   UNL d   1      32.868  20.178 -24.126  0.00  0.00    -0.286 OA
ATOM     17  C   UNL d   1      33.161  18.076 -23.614  0.00  0.00     0.199 A 
ATOM     18  C   UNL d   1      33.193  18.116 -22.790  0.00  0.00     0.042 A 
ATOM     19  O   UNL d   1      33.236  17.349 -23.997  0.00  0.00    -0.286 OA
ATOM     20  C   UNL d   1      33.117  18.843 -22.407  0.00  0.00     0.010 A 
ENDBRANCH  11  13
ENDBRANCH   1  11
TORSDOF 3
ENDMDL
MODEL 3
REMARK VINA RESULT:      -2.5      2.123      5.108
REMARK  3 active torsions:
REMARK  status: ('A' for Active; 'I' for Inactive)
REMARK    1  A    between atoms: C_5  and  C_1 
REMARK    2  A    between atoms: C_4  and  C_6 
REMARK    3  A    between atoms: C_6  and  C_5 
ROOT
ATOM      1  C   UNL d   1      33.199  18.769 -23.233  0.00  0.00     0.068 C 
ENDROOT
BRANCH   1   2
ATOM      2  C   UNL d   1      33.181  19.447 -22.755  0.00  0.00     0.114 A 
ATOM      3  N   UNL d   1      33.100  19.459 -21.933  0.00  0.00    -0.238 NA
ATOM      4  C   UNL d   1      33.109  20.250 -21.691  0.00  0.00     0.088 A 
ATOM      5  C   UNL d   1      33.050  20.597 -20.945  0.00  0.00     0.020 A 
ATOM      6  C   UNL d   1      33.195  20.726 -22.359  0.00  0.00     0.049 A 
ATOM      7  C   UNL d   1      33.077  21.419 -20.867  0.00  0.00     0.002 A 
ATOM      8  C   UNL d   1      33.163  21.887 -21.540  0.00  0.00     0.001 A 
ATOM      9  C   UNL d   1      33.222  21.540 -22.282  0.00  0.00     0.008 A 
ATOM     10  S   UNL d   1      33.240  20.224 -23.020  0.00  0.00    -0.066 SA
ENDBRANCH   1   2
BRANCH   1  11
ATOM     11  C   UNL d   1      32.500  18.342 -23.364  0.00  0.00     0.201 C 
ATOM     12  O   UNL d   1      31.773  18.634 -23.098  0.00  0.00    -0.286 OA
BRANCH  11  13
ATOM     13  C   UNL d   1      32.532  17.615 -23.767  0.00  0.00     0.078 A 
ATOM     14  C   UNL d   1      32.039  17.484 -24.428  0.00  0.00     0.202 A 
ATOM     15  C   UNL d   1      32.068  16.764 -24.830  0.00  0.00     0.084 A 
ATOM     16  O   UNL d   1      31.521  18.075 -24.681  0.00  0.00    -0.286 OA
ATOM     17  C   UNL d   1      32.590  16.175 -24.570  0.00  0.00     0.199 A 
ATOM     18  C   UNL d   1      33.078  16.304 -23.916  0.00  0.00     0.042 A 
ATOM     19  O   UNL d   1      32.619  15.455 -24.972  0.00  0.00    -0.286 OA
ATOM     20  C   UNL d   1      33.049  17.024 -23.514  0.00  0.00     0.010 A 
ENDBRANCH  11  13
ENDBRANCH   1  11
TORSDOF 3
ENDMDL
MODEL 4
REMARK VINA RESULT:      -2.5      1.534      2.514
REMARK  3 active torsions:
REMARK  status: ('A' for Active; 'I' for Inactive)
REMARK    1  A    between atoms: C_5  and  C_1 
REMARK    2  A    between atoms: C_4  and  C_6 
REMARK    3  A    between atoms: C_6  and  C_5 
ROOT
ATOM      1  C   UNL d   1      33.169  19.162 -23.269  0.00  0.00     0.068 C 
ENDROOT
BRANCH   1   2
ATOM      2  C   UNL d   1      32.823  18.434 -23.466  0.00  0.00     0.114 A 
ATOM      3  N   UNL d   1      32.024  18.307 -23.637  0.00  0.00    -0.238 NA
ATOM      4  C   UNL d   1      31.927  17.502 -23.801  0.00  0.00     0.088 A 
ATOM      5  C   UNL d   1      31.261  17.059 -24.005  0.00  0.00     0.020 A 
ATOM      6  C   UNL d   1      32.661  17.131 -23.733  0.00  0.00     0.049 A 
ATOM      7  C   UNL d   1      31.330  16.247 -24.140  0.00  0.00     0.002 A 
ATOM      8  C   UNL d   1      32.067  15.885 -24.070  0.00  0.00     0.001 A 
ATOM      9  C   UNL d   1      32.729  16.327 -23.867  0.00  0.00     0.008 A 
ATOM     10  S   UNL d   1      33.217  17.713 -23.525  0.00  0.00    -0.066 SA
ENDBRANCH   1   2
BRANCH   1  11
ATOM     11  C   UNL d   1      33.179  19.408 -22.478  0.00  0.00     0.201 C 
ATOM     12  O   UNL d   1      33.188  18.854 -21.864  0.00  0.00    -0.286 OA
BRANCH  11  13
ATOM     13  C   UNL d   1      33.179  20.222 -22.301  0.00  0.00     0.078 A 
ATOM     14  C   UNL d   1      33.116  20.474 -21.507  0.00  0.00     0.202 A 
ATOM     15  C   UNL d   1      33.116  21.280 -21.329  0.00  0.00     0.084 A 
ATOM     16  O   UNL d   1      33.054  19.919 -20.901  0.00  0.00    -0.286 OA
ATOM     17  C   UNL d   1      33.179  21.832 -21.944  0.00  0.00     0.199 A 
ATOM     18  C   UNL d   1      33.241  21.583 -22.729  0.00  0.00     0.042 A 
ATOM     19  O   UNL d   1      33.179  22.638 -21.764  0.00  0.00    -0.286 OA
ATOM     20  C   UNL d   1      33.241  20.777 -22.908  0.00  0.00     0.010 A 
ENDBRANCH  11  13
ENDBRANCH   1  11
TORSDOF 3
ENDMDL
MODEL 5
REMARK VINA RESULT:      -1.5      4.334      6.238
REMARK  3 active torsions:
REMARK  status: ('A' for Active; 'I' for Inactive)
REMARK    1  A    between atoms: C_5  and  C_1 
REMARK    2  A    between atoms: C_4  and  C_6 
REMARK    3  A    between atoms: C_6  and  C_5 
ROOT
ATOM      1  C   UNL d   1      30.419  17.091 -24.744  0.00  0.00     0.068 C 
ENDROOT
BRANCH   1   2
ATOM      2  C   UNL d   1      31.081  17.552 -24.549  0.00  0.00     0.114 A 
ATOM      3  N   UNL d   1      31.449  17.586 -23.810  0.00  0.00    -0.238 NA
ATOM      4  C   UNL d   1      32.083  18.114 -23.869  0.00  0.00     0.088 A 
ATOM      5  C   UNL d   1      32.641  18.367 -23.316  0.00  0.00     0.020 A 
ATOM      6  C   UNL d   1      32.108  18.407 -24.640  0.00  0.00     0.049 A 
ATOM      7  C   UNL d   1      33.224  18.910 -23.534  0.00  0.00     0.002 A 
ATOM      8  C   UNL d   1      33.241  19.198 -24.307  0.00  0.00     0.001 A 
ATOM      9  C   UNL d   1      32.684  18.946 -24.856  0.00  0.00     0.008 A 
ATOM     10  S   UNL d   1      31.484  18.056 -25.062  0.00  0.00    -0.066 SA
ENDBRANCH   1   2
BRANCH   1  11
ATOM     11  C   UNL d   1      30.323  16.346 -24.390  0.00  0.00     0.201 C 
ATOM     12  O   UNL d   1      30.962  15.826 -24.323  0.00  0.00    -0.286 OA
BRANCH  11  13
ATOM     13  C   UNL d   1      29.575  16.123 -24.101  0.00  0.00     0.078 A 
ATOM     14  C   UNL d   1      29.517  15.690 -23.389  0.00  0.00     0.202 A 
ATOM     15  C   UNL d   1      28.778  15.467 -23.101  0.00  0.00     0.084 A 
ATOM     16  O   UNL d   1      30.200  15.485 -22.974  0.00  0.00    -0.286 OA
ATOM     17  C   UNL d   1      28.096  15.676 -23.523  0.00  0.00     0.199 A 
ATOM     18  C   UNL d   1      28.153  16.104 -24.228  0.00  0.00     0.042 A 
ATOM     19  O   UNL d   1      27.356  15.453 -23.234  0.00  0.00    -0.286 OA
ATOM     20  C   UNL d   1      28.893  16.328 -24.517  0.00  0.00     0.010 A 
ENDBRANCH  11  13
ENDBRANCH   1  11
TORSDOF 3
ENDMDL
MODEL 6
REMARK VINA RESULT:      -1.0      3.614      5.199
REMARK  3 active torsions:
REMARK  status: ('A' for Active; 'I' for Inactive)
REMARK    1  A    between atoms: C_5  and  C_1 
REMARK    2  A    between atoms: C_4  and  C_6 
REMARK    3  A    between atoms: C_6  and  C_5 
ROOT
ATOM      1  C   UNL d   1      31.381  16.671 -23.780  0.00  0.00     0.068 C 
ENDROOT
BRANCH   1   2
ATOM      2  C   UNL d   1      30.607  16.406 -23.920  0.00  0.00     0.114 A 
ATOM      3  N   UNL d   1      29.989  16.402 -23.372  0.00  0.00    -0.238 NA
ATOM      4  C   UNL d   1      29.320  16.093 -23.748  0.00  0.00     0.088 A 
ATOM      5  C   UNL d   1      28.552  15.958 -23.480  0.00  0.00     0.020 A 
ATOM      6  C   UNL d   1      29.522  15.906 -24.526  0.00  0.00     0.049 A 
ATOM      7  C   UNL d   1      27.986  15.636 -23.989  0.00  0.00     0.002 A 
ATOM      8  C   UNL d   1      28.197  15.453 -24.765  0.00  0.00     0.001 A 
ATOM      9  C   UNL d   1      28.962  15.587 -25.030  0.00  0.00     0.008 A 
ATOM     10  S   UNL d   1      30.323  16.101 -24.631  0.00  0.00    -0.066 SA
ENDBRANCH   1   2
BRANCH   1  11
ATOM     11  C   UNL d   1      31.694  17.281 -24.247  0.00  0.00     0.201 C 
ATOM     12  O   UNL d   1      31.622  17.259 -25.071  0.00  0.00    -0.286 OA
BRANCH  11  13
ATOM     13  C   UNL d   1      32.084  17.919 -23.882  0.00  0.00     0.078 A 
ATOM     14  C   UNL d   1      32.130  18.655 -24.272  0.00  0.00     0.202 A 
ATOM     15  C   UNL d   1      32.516  19.290 -23.913  0.00  0.00     0.084 A 
ATOM     16  O   UNL d   1      31.791  18.750 -25.018  0.00  0.00    -0.286 OA
ATOM     17  C   UNL d   1      32.855  19.187 -23.163  0.00  0.00     0.199 A 
ATOM     18  C   UNL d   1      32.809  18.459 -22.776  0.00  0.00     0.042 A 
ATOM     19  O   UNL d   1      33.241  19.822 -22.803  0.00  0.00    -0.286 OA
ATOM     20  C   UNL d   1      32.423  17.823 -23.136  0.00  0.00     0.010 A 
ENDBRANCH  11  13
ENDBRANCH   1  11
TORSDOF 3
ENDMDL
MODEL 7
REMARK VINA RESULT:      -0.6      2.544      4.848
REMARK  3 active torsions:
REMARK  status: ('A' for Active; 'I' for Inactive)
REMARK    1  A    between atoms: C_5  and  C_1 
REMARK    2  A    between atoms: C_4  and  C_6 
REMARK    3  A    between atoms: C_6  and  C_5 
ROOT
ATOM      1  C   UNL d   1      32.351  22.625 -20.017  0.00  0.00     0.068 C 
ENDROOT
BRANCH   1   2
ATOM      2  C   UNL d   1      32.516  22.720 -19.210  0.00  0.00     0.114 A 
ATOM      3  N   UNL d   1      32.352  23.391 -18.756  0.00  0.00    -0.238 NA
ATOM      4  C   UNL d   1      32.609  23.242 -17.984  0.00  0.00     0.088 A 
ATOM      5  C   UNL d   1      32.590  23.702 -17.300  0.00  0.00     0.020 A 
ATOM      6  C   UNL d   1      32.932  22.482 -17.959  0.00  0.00     0.049 A 
ATOM      7  C   UNL d   1      32.894  23.405 -16.592  0.00  0.00     0.002 A 
ATOM      8  C   UNL d   1      33.214  22.646 -16.576  0.00  0.00     0.001 A 
ATOM      9  C   UNL d   1      33.233  22.188 -17.257  0.00  0.00     0.008 A 
ATOM     10  S   UNL d   1      32.873  22.160 -18.722  0.00  0.00    -0.066 SA
ENDBRANCH   1   2
BRANCH   1  11
ATOM     11  C   UNL d   1      32.836  22.134 -20.478  0.00  0.00     0.201 C 
ATOM     12  O   UNL d   1      33.241  21.500 -20.134  0.00  0.00    -0.286 OA
BRANCH  11  13
ATOM     13  C   UNL d   1      32.913  22.282 -21.293  0.00  0.00     0.078 A 
ATOM     14  C   UNL d   1      32.817  21.657 -21.840  0.00  0.00     0.202 A 
ATOM     15  C   UNL d   1      32.894  21.801 -22.648  0.00  0.00     0.084 A 
ATOM     16  O   UNL d   1      32.645  20.897 -21.571  0.00  0.00    -0.286 OA
ATOM     17  C   UNL d   1      33.067  22.568 -22.911  0.00  0.00     0.199 A 
ATOM     18  C   UNL d   1      33.162  23.186 -22.371  0.00  0.00     0.042 A 
ATOM     19  O   UNL d   1      33.143  22.711 -23.720  0.00  0.00    -0.286 OA
ATOM     20  C   UNL d   1      33.085  23.043 -21.561  0.00  0.00     0.010 A 
ENDBRANCH  11  13
ENDBRANCH   1  11
TORSDOF 3
ENDMDL
