MODEL 1
REMARK VINA RESULT:      85.8      0.000      0.000
REMARK  4 active torsions:
REMARK  status: ('A' for Active; 'I' for Inactive)
REMARK    1  A    between atoms: C_2  and  S_1 
REMARK    2  A    between atoms: N_3  and  S_1 
REMARK    3  A    between atoms: C_12  and  N_3 
REMARK    4  A    between atoms: N_4  and  C_8 
ROOT
ATOM      1  S   UNL d   1      61.249  48.066  50.263  0.00  0.00     0.285 S 
ATOM      2  O   UNL d   1      60.699  47.705  50.813  0.00  0.00    -0.198 OA
ATOM      3  O   UNL d   1      61.769  48.412  49.743  0.00  0.00    -0.198 OA
ENDROOT
BRANCH   1   4
ATOM      4  C   UNL d   1      61.513  47.329  50.085  0.00  0.00     0.105 A 
ATOM      5  C   UNL d   1      61.263  46.658  50.488  0.00  0.00     0.013 A 
ATOM      6  C   UNL d   1      61.541  45.899  50.298  0.00  0.00     0.001 A 
ATOM      7  C   UNL d   1      61.275  45.245  50.717  0.00  0.00     0.000 A 
ATOM      8  C   UNL d   1      62.082  45.814  49.689  0.00  0.00     0.000 A 
ATOM      9  C   UNL d   1      61.552  44.490  50.526  0.00  0.00     0.000 A 
ATOM     10  C   UNL d   1      62.114  44.403  49.893  0.00  0.00     0.000 A 
ATOM     11  C   UNL d   1      62.366  45.068  49.489  0.00  0.00     0.000 A 
ATOM     12  C   UNL d   1      62.346  46.487  49.269  0.00  0.00     0.001 A 
ATOM     13  C   UNL d   1      62.081  47.244  49.445  0.00  0.00     0.013 A 
ENDBRANCH   1   4
BRANCH   1  14
ATOM     14  N   UNL d   1      60.950  48.830  50.472  0.00  0.00    -0.158 NA
BRANCH  14  15
ATOM     15  C   UNL d   1      60.154  48.973  50.494  0.00  0.00     0.094 A 
ATOM     16  C   UNL d   1      59.712  49.098  49.815  0.00  0.00     0.021 A 
ATOM     17  C   UNL d   1      58.900  49.245  49.818  0.00  0.00     0.019 A 
ATOM     18  C   UNL d   1      58.505  49.268  50.568  0.00  0.00     0.064 A 
ATOM     19  C   UNL d   1      58.934  49.145  51.256  0.00  0.00     0.019 A 
ATOM     20  C   UNL d   1      59.763  48.995  51.249  0.00  0.00     0.021 A 
BRANCH  18  21
ATOM     21  N   UNL d   1      57.689  49.415  50.590  0.00  0.00    -0.300 N 
ATOM     22  C   UNL d   1      57.235  49.532  49.905  0.00  0.00     0.107 A 
ATOM     23  C   UNL d   1      56.434  49.676  49.940  0.00  0.00     0.142 A 
ATOM     24  O   UNL d   1      56.051  49.708  50.666  0.00  0.00    -0.300 OA
ATOM     25  C   UNL d   1      56.476  49.595  51.365  0.00  0.00     0.142 A 
ATOM     26  C   UNL d   1      57.301  49.447  51.335  0.00  0.00     0.107 A 
ENDBRANCH  18  21
ENDBRANCH  14  15
ENDBRANCH   1  14
TORSDOF 4
ENDMDL
