MODEL 1
REMARK VINA RESULT:      -6.2      0.000      0.000
REMARK  6 active torsions:
REMARK  status: ('A' for Active; 'I' for Inactive)
REMARK    1  A    between atoms: N_6  and  C_1 
REMARK    2  A    between atoms: C_18  and  N_4 
REMARK       I    between atoms: C_8  and  N_6 
REMARK    3  A    between atoms: C_7  and  C_8 
REMARK    4  A    between atoms: C_11  and  C_7 
REMARK    5  A    between atoms: C_19  and  C_9 
REMARK    6  A    between atoms: C_12  and  C_11 
ROOT
ATOM      1  C   UNL d   1     -44.632  12.851  22.191  0.00  0.00     0.128 C 
ATOM      2  C   UNL d   1     -44.263  12.181  22.451  0.00  0.00     0.106 C 
ATOM      3  N   UNL d   1     -43.824  11.499  22.715  0.00  0.00    -0.191 NA
ENDROOT
BRANCH   1   4
ATOM      4  C   UNL d   1     -45.471  12.883  22.193  0.00  0.00     0.289 C 
ATOM      5  N   UNL d   1     -45.844  13.117  22.888  0.00  0.00    -0.201 NA
ATOM      6  O   UNL d   1     -45.888  12.693  21.546  0.00  0.00    -0.264 OA
BRANCH   5   7
ATOM      7  C   UNL d   1     -46.688  13.151  22.895  0.00  0.00     0.160 A 
ATOM      8  C   UNL d   1     -47.238  12.537  22.936  0.00  0.00     0.298 A 
ATOM      9  N   UNL d   1     -47.990  12.893  22.924  0.00  0.00    -0.209 N 
ATOM     10  O   UNL d   1     -47.102  11.755  22.978  0.00  0.00    -0.263 OA
ATOM     11  N   UNL d   1     -47.856  13.700  22.878  0.00  0.00    -0.238 N 
ATOM     12  C   UNL d   1     -47.068  13.895  22.858  0.00  0.00     0.104 A 
ATOM     13  C   UNL d   1     -48.493  14.283  22.852  0.00  0.00     0.120 C 
ATOM     14  C   UNL d   1     -46.750  14.655  22.812  0.00  0.00     0.022 C 
BRANCH   9  15
ATOM     15  C   UNL d   1     -48.742  12.556  22.951  0.00  0.00     0.085 A 
ATOM     16  C   UNL d   1     -49.138  12.415  22.241  0.00  0.00     0.019 A 
ATOM     17  C   UNL d   1     -49.903  12.073  22.261  0.00  0.00     0.002 A 
ATOM     18  C   UNL d   1     -50.250  11.881  22.979  0.00  0.00     0.000 A 
ATOM     19  C   UNL d   1     -49.843  12.027  23.696  0.00  0.00     0.002 A 
ATOM     20  C   UNL d   1     -49.090  12.364  23.670  0.00  0.00     0.019 A 
ENDBRANCH   9  15
ENDBRANCH   5   7
ENDBRANCH   1   4
BRANCH   1  21
ATOM     21  C   UNL d   1     -44.228  13.515  21.919  0.00  0.00     0.040 C 
BRANCH  21  22
ATOM     22  C   UNL d   1     -43.471  13.426  21.503  0.00  0.00     0.101 A 
ATOM     23  O   UNL d   1     -42.762  13.901  21.607  0.00  0.00    -0.307 OA
ATOM     24  C   UNL d   1     -42.194  13.602  21.089  0.00  0.00     0.100 A 
ATOM     25  C   UNL d   1     -42.532  12.977  20.688  0.00  0.00     0.027 A 
ATOM     26  C   UNL d   1     -43.316  12.892  20.962  0.00  0.00     0.027 A 
BRANCH  24  27
ATOM     27  C   UNL d   1     -41.413  13.907  21.011  0.00  0.00     0.023 A 
ATOM     28  C   UNL d   1     -41.233  14.383  20.375  0.00  0.00     0.003 A 
ATOM     29  C   UNL d   1     -40.452  14.689  20.297  0.00  0.00     0.011 A 
ATOM     30  C   UNL d   1     -39.893  14.502  20.858  0.00  0.00     0.058 A 
ATOM     31  C   UNL d   1     -40.073  14.027  21.493  0.00  0.00     0.011 A 
ATOM     32 CL   UNL d   1     -39.111  14.808  20.779  0.00  0.00    -0.082 Cl
ATOM     33  C   UNL d   1     -40.854  13.721  21.571  0.00  0.00     0.003 A 
ENDBRANCH  24  27
ENDBRANCH  21  22
ENDBRANCH   1  21
TORSDOF 6
ENDMDL
MODEL 2
REMARK VINA RESULT:      -5.2      3.400      7.877
REMARK  6 active torsions:
REMARK  status: ('A' for Active; 'I' for Inactive)
REMARK    1  A    between atoms: N_6  and  C_1 
REMARK    2  A    between atoms: C_18  and  N_4 
REMARK       I    between atoms: C_8  and  N_6 
REMARK    3  A    between atoms: C_7  and  C_8 
REMARK    4  A    between atoms: C_11  and  C_7 
REMARK    5  A    between atoms: C_19  and  C_9 
REMARK    6  A    between atoms: C_12  and  C_11 
ROOT
ATOM      1  C   UNL d   1     -41.305  14.446  20.860  0.00  0.00     0.128 C 
ATOM      2  C   UNL d   1     -41.674  15.162  20.923  0.00  0.00     0.106 C 
ATOM      3  N   UNL d   1     -42.097  15.895  21.031  0.00  0.00    -0.191 NA
ENDROOT
BRANCH   1   4
ATOM      4  C   UNL d   1     -40.689  14.352  20.297  0.00  0.00     0.289 C 
ATOM      5  N   UNL d   1     -40.598  14.938  19.726  0.00  0.00    -0.201 NA
ATOM      6  O   UNL d   1     -40.211  13.720  20.318  0.00  0.00    -0.264 OA
BRANCH   5   7
ATOM      7  C   UNL d   1     -39.980  14.848  19.158  0.00  0.00     0.160 A 
ATOM      8  C   UNL d   1     -39.956  14.382  18.477  0.00  0.00     0.298 A 
ATOM      9  N   UNL d   1     -39.211  14.511  18.130  0.00  0.00    -0.209 N 
ATOM     10  O   UNL d   1     -40.519  13.900  18.190  0.00  0.00    -0.263 OA
ATOM     11  N   UNL d   1     -38.825  15.045  18.617  0.00  0.00    -0.238 N 
ATOM     12  C   UNL d   1     -39.267  15.274  19.258  0.00  0.00     0.104 A 
ATOM     13  C   UNL d   1     -38.026  15.334  18.460  0.00  0.00     0.120 C 
ATOM     14  C   UNL d   1     -39.040  15.802  19.850  0.00  0.00     0.022 C 
BRANCH   9  15
ATOM     15  C   UNL d   1     -38.878  14.195  17.444  0.00  0.00     0.085 A 
ATOM     16  C   UNL d   1     -38.986  14.598  16.731  0.00  0.00     0.019 A 
ATOM     17  C   UNL d   1     -38.651  14.284  16.031  0.00  0.00     0.002 A 
ATOM     18  C   UNL d   1     -38.222  13.584  16.056  0.00  0.00     0.000 A 
ATOM     19  C   UNL d   1     -38.117  13.181  16.782  0.00  0.00     0.002 A 
ATOM     20  C   UNL d   1     -38.449  13.496  17.469  0.00  0.00     0.019 A 
ENDBRANCH   9  15
ENDBRANCH   5   7
ENDBRANCH   1   4
BRANCH   1  21
ATOM     21  C   UNL d   1     -41.500  13.793  21.322  0.00  0.00     0.040 C 
BRANCH  21  22
ATOM     22  C   UNL d   1     -42.290  13.437  21.265  0.00  0.00     0.101 A 
ATOM     23  O   UNL d   1     -42.942  13.527  21.819  0.00  0.00    -0.307 OA
ATOM     24  C   UNL d   1     -43.571  13.084  21.523  0.00  0.00     0.100 A 
ATOM     25  C   UNL d   1     -43.323  12.739  20.826  0.00  0.00     0.027 A 
ATOM     26  C   UNL d   1     -42.533  12.973  20.692  0.00  0.00     0.027 A 
BRANCH  24  27
ATOM     27  C   UNL d   1     -44.323  13.018  21.896  0.00  0.00     0.023 A 
ATOM     28  C   UNL d   1     -44.851  13.636  21.843  0.00  0.00     0.003 A 
ATOM     29  C   UNL d   1     -45.603  13.570  22.215  0.00  0.00     0.011 A 
ATOM     30  C   UNL d   1     -45.788  12.889  22.622  0.00  0.00     0.058 A 
ATOM     31  C   UNL d   1     -45.261  12.272  22.675  0.00  0.00     0.011 A 
ATOM     32 CL   UNL d   1     -46.541  12.823  22.995  0.00  0.00    -0.082 Cl
ATOM     33  C   UNL d   1     -44.509  12.338  22.302  0.00  0.00     0.003 A 
ENDBRANCH  24  27
ENDBRANCH  21  22
ENDBRANCH   1  21
TORSDOF 6
ENDMDL
MODEL 3
REMARK VINA RESULT:      -4.7      2.585      7.096
REMARK  6 active torsions:
REMARK  status: ('A' for Active; 'I' for Inactive)
REMARK    1  A    between atoms: N_6  and  C_1 
REMARK    2  A    between atoms: C_18  and  N_4 
REMARK       I    between atoms: C_8  and  N_6 
REMARK    3  A    between atoms: C_7  and  C_8 
REMARK    4  A    between atoms: C_11  and  C_7 
REMARK    5  A    between atoms: C_19  and  C_9 
REMARK    6  A    between atoms: C_12  and  C_11 
ROOT
ATOM      1  C   UNL d   1     -42.951  12.983  21.611  0.00  0.00     0.128 C 
ATOM      2  C   UNL d   1     -42.954  12.269  21.989  0.00  0.00     0.106 C 
ATOM      3  N   UNL d   1     -43.005  11.531  22.413  0.00  0.00    -0.191 NA
ENDROOT
BRANCH   1   4
ATOM      4  C   UNL d   1     -42.326  13.162  21.079  0.00  0.00     0.289 C 
ATOM      5  N   UNL d   1     -41.892  13.848  21.213  0.00  0.00    -0.201 NA
ATOM      6  O   UNL d   1     -42.161  12.683  20.468  0.00  0.00    -0.264 OA
BRANCH   5   7
ATOM      7  C   UNL d   1     -41.263  14.032  20.680  0.00  0.00     0.160 A 
ATOM      8  C   UNL d   1     -41.283  14.144  19.862  0.00  0.00     0.298 A 
ATOM      9  N   UNL d   1     -40.502  14.312  19.629  0.00  0.00    -0.209 N 
ATOM     10  O   UNL d   1     -41.909  14.105  19.375  0.00  0.00    -0.263 OA
ATOM     11  N   UNL d   1     -40.053  14.293  20.315  0.00  0.00    -0.238 N 
ATOM     12  C   UNL d   1     -40.487  14.124  20.979  0.00  0.00     0.104 A 
ATOM     13  C   UNL d   1     -39.201  14.438  20.325  0.00  0.00     0.120 C 
ATOM     14  C   UNL d   1     -40.203  14.063  21.752  0.00  0.00     0.022 C 
BRANCH   9  15
ATOM     15  C   UNL d   1     -40.189  14.472  18.883  0.00  0.00     0.085 A 
ATOM     16  C   UNL d   1     -40.219  15.246  18.599  0.00  0.00     0.019 A 
ATOM     17  C   UNL d   1     -39.903  15.416  17.842  0.00  0.00     0.002 A 
ATOM     18  C   UNL d   1     -39.569  14.817  17.391  0.00  0.00     0.000 A 
ATOM     19  C   UNL d   1     -39.542  14.033  17.685  0.00  0.00     0.002 A 
ATOM     20  C   UNL d   1     -39.855  13.873  18.431  0.00  0.00     0.019 A 
ENDBRANCH   9  15
ENDBRANCH   5   7
ENDBRANCH   1   4
BRANCH   1  21
ATOM     21  C   UNL d   1     -43.533  13.555  21.718  0.00  0.00     0.040 C 
BRANCH  21  22
ATOM     22  C   UNL d   1     -44.371  13.327  21.746  0.00  0.00     0.101 A 
ATOM     23  O   UNL d   1     -44.976  13.634  22.274  0.00  0.00    -0.307 OA
ATOM     24  C   UNL d   1     -45.678  13.246  22.085  0.00  0.00     0.100 A 
ATOM     25  C   UNL d   1     -45.517  12.729  21.475  0.00  0.00     0.027 A 
ATOM     26  C   UNL d   1     -44.707  12.800  21.287  0.00  0.00     0.027 A 
BRANCH  24  27
ATOM     27  C   UNL d   1     -46.414  13.380  22.471  0.00  0.00     0.023 A 
ATOM     28  C   UNL d   1     -46.776  12.766  22.866  0.00  0.00     0.003 A 
ATOM     29  C   UNL d   1     -47.512  12.901  23.252  0.00  0.00     0.011 A 
ATOM     30  C   UNL d   1     -47.848  13.642  23.223  0.00  0.00     0.058 A 
ATOM     31  C   UNL d   1     -47.487  14.255  22.828  0.00  0.00     0.011 A 
ATOM     32 CL   UNL d   1     -48.586  13.777  23.609  0.00  0.00    -0.082 Cl
ATOM     33  C   UNL d   1     -46.751  14.120  22.442  0.00  0.00     0.003 A 
ENDBRANCH  24  27
ENDBRANCH  21  22
ENDBRANCH   1  21
TORSDOF 6
ENDMDL
MODEL 4
REMARK VINA RESULT:      -4.5      2.509      7.097
REMARK  6 active torsions:
REMARK  status: ('A' for Active; 'I' for Inactive)
REMARK    1  A    between atoms: N_6  and  C_1 
REMARK    2  A    between atoms: C_18  and  N_4 
REMARK       I    between atoms: C_8  and  N_6 
REMARK    3  A    between atoms: C_7  and  C_8 
REMARK    4  A    between atoms: C_11  and  C_7 
REMARK    5  A    between atoms: C_19  and  C_9 
REMARK    6  A    between atoms: C_12  and  C_11 
ROOT
ATOM      1  C   UNL d   1     -43.368  12.863  21.574  0.00  0.00     0.128 C 
ATOM      2  C   UNL d   1     -43.262  12.179  21.991  0.00  0.00     0.106 C 
ATOM      3  N   UNL d   1     -43.205  11.446  22.423  0.00  0.00    -0.191 NA
ENDROOT
BRANCH   1   4
ATOM      4  C   UNL d   1     -42.715  13.378  21.460  0.00  0.00     0.289 C 
ATOM      5  N   UNL d   1     -42.089  13.108  21.000  0.00  0.00    -0.201 NA
ATOM      6  O   UNL d   1     -42.704  14.101  21.787  0.00  0.00    -0.264 OA
BRANCH   5   7
ATOM      7  C   UNL d   1     -41.429  13.623  20.883  0.00  0.00     0.160 A 
ATOM      8  C   UNL d   1     -40.835  13.845  21.412  0.00  0.00     0.298 A 
ATOM      9  N   UNL d   1     -40.332  14.361  20.997  0.00  0.00    -0.209 N 
ATOM     10  O   UNL d   1     -40.742  13.623  22.169  0.00  0.00    -0.263 OA
ATOM     11  N   UNL d   1     -40.646  14.425  20.243  0.00  0.00    -0.238 N 
ATOM     12  C   UNL d   1     -41.320  13.985  20.137  0.00  0.00     0.104 A 
ATOM     13  C   UNL d   1     -40.292  14.913  19.624  0.00  0.00     0.120 C 
ATOM     14  C   UNL d   1     -41.768  13.928  19.446  0.00  0.00     0.022 C 
BRANCH   9  15
ATOM     15  C   UNL d   1     -39.649  14.754  21.242  0.00  0.00     0.085 A 
ATOM     16  C   UNL d   1     -38.916  14.414  21.077  0.00  0.00     0.019 A 
ATOM     17  C   UNL d   1     -38.219  14.808  21.323  0.00  0.00     0.002 A 
ATOM     18  C   UNL d   1     -38.268  15.523  21.723  0.00  0.00     0.000 A 
ATOM     19  C   UNL d   1     -39.015  15.863  21.888  0.00  0.00     0.002 A 
ATOM     20  C   UNL d   1     -39.698  15.470  21.643  0.00  0.00     0.019 A 
ENDBRANCH   9  15
ENDBRANCH   5   7
ENDBRANCH   1   4
BRANCH   1  21
ATOM     21  C   UNL d   1     -44.090  13.089  21.248  0.00  0.00     0.040 C 
BRANCH  21  22
ATOM     22  C   UNL d   1     -44.782  13.208  21.760  0.00  0.00     0.101 A 
ATOM     23  O   UNL d   1     -45.399  12.639  21.941  0.00  0.00    -0.307 OA
ATOM     24  C   UNL d   1     -45.931  13.013  22.448  0.00  0.00     0.100 A 
ATOM     25  C   UNL d   1     -45.658  13.772  22.574  0.00  0.00     0.027 A 
ATOM     26  C   UNL d   1     -44.951  13.864  22.139  0.00  0.00     0.027 A 
BRANCH  24  27
ATOM     27  C   UNL d   1     -46.622  12.652  22.764  0.00  0.00     0.023 A 
ATOM     28  C   UNL d   1     -47.351  12.848  22.457  0.00  0.00     0.003 A 
ATOM     29  C   UNL d   1     -48.043  12.487  22.773  0.00  0.00     0.011 A 
ATOM     30  C   UNL d   1     -47.970  11.948  23.380  0.00  0.00     0.058 A 
ATOM     31  C   UNL d   1     -47.242  11.753  23.686  0.00  0.00     0.011 A 
ATOM     32 CL   UNL d   1     -48.663  11.587  23.696  0.00  0.00    -0.082 Cl
ATOM     33  C   UNL d   1     -46.550  12.114  23.370  0.00  0.00     0.003 A 
ENDBRANCH  24  27
ENDBRANCH  21  22
ENDBRANCH   1  21
TORSDOF 6
ENDMDL
