MODEL 1
REMARK VINA RESULT:      87.1      0.000      0.000
REMARK  4 active torsions:
REMARK  status: ('A' for Active; 'I' for Inactive)
REMARK    1  A    between atoms: C_15  and  N_5 
REMARK    2  A    between atoms: N_13  and  C_7 
REMARK    3  A    between atoms: C_18  and  N_13 
REMARK    4  A    between atoms: C_16  and  C_15 
ROOT
ATOM      1  N   UNL d   1     -48.356  29.627  34.747  0.00  0.00     0.039 N 
ATOM      2  C   UNL d   1     -47.922  29.385  35.403  0.00  0.00     0.755 A 
ATOM      3  C   UNL d   1     -48.307  30.391  34.465  0.00  0.00     0.134 A 
ATOM      4  C   UNL d   1     -47.812  30.939  34.841  0.00  0.00     0.081 A 
ATOM      5  N   UNL d   1     -47.425  29.933  35.782  0.00  0.00    -0.103 N 
ATOM      6  C   UNL d   1     -47.372  30.710  35.500  0.00  0.00     0.281 A 
ATOM      7  C   UNL d   1     -48.790  28.978  34.491  0.00  0.00     0.768 A 
ATOM      8  N   UNL d   1     -48.089  28.598  35.547  0.00  0.00     0.060 NA
ATOM      9  S   UNL d   1     -48.669  30.774  33.835  0.00  0.00    -0.068 SA
ATOM     10  N   UNL d   1     -48.626  28.344  34.983  0.00  0.00     0.061 NA
ATOM     11  C   UNL d   1     -47.871  31.658  34.443  0.00  0.00     0.013 A 
ATOM     12  C   UNL d   1     -48.402  31.557  33.820  0.00  0.00     0.031 A 
ATOM     13  O   UNL d   1     -46.878  31.258  35.876  0.00  0.00    -0.266 OA
ATOM     14  C   UNL d   1     -47.514  32.388  34.564  0.00  0.00     0.001 A 
ATOM     15  C   UNL d   1     -48.580  32.184  33.313  0.00  0.00     0.006 A 
ATOM     16  C   UNL d   1     -47.687  33.018  34.063  0.00  0.00     0.000 A 
ATOM     17  C   UNL d   1     -48.222  32.915  33.435  0.00  0.00     0.001 A 
ENDROOT
BRANCH   7  18
ATOM     18  N   UNL d   1     -49.308  28.968  33.843  0.00  0.00    -0.059 NA
BRANCH  18  19
ATOM     19  C   UNL d   1     -49.750  28.286  33.670  0.00  0.00     0.100 A 
ATOM     20  C   UNL d   1     -50.562  28.356  33.520  0.00  0.00     0.020 A 
ATOM     21  C   UNL d   1     -51.008  27.680  33.348  0.00  0.00     0.002 A 
ATOM     22  C   UNL d   1     -50.636  26.940  33.327  0.00  0.00     0.000 A 
ATOM     23  C   UNL d   1     -49.821  26.873  33.478  0.00  0.00     0.002 A 
ATOM     24  C   UNL d   1     -49.379  27.555  33.650  0.00  0.00     0.020 A 
ENDBRANCH  18  19
ENDBRANCH   7  18
BRANCH   5  25
ATOM     25  C   UNL d   1     -46.987  29.704  36.438  0.00  0.00     0.101 C 
BRANCH  25  26
ATOM     26  C   UNL d   1     -47.132  30.044  37.174  0.00  0.00     0.020 C 
ATOM     27  C   UNL d   1     -46.605  29.936  37.797  0.00  0.00     0.002 C 
ENDBRANCH  25  26
ENDBRANCH   5  25
TORSDOF 4
ENDMDL
