MODEL 1
REMARK VINA RESULT:      39.4      0.000      0.000
REMARK  9 active torsions:
REMARK  status: ('A' for Active; 'I' for Inactive)
REMARK    1  A    between atoms: N_6  and  C_1 
REMARK    2  A    between atoms: N_2  and  C_12 
REMARK    3  A    between atoms: C_3  and  N_6 
REMARK    4  A    between atoms: N_4  and  C_3 
REMARK       I    between atoms: C_7  and  N_4 
REMARK    5  A    between atoms: C_16  and  C_7 
REMARK    6  A    between atoms: C_10  and  C_8 
REMARK    7  A    between atoms: C_13  and  C_10 
REMARK    8  A    between atoms: O_24  and  C_13 
REMARK    9  A    between atoms: C_25  and  O_24 
ROOT
ATOM      1  C   UNL d   1      13.186  12.453  -3.758  0.00  0.00     0.277 C 
ATOM      2  S   UNL d   1      13.105  11.820  -4.281  0.00  0.00    -0.023 SA
ENDROOT
BRANCH   1   3
ATOM      3  N   UNL d   1      13.267  12.309  -2.949  0.00  0.00    -0.347 NA
BRANCH   3   4
ATOM      4  C   UNL d   1      13.351  12.160  -2.144  0.00  0.00     0.248 A 
ATOM      5  N   UNL d   1      14.029  12.294  -1.683  0.00  0.00    -0.210 NA
ATOM      6  C   UNL d   1      13.860  12.065  -0.909  0.00  0.00     0.096 A 
ATOM      7  C   UNL d   1      13.081  11.791  -0.891  0.00  0.00     0.059 A 
ATOM      8  S   UNL d   1      12.771  11.849  -1.644  0.00  0.00    -0.033 SA
BRANCH   6   9
ATOM      9  C   UNL d   1      14.377  12.105  -0.273  0.00  0.00     0.088 C 
BRANCH   9  10
ATOM     10  C   UNL d   1      15.141  12.391  -0.373  0.00  0.00     0.302 C 
ATOM     11  O   UNL d   1      15.780  11.923  -0.147  0.00  0.00    -0.259 OA
BRANCH  10  12
ATOM     12  O   UNL d   1      15.269  13.135  -0.695  0.00  0.00    -0.271 OA
BRANCH  12  13
ATOM     13  C   UNL d   1      15.299  13.798  -0.207  0.00  0.00     0.126 C 
ATOM     14  C   UNL d   1      15.103  14.538  -0.504  0.00  0.00     0.029 C 
ENDBRANCH  12  13
ENDBRANCH  10  12
ENDBRANCH   9  10
ENDBRANCH   6   9
ENDBRANCH   3   4
ENDBRANCH   1   3
BRANCH   1  15
ATOM     15  N   UNL d   1      13.187  13.224  -4.047  0.00  0.00    -0.168 NA
ATOM     16  C   UNL d   1      13.543  13.396  -4.774  0.00  0.00     0.282 C 
ATOM     17  O   UNL d   1      13.898  12.798  -5.210  0.00  0.00    -0.265 OA
BRANCH  16  18
ATOM     18  C   UNL d   1      13.540  14.173  -5.059  0.00  0.00     0.058 A 
ATOM     19  C   UNL d   1      14.173  14.454  -5.486  0.00  0.00     0.006 A 
ATOM     20  C   UNL d   1      14.169  15.231  -5.771  0.00  0.00     0.024 A 
ATOM     21  C   UNL d   1      13.520  15.722  -5.620  0.00  0.00     0.127 A 
ATOM     22  C   UNL d   1      12.876  15.431  -5.184  0.00  0.00     0.024 A 
ATOM     23  C   UNL d   1      12.885  14.660  -4.904  0.00  0.00     0.006 A 
BRANCH  21  24
ATOM     24  N   UNL d   1      13.510  16.495  -5.901  0.00  0.00    -0.114 N 
ATOM     25  O   UNL d   1      14.220  16.903  -6.023  0.00  0.00    -0.532 OA
ATOM     26  O   UNL d   1      12.793  16.861  -6.059  0.00  0.00    -0.532 OA
ENDBRANCH  21  24
ENDBRANCH  16  18
ENDBRANCH   1  15
TORSDOF 9
ENDMDL
MODEL 2
REMARK VINA RESULT:      40.8      0.964      1.022
REMARK  9 active torsions:
REMARK  status: ('A' for Active; 'I' for Inactive)
REMARK    1  A    between atoms: N_6  and  C_1 
REMARK    2  A    between atoms: N_2  and  C_12 
REMARK    3  A    between atoms: C_3  and  N_6 
REMARK    4  A    between atoms: N_4  and  C_3 
REMARK       I    between atoms: C_7  and  N_4 
REMARK    5  A    between atoms: C_16  and  C_7 
REMARK    6  A    between atoms: C_10  and  C_8 
REMARK    7  A    between atoms: C_13  and  C_10 
REMARK    8  A    between atoms: O_24  and  C_13 
REMARK    9  A    between atoms: C_25  and  O_24 
ROOT
ATOM      1  C   UNL d   1      13.464  12.511  -3.714  0.00  0.00     0.277 C 
ATOM      2  S   UNL d   1      13.046  11.962  -4.166  0.00  0.00    -0.023 SA
ENDROOT
BRANCH   1   3
ATOM      3  N   UNL d   1      13.595  12.368  -2.912  0.00  0.00    -0.347 NA
BRANCH   3   4
ATOM      4  C   UNL d   1      13.733  12.224  -2.114  0.00  0.00     0.248 A 
ATOM      5  N   UNL d   1      14.381  12.489  -1.667  0.00  0.00    -0.210 NA
ATOM      6  C   UNL d   1      14.287  12.213  -0.895  0.00  0.00     0.096 A 
ATOM      7  C   UNL d   1      13.584  11.780  -0.865  0.00  0.00     0.059 A 
ATOM      8  S   UNL d   1      13.247  11.787  -1.608  0.00  0.00    -0.033 SA
BRANCH   6   9
ATOM      9  C   UNL d   1      14.803  12.348  -0.271  0.00  0.00     0.088 C 
BRANCH   9  10
ATOM     10  C   UNL d   1      15.400  12.910  -0.336  0.00  0.00     0.302 C 
ATOM     11  O   UNL d   1      16.131  12.687  -0.645  0.00  0.00    -0.259 OA
BRANCH  10  12
ATOM     12  O   UNL d   1      15.271  13.684  -0.098  0.00  0.00    -0.271 OA
BRANCH  12  13
ATOM     13  C   UNL d   1      15.782  14.283  -0.341  0.00  0.00     0.126 C 
ATOM     14  C   UNL d   1      15.721  15.034  -0.015  0.00  0.00     0.029 C 
ENDBRANCH  12  13
ENDBRANCH  10  12
ENDBRANCH   9  10
ENDBRANCH   6   9
ENDBRANCH   3   4
ENDBRANCH   1   3
BRANCH   1  15
ATOM     15  N   UNL d   1      13.747  13.199  -4.068  0.00  0.00    -0.168 NA
ATOM     16  C   UNL d   1      13.484  13.940  -3.810  0.00  0.00     0.282 C 
ATOM     17  O   UNL d   1      12.939  13.993  -3.198  0.00  0.00    -0.265 OA
BRANCH  16  18
ATOM     18  C   UNL d   1      13.772  14.627  -4.170  0.00  0.00     0.058 A 
ATOM     19  C   UNL d   1      14.269  14.574  -4.812  0.00  0.00     0.006 A 
ATOM     20  C   UNL d   1      14.557  15.261  -5.172  0.00  0.00     0.024 A 
ATOM     21  C   UNL d   1      14.339  16.003  -4.877  0.00  0.00     0.127 A 
ATOM     22  C   UNL d   1      13.832  16.052  -4.221  0.00  0.00     0.024 A 
ATOM     23  C   UNL d   1      13.549  15.368  -3.868  0.00  0.00     0.006 A 
BRANCH  21  24
ATOM     24  N   UNL d   1      14.622  16.690  -5.230  0.00  0.00    -0.114 N 
ATOM     25  O   UNL d   1      15.070  17.230  -4.792  0.00  0.00    -0.532 OA
ATOM     26  O   UNL d   1      14.459  16.837  -6.021  0.00  0.00    -0.532 OA
ENDBRANCH  21  24
ENDBRANCH  16  18
ENDBRANCH   1  15
TORSDOF 9
ENDMDL
