MODEL 1
REMARK VINA RESULT:      88.7      0.000      0.000
REMARK  9 active torsions:
REMARK  status: ('A' for Active; 'I' for Inactive)
REMARK    1  A    between atoms: C_19  and  N_1 
REMARK    2  A    between atoms: S_10  and  C_2 
REMARK    3  A    between atoms: N_8  and  C_9 
REMARK    4  A    between atoms: C_20  and  S_10 
REMARK    5  A    between atoms: C_11  and  C_20 
REMARK       I    between atoms: N_13  and  C_11 
REMARK    6  A    between atoms: C_15  and  N_13 
REMARK    7  A    between atoms: C_32  and  C_19 
REMARK    8  A    between atoms: O_25  and  C_22 
REMARK    9  A    between atoms: C_33  and  C_32 
ROOT
ATOM      1  N   UNL d   1      44.633 -16.748  37.598  0.00  0.00    -0.253 N 
ATOM      2  C   UNL d   1      45.316 -16.330  37.392  0.00  0.00     0.182 A 
ATOM      3  C   UNL d   1      44.616 -17.206  38.272  0.00  0.00     0.268 A 
ATOM      4  C   UNL d   1      45.291 -17.248  38.749  0.00  0.00     0.076 A 
ATOM      5  N   UNL d   1      45.983 -16.370  37.859  0.00  0.00    -0.222 NA
ATOM      6  C   UNL d   1      45.972 -16.833  38.543  0.00  0.00     0.088 A 
ATOM      7  C   UNL d   1      45.272 -17.705  39.419  0.00  0.00     0.024 A 
ATOM      8  C   UNL d   1      45.947 -17.756  39.907  0.00  0.00     0.065 A 
ATOM      9  O   UNL d   1      43.931 -17.624  38.479  0.00  0.00    -0.267 OA
ATOM     10  C   UNL d   1      46.640 -16.874  39.013  0.00  0.00     0.021 A 
ATOM     11  C   UNL d   1      46.625 -17.334  39.691  0.00  0.00     0.019 A 
ENDROOT
BRANCH   2  12
ATOM     12  S   UNL d   1      45.326 -15.860  36.695  0.00  0.00    -0.044 SA
BRANCH  12  13
ATOM     13  C   UNL d   1      46.003 -15.436  36.496  0.00  0.00     0.101 C 
BRANCH  13  14
ATOM     14  C   UNL d   1      46.095 -14.665  36.758  0.00  0.00     0.286 C 
ATOM     15  N   UNL d   1      45.724 -14.419  37.440  0.00  0.00    -0.207 NA
ATOM     16  O   UNL d   1      46.563 -14.136  36.332  0.00  0.00    -0.265 OA
BRANCH  15  17
ATOM     17  C   UNL d   1      45.813 -13.639  37.711  0.00  0.00     0.087 A 
ATOM     18  C   UNL d   1      45.190 -13.290  38.121  0.00  0.00     0.043 A 
ATOM     19  C   UNL d   1      45.279 -12.510  38.392  0.00  0.00     0.096 A 
ATOM     20  C   UNL d   1      45.974 -12.098  38.254  0.00  0.00     0.024 A 
ATOM     21  C   UNL d   1      46.593 -12.458  37.842  0.00  0.00     0.004 A 
ATOM     22  C   UNL d   1      46.508 -13.227  37.573  0.00  0.00     0.019 A 
BRANCH  19  23
ATOM     23  O   UNL d   1      44.649 -12.149  38.809  0.00  0.00    -0.328 OA
ATOM     24  C   UNL d   1      44.389 -12.464  39.514  0.00  0.00     0.181 C 
ENDBRANCH  19  23
ENDBRANCH  15  17
ENDBRANCH  13  14
ENDBRANCH  12  13
ENDBRANCH   2  12
BRANCH   1  25
ATOM     25  C   UNL d   1      43.958 -16.696  37.109  0.00  0.00     0.085 C 
BRANCH  25  26
ATOM     26  C   UNL d   1      43.304 -16.278  37.369  0.00  0.00     0.019 C 
BRANCH  26  27
ATOM     27  C   UNL d   1      43.028 -15.629  36.938  0.00  0.00     0.002 C 
ATOM     28  C   UNL d   1      42.267 -15.336  37.078  0.00  0.00     0.000 C 
ENDBRANCH  26  27
ENDBRANCH  25  26
ENDBRANCH   1  25
BRANCH   8  29
ATOM     29  N   UNL d   1      45.939 -18.217  40.591  0.00  0.00    -0.300 N 
ATOM     30  C   UNL d   1      46.283 -18.972  40.581  0.00  0.00     0.107 A 
ATOM     31  C   UNL d   1      46.269 -19.425  41.272  0.00  0.00     0.142 A 
ATOM     32  O   UNL d   1      45.916 -19.131  41.966  0.00  0.00    -0.300 OA
ATOM     33  C   UNL d   1      45.575 -18.373  41.962  0.00  0.00     0.142 A 
ATOM     34  C   UNL d   1      45.585 -17.914  41.275  0.00  0.00     0.107 A 
ENDBRANCH   8  29
TORSDOF 9
ENDMDL
