MODEL 1
REMARK VINA RESULT:       9.3      0.000      0.000
REMARK  0 active torsions:
REMARK  status: ('A' for Active; 'I' for Inactive)
ROOT
ATOM      1  N   UNL d   1      23.475  12.834  -2.892  0.00  0.00    -0.183 NA
ATOM      2  C   UNL d   1      23.795  12.566  -3.606  0.00  0.00     0.339 A 
ATOM      3  N   UNL d   1      24.764  11.818  -2.877  0.00  0.00    -0.201 NA
ATOM      4  C   UNL d   1      24.434  12.062  -3.598  0.00  0.00     0.337 A 
ATOM      5  C   UNL d   1      23.800  12.593  -2.175  0.00  0.00     0.184 A 
ATOM      6  C   UNL d   1      24.439  12.090  -2.167  0.00  0.00     0.121 A 
ATOM      7  N   UNL d   1      23.479  12.862  -1.463  0.00  0.00    -0.223 NA
ATOM      8  C   UNL d   1      24.768  11.845  -1.448  0.00  0.00     0.031 A 
ATOM      9  O   UNL d   1      23.470  12.807  -4.331  0.00  0.00    -0.260 OA
ATOM     10  O   UNL d   1      24.759  11.791  -4.316  0.00  0.00    -0.260 OA
ATOM     11  C   UNL d   1      24.443  12.117  -0.736  0.00  0.00     0.055 A 
ATOM     12  C   UNL d   1      23.804  12.621  -0.743  0.00  0.00     0.107 A 
ATOM     13 BR   UNL d   1      24.764  11.879  -0.014  0.00  0.00    -0.048 Br
ENDROOT
TORSDOF 0
ENDMDL
