MODEL 1
REMARK VINA RESULT:      75.7      0.000      0.000
REMARK  7 active torsions:
REMARK  status: ('A' for Active; 'I' for Inactive)
REMARK    1  A    between atoms: N_2  and  S_1 
REMARK    2  A    between atoms: C_5  and  S_1 
REMARK    3  A    between atoms: C_3  and  N_2 
REMARK    4  A    between atoms: C_4  and  C_3 
REMARK    5  A    between atoms: C_13  and  C_3 
REMARK    6  A    between atoms: C_9  and  C_8 
REMARK    7  A    between atoms: O_22  and  C_19 
ROOT
ATOM      1  C   UNL d   1      61.259  47.676  50.316  0.00  0.00     0.105 A 
ATOM      2  C   UNL d   1      61.548  46.076  50.059  0.00  0.00     0.000 A 
ATOM      3  C   UNL d   1      61.729  47.442  49.682  0.00  0.00     0.013 A 
ATOM      4  C   UNL d   1      60.934  47.111  50.822  0.00  0.00     0.013 A 
ATOM      5  C   UNL d   1      61.078  46.312  50.693  0.00  0.00     0.001 A 
ATOM      6  C   UNL d   1      61.873  46.641  49.554  0.00  0.00     0.001 A 
ENDROOT
BRANCH   1   7
ATOM      7  S   UNL d   1      61.112  48.489  50.449  0.00  0.00     0.285 S 
ATOM      8  O   UNL d   1      61.820  48.543  50.887  0.00  0.00    -0.198 OA
ATOM      9  O   UNL d   1      60.405  48.427  50.010  0.00  0.00    -0.198 OA
BRANCH   7  10
ATOM     10  N   UNL d   1      60.965  49.293  50.580  0.00  0.00    -0.152 NA
BRANCH  10  11
ATOM     11  C   UNL d   1      60.308  49.530  51.029  0.00  0.00     0.158 C 
BRANCH  11  12
ATOM     12  C   UNL d   1      59.579  49.649  50.660  0.00  0.00     0.230 C 
ATOM     13  O   UNL d   1      59.538  49.708  49.840  0.00  0.00    -0.643 OA
ATOM     14  O   UNL d   1      58.893  49.707  51.111  0.00  0.00    -0.643 OA
ENDBRANCH  11  12
BRANCH  11  15
ATOM     15  C   UNL d   1      60.383  49.648  51.840  0.00  0.00     0.025 C 
ATOM     16  C   UNL d   1      61.138  49.706  52.186  0.00  0.00     0.002 C 
ATOM     17  C   UNL d   1      59.708  49.707  52.310  0.00  0.00     0.002 C 
ENDBRANCH  11  15
ENDBRANCH  10  11
ENDBRANCH   7  10
ENDBRANCH   1   7
BRANCH   2  18
ATOM     18  C   UNL d   1      61.692  45.276  49.930  0.00  0.00     0.000 A 
ATOM     19  C   UNL d   1      61.791  44.768  50.571  0.00  0.00     0.002 A 
ATOM     20  C   UNL d   1      61.937  43.961  50.445  0.00  0.00     0.024 A 
ATOM     21  C   UNL d   1      61.983  43.665  49.668  0.00  0.00     0.094 A 
ATOM     22  C   UNL d   1      61.882  44.180  49.024  0.00  0.00     0.024 A 
ATOM     23  C   UNL d   1      61.738  44.980  49.153  0.00  0.00     0.002 A 
BRANCH  21  24
ATOM     24  O   UNL d   1      62.128  42.860  49.536  0.00  0.00    -0.328 OA
ATOM     25  C   UNL d   1      62.698  42.457  49.993  0.00  0.00     0.181 C 
ENDBRANCH  21  24
ENDBRANCH   2  18
TORSDOF 7
ENDMDL
