MODEL 1
REMARK VINA RESULT:      17.4      0.000      0.000
REMARK  1 active torsions:
REMARK  status: ('A' for Active; 'I' for Inactive)
REMARK       I    between atoms: C_8  and  N_9 
REMARK    1  A    between atoms: N_9  and  C_10 
ROOT
ATOM      1  N   UNL d   1      46.365 -18.156  42.832  0.00  0.00    -0.304 N 
ATOM      2  C   UNL d   1      46.266 -17.642  43.470  0.00  0.00     0.066 A 
ATOM      3  C   UNL d   1      46.295 -18.087  44.167  0.00  0.00     0.018 A 
ATOM      4  C   UNL d   1      46.454 -18.919  43.134  0.00  0.00     0.064 A 
ATOM      5  C   UNL d   1      46.411 -18.876  43.956  0.00  0.00     0.018 A 
ATOM      6  C   UNL d   1      46.154 -16.825  43.509  0.00  0.00     0.037 A 
ATOM      7  C   UNL d   1      46.211 -17.716  44.896  0.00  0.00     0.003 A 
ATOM      8  C   UNL d   1      46.070 -16.453  44.245  0.00  0.00     0.086 A 
ATOM      9  C   UNL d   1      46.100 -16.908  44.936  0.00  0.00     0.019 A 
ATOM     10  C   UNL d   1      46.373 -17.946  42.044  0.00  0.00     0.099 C 
ATOM     11  C   UNL d   1      46.570 -19.649  42.766  0.00  0.00     0.018 A 
ATOM     12  C   UNL d   1      46.483 -19.564  44.408  0.00  0.00     0.002 A 
ATOM     13  C   UNL d   1      46.598 -20.287  44.039  0.00  0.00     0.000 A 
ATOM     14  C   UNL d   1      46.641 -20.330  43.217  0.00  0.00     0.002 A 
ENDROOT
BRANCH   8  15
ATOM     15  N   UNL d   1      45.959 -15.645  44.277  0.00  0.00    -0.208 NA
ATOM     16  C   UNL d   1      45.288 -15.328  44.629  0.00  0.00     0.279 C 
ATOM     17  O   UNL d   1      45.183 -14.514  44.657  0.00  0.00    -0.265 OA
ATOM     18  C   UNL d   1      44.727 -15.828  44.950  0.00  0.00     0.068 C 
ENDBRANCH   8  15
TORSDOF 1
ENDMDL
MODEL 2
REMARK VINA RESULT:      19.4      2.048      3.322
REMARK  1 active torsions:
REMARK  status: ('A' for Active; 'I' for Inactive)
REMARK       I    between atoms: C_8  and  N_9 
REMARK    1  A    between atoms: N_9  and  C_10 
ROOT
ATOM      1  N   UNL d   1      46.549 -18.279  43.179  0.00  0.00    -0.304 N 
ATOM      2  C   UNL d   1      46.576 -18.608  42.422  0.00  0.00     0.066 A 
ATOM      3  C   UNL d   1      46.614 -19.431  42.500  0.00  0.00     0.018 A 
ATOM      4  C   UNL d   1      46.571 -18.897  43.725  0.00  0.00     0.064 A 
ATOM      5  C   UNL d   1      46.611 -19.607  43.307  0.00  0.00     0.018 A 
ATOM      6  C   UNL d   1      46.571 -18.267  41.671  0.00  0.00     0.037 A 
ATOM      7  C   UNL d   1      46.647 -19.907  41.830  0.00  0.00     0.003 A 
ATOM      8  C   UNL d   1      46.604 -18.749  40.997  0.00  0.00     0.086 A 
ATOM      9  C   UNL d   1      46.642 -19.571  41.086  0.00  0.00     0.019 A 
ATOM     10  C   UNL d   1      46.509 -17.483  43.353  0.00  0.00     0.099 C 
ATOM     11  C   UNL d   1      46.559 -18.908  44.550  0.00  0.00     0.018 A 
ATOM     12  C   UNL d   1      46.638 -20.324  43.716  0.00  0.00     0.002 A 
ATOM     13  C   UNL d   1      46.626 -20.330  44.536  0.00  0.00     0.000 A 
ATOM     14  C   UNL d   1      46.586 -19.620  44.954  0.00  0.00     0.002 A 
ENDROOT
BRANCH   8  15
ATOM     15  N   UNL d   1      46.599 -18.405  40.257  0.00  0.00    -0.208 NA
ATOM     16  C   UNL d   1      45.906 -18.095  39.944  0.00  0.00     0.279 C 
ATOM     17  O   UNL d   1      45.908 -17.751  39.198  0.00  0.00    -0.265 OA
ATOM     18  C   UNL d   1      45.214 -18.132  40.380  0.00  0.00     0.068 C 
ENDBRANCH   8  15
TORSDOF 1
ENDMDL
MODEL 3
REMARK VINA RESULT:      19.9      2.040      4.836
REMARK  1 active torsions:
REMARK  status: ('A' for Active; 'I' for Inactive)
REMARK       I    between atoms: C_8  and  N_9 
REMARK    1  A    between atoms: N_9  and  C_10 
ROOT
ATOM      1  N   UNL d   1      44.491 -14.099  44.596  0.00  0.00    -0.304 N 
ATOM      2  C   UNL d   1      45.094 -14.660  44.546  0.00  0.00     0.066 A 
ATOM      3  C   UNL d   1      45.730 -14.319  44.140  0.00  0.00     0.018 A 
ATOM      4  C   UNL d   1      44.752 -13.412  44.222  0.00  0.00     0.064 A 
ATOM      5  C   UNL d   1      45.516 -13.548  43.941  0.00  0.00     0.018 A 
ATOM      6  C   UNL d   1      45.150 -15.438  44.816  0.00  0.00     0.037 A 
ATOM      7  C   UNL d   1      46.415 -14.755  44.007  0.00  0.00     0.003 A 
ATOM      8  C   UNL d   1      45.842 -15.875  44.681  0.00  0.00     0.086 A 
ATOM      9  C   UNL d   1      46.471 -15.525  44.274  0.00  0.00     0.019 A 
ATOM     10  C   UNL d   1      43.766 -14.208  44.953  0.00  0.00     0.099 C 
ATOM     11  C   UNL d   1      44.395 -12.678  44.100  0.00  0.00     0.018 A 
ATOM     12  C   UNL d   1      45.918 -12.948  43.539  0.00  0.00     0.002 A 
ATOM     13  C   UNL d   1      45.559 -12.221  43.420  0.00  0.00     0.000 A 
ATOM     14  C   UNL d   1      44.796 -12.086  43.701  0.00  0.00     0.002 A 
ENDROOT
BRANCH   8  15
ATOM     15  N   UNL d   1      45.890 -16.644  44.951  0.00  0.00    -0.208 NA
ATOM     16  C   UNL d   1      45.928 -17.271  44.422  0.00  0.00     0.279 C 
ATOM     17  O   UNL d   1      45.977 -18.043  44.701  0.00  0.00    -0.265 OA
ATOM     18  C   UNL d   1      45.917 -17.123  43.618  0.00  0.00     0.068 C 
ENDBRANCH   8  15
TORSDOF 1
ENDMDL
