MODEL 1
REMARK VINA RESULT:      30.4      0.000      0.000
REMARK  5 active torsions:
REMARK  status: ('A' for Active; 'I' for Inactive)
REMARK    1  A    between atoms: C_15  and  C_4 
REMARK       I    between atoms: C_11  and  N_14 
REMARK    2  A    between atoms: C_19  and  C_11 
REMARK    3  A    between atoms: N_14  and  C_16 
REMARK    4  A    between atoms: C_16  and  C_15 
REMARK    5  A    between atoms: C_20  and  C_19 
ROOT
ATOM      1  N   UNL d   1      13.411  11.780  -2.689  0.00  0.00    -0.208 NA
ATOM      2  C   UNL d   1      13.285  12.162  -3.411  0.00  0.00     0.279 A 
ATOM      3  C   UNL d   1      13.828  12.170  -2.080  0.00  0.00     0.085 A 
ATOM      4  C   UNL d   1      13.576  12.935  -3.529  0.00  0.00     0.059 A 
ATOM      5  C   UNL d   1      13.988  13.316  -2.923  0.00  0.00     0.006 A 
ATOM      6  C   UNL d   1      14.113  12.935  -2.204  0.00  0.00     0.018 A 
ATOM      7  C   UNL d   1      13.949  11.780  -1.361  0.00  0.00     0.019 A 
ATOM      8  C   UNL d   1      14.527  13.316  -1.595  0.00  0.00     0.002 A 
ATOM      9  C   UNL d   1      14.651  12.934  -0.876  0.00  0.00     0.000 A 
ATOM     10  C   UNL d   1      14.360  12.162  -0.758  0.00  0.00     0.002 A 
ATOM     11  O   UNL d   1      12.874  11.780  -4.013  0.00  0.00    -0.265 OA
ATOM     12  C   UNL d   1      15.059  13.309  -0.273  0.00  0.00     0.000 C 
ATOM     13  C   UNL d   1      14.484  11.780  -0.040  0.00  0.00     0.000 C 
ENDROOT
BRANCH   4  14
ATOM     14  C   UNL d   1      13.449  13.309  -4.246  0.00  0.00     0.026 C 
BRANCH  14  15
ATOM     15  C   UNL d   1      13.421  14.127  -4.294  0.00  0.00     0.102 C 
BRANCH  15  16
ATOM     16  N   UNL d   1      13.683  14.524  -4.969  0.00  0.00    -0.206 NA
ATOM     17  C   UNL d   1      13.373  15.264  -5.165  0.00  0.00     0.279 C 
ATOM     18  O   UNL d   1      12.800  15.612  -4.691  0.00  0.00    -0.265 OA
BRANCH  17  19
ATOM     19  C   UNL d   1      13.642  15.655  -5.843  0.00  0.00     0.062 C 
BRANCH  19  20
ATOM     20  C   UNL d   1      13.728  16.480  -5.838  0.00  0.00     0.005 C 
ATOM     21  C   UNL d   1      13.307  16.945  -6.358  0.00  0.00     0.000 C 
ENDBRANCH  19  20
ENDBRANCH  17  19
ENDBRANCH  15  16
ENDBRANCH  14  15
ENDBRANCH   4  14
TORSDOF 5
ENDMDL
