MODEL 1
REMARK VINA RESULT:      -9.5      0.000      0.000
REMARK  4 active torsions:
REMARK  status: ('A' for Active; 'I' for Inactive)
REMARK    1  A    between atoms: S_2  and  N_1 
REMARK    2  A    between atoms: C_7  and  S_2 
REMARK    3  A    between atoms: S_8  and  C_5 
REMARK    4  A    between atoms: C_16  and  S_8 
ROOT
ATOM      1  N   UNL d   1      51.944  33.205  52.931  0.00  0.00    -0.151 N 
ATOM      2  C   UNL d   1      52.695  33.481  53.118  0.00  0.00     0.102 A 
ATOM      3  N   UNL d   1      51.984  32.383  52.911  0.00  0.00    -0.155 NA
ATOM      4  C   UNL d   1      53.198  32.840  53.213  0.00  0.00     0.067 A 
ATOM      5  C   UNL d   1      52.752  32.157  53.083  0.00  0.00     0.110 A 
ATOM      6  C   UNL d   1      52.923  34.286  53.200  0.00  0.00     0.022 C 
ATOM      7  C   UNL d   1      53.033  31.382  53.121  0.00  0.00     0.023 C 
ENDROOT
BRANCH   1   8
ATOM      8  S   UNL d   1      51.273  33.654  52.790  0.00  0.00     0.292 S 
ATOM      9  O   UNL d   1      50.969  33.423  53.523  0.00  0.00    -0.198 OA
ATOM     10  O   UNL d   1      51.572  33.884  52.066  0.00  0.00    -0.198 OA
BRANCH   8  11
ATOM     11  C   UNL d   1      50.592  34.106  52.654  0.00  0.00     0.135 A 
ATOM     12  S   UNL d   1      50.176  34.533  53.213  0.00  0.00    -0.073 SA
ATOM     13  C   UNL d   1      49.539  34.896  52.836  0.00  0.00     0.036 A 
ATOM     14  C   UNL d   1      49.563  34.692  52.036  0.00  0.00     0.008 A 
ATOM     15  C   UNL d   1      50.219  34.199  51.922  0.00  0.00     0.020 A 
ENDBRANCH   8  11
ENDBRANCH   1   8
BRANCH   4  16
ATOM     16  S   UNL d   1      54.003  32.780  53.400  0.00  0.00    -0.084 SA
BRANCH  16  17
ATOM     17  C   UNL d   1      54.263  32.985  54.157  0.00  0.00     0.029 A 
ATOM     18  C   UNL d   1      53.988  32.574  54.819  0.00  0.00     0.006 A 
ATOM     19  C   UNL d   1      54.255  32.789  55.564  0.00  0.00     0.001 A 
ATOM     20  C   UNL d   1      54.791  33.405  55.662  0.00  0.00     0.000 A 
ATOM     21  C   UNL d   1      55.063  33.813  55.001  0.00  0.00     0.001 A 
ATOM     22  C   UNL d   1      54.801  33.604  54.252  0.00  0.00     0.006 A 
ENDBRANCH  16  17
ENDBRANCH   4  16
TORSDOF 4
ENDMDL
MODEL 2
REMARK VINA RESULT:      -8.3      1.077      2.155
REMARK  4 active torsions:
REMARK  status: ('A' for Active; 'I' for Inactive)
REMARK    1  A    between atoms: S_2  and  N_1 
REMARK    2  A    between atoms: C_7  and  S_2 
REMARK    3  A    between atoms: S_8  and  C_5 
REMARK    4  A    between atoms: C_16  and  S_8 
ROOT
ATOM      1  N   UNL d   1      52.340  33.190  53.432  0.00  0.00    -0.151 N 
ATOM      2  C   UNL d   1      52.668  32.500  53.128  0.00  0.00     0.102 A 
ATOM      3  N   UNL d   1      52.789  33.407  54.086  0.00  0.00    -0.155 NA
ATOM      4  C   UNL d   1      53.314  32.288  53.587  0.00  0.00     0.067 A 
ATOM      5  C   UNL d   1      53.387  32.856  54.184  0.00  0.00     0.110 A 
ATOM      6  C   UNL d   1      52.395  32.072  52.459  0.00  0.00     0.022 C 
ATOM      7  C   UNL d   1      53.963  32.864  54.775  0.00  0.00     0.023 C 
ENDROOT
BRANCH   1   8
ATOM      8  S   UNL d   1      51.688  33.594  53.145  0.00  0.00     0.292 S 
ATOM      9  O   UNL d   1      51.196  33.134  53.623  0.00  0.00    -0.198 OA
ATOM     10  O   UNL d   1      52.171  34.051  52.672  0.00  0.00    -0.198 OA
BRANCH   8  11
ATOM     11  C   UNL d   1      51.023  33.999  52.859  0.00  0.00     0.135 A 
ATOM     12  S   UNL d   1      50.392  34.267  53.303  0.00  0.00    -0.073 SA
ATOM     13  C   UNL d   1      49.859  34.637  52.795  0.00  0.00     0.036 A 
ATOM     14  C   UNL d   1      50.164  34.597  52.029  0.00  0.00     0.008 A 
ATOM     15  C   UNL d   1      50.890  34.200  52.068  0.00  0.00     0.020 A 
ENDBRANCH   8  11
ENDBRANCH   1   8
BRANCH   4  16
ATOM     16  S   UNL d   1      53.850  31.657  53.548  0.00  0.00    -0.084 SA
BRANCH  16  17
ATOM     17  C   UNL d   1      53.589  30.890  53.710  0.00  0.00     0.029 A 
ATOM     18  C   UNL d   1      53.507  30.632  54.490  0.00  0.00     0.006 A 
ATOM     19  C   UNL d   1      53.247  29.867  54.634  0.00  0.00     0.001 A 
ATOM     20  C   UNL d   1      53.068  29.355  54.015  0.00  0.00     0.000 A 
ATOM     21  C   UNL d   1      53.150  29.615  53.239  0.00  0.00     0.001 A 
ATOM     22  C   UNL d   1      53.410  30.379  53.086  0.00  0.00     0.006 A 
ENDBRANCH  16  17
ENDBRANCH   4  16
TORSDOF 4
ENDMDL
MODEL 3
REMARK VINA RESULT:      -7.3      2.076      3.743
REMARK  4 active torsions:
REMARK  status: ('A' for Active; 'I' for Inactive)
REMARK    1  A    between atoms: S_2  and  N_1 
REMARK    2  A    between atoms: C_7  and  S_2 
REMARK    3  A    between atoms: S_8  and  C_5 
REMARK    4  A    between atoms: C_16  and  S_8 
ROOT
ATOM      1  N   UNL d   1      53.760  31.741  53.612  0.00  0.00    -0.151 N 
ATOM      2  C   UNL d   1      53.338  32.361  53.276  0.00  0.00     0.102 A 
ATOM      3  N   UNL d   1      54.488  32.042  53.851  0.00  0.00    -0.155 NA
ATOM      4  C   UNL d   1      53.796  33.041  53.304  0.00  0.00     0.067 A 
ATOM      5  C   UNL d   1      54.513  32.838  53.663  0.00  0.00     0.110 A 
ATOM      6  C   UNL d   1      52.564  32.318  52.953  0.00  0.00     0.022 C 
ATOM      7  C   UNL d   1      55.143  33.352  53.807  0.00  0.00     0.023 C 
ENDROOT
BRANCH   1   8
ATOM      8  S   UNL d   1      53.512  30.965  53.699  0.00  0.00     0.292 S 
ATOM      9  O   UNL d   1      53.415  31.090  54.510  0.00  0.00    -0.198 OA
ATOM     10  O   UNL d   1      53.607  30.838  52.898  0.00  0.00    -0.198 OA
BRANCH   8  11
ATOM     11  C   UNL d   1      53.261  30.181  53.794  0.00  0.00     0.135 A 
ATOM     12  S   UNL d   1      52.816  29.748  53.264  0.00  0.00    -0.073 SA
ATOM     13  C   UNL d   1      52.695  28.997  53.584  0.00  0.00     0.036 A 
ATOM     14  C   UNL d   1      53.069  28.967  54.318  0.00  0.00     0.008 A 
ATOM     15  C   UNL d   1      53.423  29.705  54.451  0.00  0.00     0.020 A 
ENDBRANCH   8  11
ENDBRANCH   1   8
BRANCH   4  16
ATOM     16  S   UNL d   1      53.664  33.819  53.054  0.00  0.00    -0.084 SA
BRANCH  16  17
ATOM     17  C   UNL d   1      53.172  34.313  53.497  0.00  0.00     0.029 A 
ATOM     18  C   UNL d   1      53.441  34.645  54.205  0.00  0.00     0.006 A 
ATOM     19  C   UNL d   1      52.941  35.133  54.634  0.00  0.00     0.001 A 
ATOM     20  C   UNL d   1      52.179  35.297  54.372  0.00  0.00     0.000 A 
ATOM     21  C   UNL d   1      51.913  34.965  53.667  0.00  0.00     0.001 A 
ATOM     22  C   UNL d   1      52.407  34.476  53.232  0.00  0.00     0.006 A 
ENDBRANCH  16  17
ENDBRANCH   4  16
TORSDOF 4
ENDMDL
MODEL 4
REMARK VINA RESULT:      -7.3      1.763      4.175
REMARK  4 active torsions:
REMARK  status: ('A' for Active; 'I' for Inactive)
REMARK    1  A    between atoms: S_2  and  N_1 
REMARK    2  A    between atoms: C_7  and  S_2 
REMARK    3  A    between atoms: S_8  and  C_5 
REMARK    4  A    between atoms: C_16  and  S_8 
ROOT
ATOM      1  N   UNL d   1      52.673  32.614  53.224  0.00  0.00    -0.151 N 
ATOM      2  C   UNL d   1      51.922  32.935  53.313  0.00  0.00     0.102 A 
ATOM      3  N   UNL d   1      53.191  33.238  53.082  0.00  0.00    -0.155 NA
ATOM      4  C   UNL d   1      51.969  33.750  53.228  0.00  0.00     0.067 A 
ATOM      5  C   UNL d   1      52.762  33.936  53.083  0.00  0.00     0.110 A 
ATOM      6  C   UNL d   1      51.214  32.510  53.467  0.00  0.00     0.022 C 
ATOM      7  C   UNL d   1      53.065  34.693  52.963  0.00  0.00     0.023 C 
ENDROOT
BRANCH   1   8
ATOM      8  S   UNL d   1      52.880  31.822  53.266  0.00  0.00     0.292 S 
ATOM      9  O   UNL d   1      53.081  31.922  54.062  0.00  0.00    -0.198 OA
ATOM     10  O   UNL d   1      52.682  31.722  52.481  0.00  0.00    -0.198 OA
BRANCH   8  11
ATOM     11  C   UNL d   1      53.091  31.023  53.317  0.00  0.00     0.135 A 
ATOM     12  S   UNL d   1      53.622  30.696  53.845  0.00  0.00    -0.073 SA
ATOM     13  C   UNL d   1      53.663  29.885  53.699  0.00  0.00     0.036 A 
ATOM     14  C   UNL d   1      53.152  29.711  53.075  0.00  0.00     0.008 A 
ATOM     15  C   UNL d   1      52.795  30.419  52.836  0.00  0.00     0.020 A 
ENDBRANCH   8  11
ENDBRANCH   1   8
BRANCH   4  16
ATOM     16  S   UNL d   1      51.401  34.353  53.261  0.00  0.00    -0.084 SA
BRANCH  16  17
ATOM     17  C   UNL d   1      50.812  34.390  52.683  0.00  0.00     0.029 A 
ATOM     18  C   UNL d   1      51.010  34.377  51.881  0.00  0.00     0.006 A 
ATOM     19  C   UNL d   1      50.413  34.415  51.320  0.00  0.00     0.001 A 
ATOM     20  C   UNL d   1      49.623  34.467  51.542  0.00  0.00     0.000 A 
ATOM     21  C   UNL d   1      49.428  34.480  52.342  0.00  0.00     0.001 A 
ATOM     22  C   UNL d   1      50.019  34.442  52.910  0.00  0.00     0.006 A 
ENDBRANCH  16  17
ENDBRANCH   4  16
TORSDOF 4
ENDMDL
MODEL 5
REMARK VINA RESULT:      -7.0      1.990      3.041
REMARK  4 active torsions:
REMARK  status: ('A' for Active; 'I' for Inactive)
REMARK    1  A    between atoms: S_2  and  N_1 
REMARK    2  A    between atoms: C_7  and  S_2 
REMARK    3  A    between atoms: S_8  and  C_5 
REMARK    4  A    between atoms: C_16  and  S_8 
ROOT
ATOM      1  N   UNL d   1      52.649  33.151  53.576  0.00  0.00    -0.151 N 
ATOM      2  C   UNL d   1      53.163  32.559  53.329  0.00  0.00     0.102 A 
ATOM      3  N   UNL d   1      51.884  32.898  53.408  0.00  0.00    -0.155 NA
ATOM      4  C   UNL d   1      52.724  31.943  53.009  0.00  0.00     0.067 A 
ATOM      5  C   UNL d   1      51.927  32.158  53.060  0.00  0.00     0.110 A 
ATOM      6  C   UNL d   1      54.000  32.570  53.387  0.00  0.00     0.022 C 
ATOM      7  C   UNL d   1      51.288  31.703  52.805  0.00  0.00     0.023 C 
ENDROOT
BRANCH   1   8
ATOM      8  S   UNL d   1      52.850  33.864  53.926  0.00  0.00     0.292 S 
ATOM      9  O   UNL d   1      52.845  34.226  53.183  0.00  0.00    -0.198 OA
ATOM     10  O   UNL d   1      52.856  33.509  54.661  0.00  0.00    -0.198 OA
BRANCH   8  11
ATOM     11  C   UNL d   1      53.053  34.589  54.272  0.00  0.00     0.135 A 
ATOM     12  S   UNL d   1      53.353  34.699  55.025  0.00  0.00    -0.073 SA
ATOM     13  C   UNL d   1      53.474  35.506  55.138  0.00  0.00     0.036 A 
ATOM     14  C   UNL d   1      53.247  35.899  54.448  0.00  0.00     0.008 A 
ATOM     15  C   UNL d   1      52.985  35.328  53.908  0.00  0.00     0.020 A 
ENDBRANCH   8  11
ENDBRANCH   1   8
BRANCH   4  16
ATOM     16  S   UNL d   1      52.936  31.214  52.678  0.00  0.00    -0.084 SA
BRANCH  16  17
ATOM     17  C   UNL d   1      53.070  30.565  53.172  0.00  0.00     0.029 A 
ATOM     18  C   UNL d   1      53.802  30.465  53.542  0.00  0.00     0.006 A 
ATOM     19  C   UNL d   1      53.920  29.816  54.029  0.00  0.00     0.001 A 
ATOM     20  C   UNL d   1      53.323  29.264  54.154  0.00  0.00     0.000 A 
ATOM     21  C   UNL d   1      52.595  29.366  53.784  0.00  0.00     0.001 A 
ATOM     22  C   UNL d   1      52.469  30.013  53.295  0.00  0.00     0.006 A 
ENDBRANCH  16  17
ENDBRANCH   4  16
TORSDOF 4
ENDMDL
