MODEL 1
REMARK VINA RESULT:      -1.2      0.000      0.000
REMARK  6 active torsions:
REMARK  status: ('A' for Active; 'I' for Inactive)
REMARK    1  A    between atoms: N_2  and  S_1 
REMARK    2  A    between atoms: C_8  and  S_1 
REMARK    3  A    between atoms: C_4  and  C_3 
REMARK    4  A    between atoms: O_18  and  C_5 
REMARK    5  A    between atoms: O_20  and  C_12 
REMARK    6  A    between atoms: O_21  and  C_13 
ROOT
ATOM      1  N   UNL d   1      58.794  -0.643  29.209  0.00  0.00    -0.127 NA
ATOM      2  C   UNL d   1      59.531  -0.923  28.977  0.00  0.00     0.086 A 
ATOM      3  S   UNL d   1      60.068  -0.418  28.617  0.00  0.00    -0.073 SA
ATOM      4  C   UNL d   1      59.123   0.654  28.724  0.00  0.00     0.074 A 
ATOM      5  C   UNL d   1      59.860   0.374  28.491  0.00  0.00     0.050 A 
ENDROOT
BRANCH   2   6
ATOM      6  C   UNL d   1      59.736  -1.713  29.104  0.00  0.00     0.042 A 
ATOM      7  C   UNL d   1      60.436  -1.890  29.497  0.00  0.00     0.098 A 
ATOM      8  C   UNL d   1      60.634  -2.678  29.620  0.00  0.00     0.050 A 
ATOM      9  C   UNL d   1      60.149  -3.280  29.358  0.00  0.00     0.118 A 
ATOM     10  C   UNL d   1      59.447  -3.097  28.964  0.00  0.00     0.117 A 
ATOM     11  C   UNL d   1      59.237  -2.311  28.835  0.00  0.00     0.030 A 
BRANCH   7  12
ATOM     12  O   UNL d   1      60.932  -1.291  29.764  0.00  0.00    -0.328 OA
ATOM     13  C   UNL d   1      61.133  -1.251  30.562  0.00  0.00     0.181 C 
ENDBRANCH   7  12
BRANCH   9  14
ATOM     14  O   UNL d   1      60.351  -4.062  29.483  0.00  0.00    -0.326 OA
ATOM     15  C   UNL d   1      61.133  -4.272  29.629  0.00  0.00     0.181 C 
ENDBRANCH   9  14
BRANCH  10  16
ATOM     16  O   UNL d   1      58.953  -3.699  28.698  0.00  0.00    -0.326 OA
ATOM     17  C   UNL d   1      58.163  -3.542  28.530  0.00  0.00     0.181 C 
ENDBRANCH  10  16
ENDBRANCH   2   6
BRANCH   1  18
ATOM     18  S   UNL d   1      58.055  -0.132  29.380  0.00  0.00     0.255 S 
ATOM     19  O   UNL d   1      57.341   0.419  29.307  0.00  0.00    -0.205 OA
ATOM     20  O   UNL d   1      58.016   0.101  28.505  0.00  0.00    -0.205 OA
BRANCH  18  21
ATOM     21  C   UNL d   1      57.860  -0.190  30.256  0.00  0.00     0.099 A 
ATOM     22  C   UNL d   1      57.441  -0.919  30.584  0.00  0.00     0.015 A 
ATOM     23  C   UNL d   1      57.245  -0.982  31.452  0.00  0.00     0.030 A 
ATOM     24  C   UNL d   1      57.468  -0.313  32.008  0.00  0.00     0.140 A 
ATOM     25  C   UNL d   1      57.889   0.423  31.690  0.00  0.00     0.030 A 
ATOM     26  F   UNL d   1      57.275  -0.364  32.895  0.00  0.00    -0.204 F 
ATOM     27  C   UNL d   1      58.088   0.488  30.809  0.00  0.00     0.015 A 
ENDBRANCH  18  21
ENDBRANCH   1  18
TORSDOF 6
ENDMDL
MODEL 2
REMARK VINA RESULT:       0.4      1.736      3.811
REMARK  6 active torsions:
REMARK  status: ('A' for Active; 'I' for Inactive)
REMARK    1  A    between atoms: N_2  and  S_1 
REMARK    2  A    between atoms: C_8  and  S_1 
REMARK    3  A    between atoms: C_4  and  C_3 
REMARK    4  A    between atoms: O_18  and  C_5 
REMARK    5  A    between atoms: O_20  and  C_12 
REMARK    6  A    between atoms: O_21  and  C_13 
ROOT
ATOM      1  N   UNL d   1      58.980  -0.591  29.727  0.00  0.00    -0.127 NA
ATOM      2  C   UNL d   1      58.433  -0.032  29.980  0.00  0.00     0.086 A 
ATOM      3  S   UNL d   1      58.243   0.604  29.498  0.00  0.00    -0.073 SA
ATOM      4  C   UNL d   1      59.153   0.117  28.505  0.00  0.00     0.074 A 
ATOM      5  C   UNL d   1      58.606   0.677  28.758  0.00  0.00     0.050 A 
ENDROOT
BRANCH   2   6
ATOM      6  C   UNL d   1      58.072  -0.106  30.719  0.00  0.00     0.042 A 
ATOM      7  C   UNL d   1      58.417   0.250  31.374  0.00  0.00     0.098 A 
ATOM      8  C   UNL d   1      58.053   0.172  32.107  0.00  0.00     0.050 A 
ATOM      9  C   UNL d   1      57.359  -0.250  32.189  0.00  0.00     0.118 A 
ATOM     10  C   UNL d   1      57.016  -0.606  31.529  0.00  0.00     0.117 A 
ATOM     11  C   UNL d   1      57.372  -0.536  30.789  0.00  0.00     0.030 A 
BRANCH   7  12
ATOM     12  O   UNL d   1      59.115   0.678  31.302  0.00  0.00    -0.328 OA
ATOM     13  C   UNL d   1      59.678   0.650  31.903  0.00  0.00     0.181 C 
ENDBRANCH   7  12
BRANCH   9  14
ATOM     14  O   UNL d   1      57.001  -0.324  32.920  0.00  0.00    -0.326 OA
ATOM     15  C   UNL d   1      57.002   0.305  33.451  0.00  0.00     0.181 C 
ENDBRANCH   9  14
BRANCH  10  16
ATOM     16  O   UNL d   1      56.318  -1.034  31.604  0.00  0.00    -0.326 OA
ATOM     17  C   UNL d   1      56.311  -1.749  32.009  0.00  0.00     0.181 C 
ENDBRANCH  10  16
ENDBRANCH   2   6
BRANCH   1  18
ATOM     18  S   UNL d   1      59.596  -1.077  29.257  0.00  0.00     0.255 S 
ATOM     19  O   UNL d   1      60.326  -1.343  28.794  0.00  0.00    -0.205 OA
ATOM     20  O   UNL d   1      60.127  -0.345  29.200  0.00  0.00    -0.205 OA
BRANCH  18  21
ATOM     21  C   UNL d   1      59.290  -1.918  29.164  0.00  0.00     0.099 A 
ATOM     22  C   UNL d   1      59.682  -2.599  29.607  0.00  0.00     0.015 A 
ATOM     23  C   UNL d   1      59.383  -3.434  29.518  0.00  0.00     0.030 A 
ATOM     24  C   UNL d   1      58.681  -3.602  28.982  0.00  0.00     0.140 A 
ATOM     25  C   UNL d   1      58.280  -2.925  28.533  0.00  0.00     0.030 A 
ATOM     26  F   UNL d   1      58.366  -4.449  28.882  0.00  0.00    -0.204 F 
ATOM     27  C   UNL d   1      58.584  -2.076  28.622  0.00  0.00     0.015 A 
ENDBRANCH  18  21
ENDBRANCH   1  18
TORSDOF 6
ENDMDL
