MODEL 1
REMARK VINA RESULT:      -7.2      0.000      0.000
REMARK  7 active torsions:
REMARK  status: ('A' for Active; 'I' for Inactive)
REMARK    1  A    between atoms: C_2  and  S_1 
REMARK    2  A    between atoms: N_6  and  S_1 
REMARK    3  A    between atoms: O_14  and  C_5 
REMARK    4  A    between atoms: C_15  and  N_6 
REMARK    5  A    between atoms: O_16  and  C_7 
REMARK    6  A    between atoms: C_11  and  C_19 
REMARK    7  A    between atoms: C_19  and  C_15 
ROOT
ATOM      1  C   UNL d   1     -47.990  13.252  22.534  0.00  0.00     0.112 C 
ENDROOT
BRANCH   1   2
ATOM      2  N   UNL d   1     -48.720  13.624  22.601  0.00  0.00    -0.157 NA
BRANCH   2   3
ATOM      3  S   UNL d   1     -49.234  13.660  21.956  0.00  0.00     0.285 S 
ATOM      4  O   UNL d   1     -48.624  13.392  21.470  0.00  0.00    -0.198 OA
ATOM      5  O   UNL d   1     -49.734  13.693  21.311  0.00  0.00    -0.198 OA
BRANCH   3   6
ATOM      6  C   UNL d   1     -49.839  13.929  22.450  0.00  0.00     0.105 A 
ATOM      7  C   UNL d   1     -49.831  14.703  22.744  0.00  0.00     0.013 A 
ATOM      8  C   UNL d   1     -50.439  14.963  23.236  0.00  0.00     0.001 A 
ATOM      9  C   UNL d   1     -50.432  15.733  23.530  0.00  0.00     0.000 C 
ATOM     10  C   UNL d   1     -51.057  14.450  23.436  0.00  0.00     0.000 A 
ATOM     11  C   UNL d   1     -51.064  13.680  23.142  0.00  0.00     0.001 A 
ATOM     12  C   UNL d   1     -50.456  13.420  22.649  0.00  0.00     0.013 A 
ENDBRANCH   3   6
ENDBRANCH   2   3
ENDBRANCH   1   2
BRANCH   1  13
ATOM     13  C   UNL d   1     -47.450  13.319  23.144  0.00  0.00     0.022 C 
BRANCH  13  14
ATOM     14  C   UNL d   1     -46.836  12.782  23.203  0.00  0.00     0.004 A 
ATOM     15  C   UNL d   1     -46.110  12.934  22.842  0.00  0.00     0.026 A 
ATOM     16  C   UNL d   1     -45.493  12.389  22.903  0.00  0.00     0.116 A 
ATOM     17  C   UNL d   1     -45.612  11.682  23.334  0.00  0.00     0.116 A 
ATOM     18  C   UNL d   1     -46.329  11.536  23.688  0.00  0.00     0.026 A 
ATOM     19  C   UNL d   1     -46.944  12.077  23.629  0.00  0.00     0.002 A 
BRANCH  16  20
ATOM     20  O   UNL d   1     -44.769  12.545  22.540  0.00  0.00    -0.326 OA
ATOM     21  C   UNL d   1     -44.611  13.034  21.836  0.00  0.00     0.181 C 
ENDBRANCH  16  20
BRANCH  17  22
ATOM     22  O   UNL d   1     -45.022  11.143  23.403  0.00  0.00    -0.326 OA
ATOM     23  C   UNL d   1     -45.168  10.393  23.686  0.00  0.00     0.181 C 
ENDBRANCH  17  22
ENDBRANCH  13  14
ENDBRANCH   1  13
TORSDOF 7
ENDMDL
MODEL 2
REMARK VINA RESULT:      -7.1      1.246      1.876
REMARK  7 active torsions:
REMARK  status: ('A' for Active; 'I' for Inactive)
REMARK    1  A    between atoms: C_2  and  S_1 
REMARK    2  A    between atoms: N_6  and  S_1 
REMARK    3  A    between atoms: O_14  and  C_5 
REMARK    4  A    between atoms: C_15  and  N_6 
REMARK    5  A    between atoms: O_16  and  C_7 
REMARK    6  A    between atoms: C_11  and  C_19 
REMARK    7  A    between atoms: C_19  and  C_15 
ROOT
ATOM      1  C   UNL d   1     -48.038  12.325  23.125  0.00  0.00     0.112 C 
ENDROOT
BRANCH   1   2
ATOM      2  N   UNL d   1     -48.826  12.542  23.213  0.00  0.00    -0.157 NA
BRANCH   2   3
ATOM      3  S   UNL d   1     -49.430  11.991  23.093  0.00  0.00     0.285 S 
ATOM      4  O   UNL d   1     -48.879  11.384  23.191  0.00  0.00    -0.198 OA
ATOM      5  O   UNL d   1     -50.019  11.437  22.976  0.00  0.00    -0.198 OA
BRANCH   3   6
ATOM      6  C   UNL d   1     -49.974  12.604  22.997  0.00  0.00     0.105 A 
ATOM      7  C   UNL d   1     -50.216  12.837  22.241  0.00  0.00     0.013 A 
ATOM      8  C   UNL d   1     -50.761  13.451  22.154  0.00  0.00     0.001 A 
ATOM      9  C   UNL d   1     -51.003  13.685  21.402  0.00  0.00     0.000 C 
ATOM     10  C   UNL d   1     -51.064  13.832  22.823  0.00  0.00     0.000 A 
ATOM     11  C   UNL d   1     -50.822  13.598  23.575  0.00  0.00     0.001 A 
ATOM     12  C   UNL d   1     -50.277  12.985  23.662  0.00  0.00     0.013 A 
ENDBRANCH   3   6
ENDBRANCH   2   3
ENDBRANCH   1   2
BRANCH   1  13
ATOM     13  C   UNL d   1     -47.453  12.825  23.402  0.00  0.00     0.022 C 
BRANCH  13  14
ATOM     14  C   UNL d   1     -46.690  12.752  23.116  0.00  0.00     0.004 A 
ATOM     15  C   UNL d   1     -46.198  12.147  23.384  0.00  0.00     0.026 A 
ATOM     16  C   UNL d   1     -45.429  12.077  23.094  0.00  0.00     0.116 A 
ATOM     17  C   UNL d   1     -45.154  12.625  22.525  0.00  0.00     0.116 A 
ATOM     18  C   UNL d   1     -45.642  13.221  22.264  0.00  0.00     0.026 A 
ATOM     19  C   UNL d   1     -46.408  13.292  22.552  0.00  0.00     0.002 A 
BRANCH  16  20
ATOM     20  O   UNL d   1     -44.940  11.470  23.364  0.00  0.00    -0.326 OA
ATOM     21  C   UNL d   1     -45.168  10.676  23.645  0.00  0.00     0.181 C 
ENDBRANCH  16  20
BRANCH  17  22
ATOM     22  O   UNL d   1     -44.409  12.571  22.233  0.00  0.00    -0.326 OA
ATOM     23  C   UNL d   1     -44.202  12.937  21.536  0.00  0.00     0.181 C 
ENDBRANCH  17  22
ENDBRANCH  13  14
ENDBRANCH   1  13
TORSDOF 7
ENDMDL
MODEL 3
REMARK VINA RESULT:      -5.3      8.572      9.758
REMARK  7 active torsions:
REMARK  status: ('A' for Active; 'I' for Inactive)
REMARK    1  A    between atoms: C_2  and  S_1 
REMARK    2  A    between atoms: N_6  and  S_1 
REMARK    3  A    between atoms: O_14  and  C_5 
REMARK    4  A    between atoms: C_15  and  N_6 
REMARK    5  A    between atoms: O_16  and  C_7 
REMARK    6  A    between atoms: C_11  and  C_19 
REMARK    7  A    between atoms: C_19  and  C_15 
ROOT
ATOM      1  C   UNL d   1     -40.362  15.023  19.696  0.00  0.00     0.112 C 
ENDROOT
BRANCH   1   2
ATOM      2  N   UNL d   1     -40.125  14.888  20.471  0.00  0.00    -0.157 NA
BRANCH   2   3
ATOM      3  S   UNL d   1     -40.346  15.406  21.075  0.00  0.00     0.285 S 
ATOM      4  O   UNL d   1     -41.008  15.622  20.631  0.00  0.00    -0.198 OA
ATOM      5  O   UNL d   1     -40.574  15.922  21.666  0.00  0.00    -0.198 OA
BRANCH   3   6
ATOM      6  C   UNL d   1     -39.681  15.185  21.512  0.00  0.00     0.105 A 
ATOM      7  C   UNL d   1     -39.642  14.440  21.870  0.00  0.00     0.013 A 
ATOM      8  C   UNL d   1     -38.974  14.227  22.305  0.00  0.00     0.001 A 
ATOM      9  C   UNL d   1     -38.934  13.486  22.663  0.00  0.00     0.000 C 
ATOM     10  C   UNL d   1     -38.345  14.758  22.382  0.00  0.00     0.000 A 
ATOM     11  C   UNL d   1     -38.385  15.500  22.025  0.00  0.00     0.001 A 
ATOM     12  C   UNL d   1     -39.053  15.713  21.590  0.00  0.00     0.013 A 
ENDBRANCH   3   6
ENDBRANCH   2   3
ENDBRANCH   1   2
BRANCH   1  13
ATOM     13  C   UNL d   1     -40.433  14.390  19.184  0.00  0.00     0.022 C 
BRANCH  13  14
ATOM     14  C   UNL d   1     -40.149  14.453  18.419  0.00  0.00     0.004 A 
ATOM     15  C   UNL d   1     -40.542  14.920  17.863  0.00  0.00     0.026 A 
ATOM     16  C   UNL d   1     -40.252  14.982  17.093  0.00  0.00     0.116 A 
ATOM     17  C   UNL d   1     -39.557  14.566  16.882  0.00  0.00     0.116 A 
ATOM     18  C   UNL d   1     -39.173  14.107  17.433  0.00  0.00     0.026 A 
ATOM     19  C   UNL d   1     -39.460  14.045  18.200  0.00  0.00     0.002 A 
BRANCH  16  20
ATOM     20  O   UNL d   1     -40.647  15.450  16.540  0.00  0.00    -0.326 OA
ATOM     21  C   UNL d   1     -41.450  15.786  16.593  0.00  0.00     0.181 C 
ENDBRANCH  16  20
BRANCH  17  22
ATOM     22  O   UNL d   1     -39.263  14.616  16.138  0.00  0.00    -0.326 OA
ATOM     23  C   UNL d   1     -38.607  14.188  15.915  0.00  0.00     0.181 C 
ENDBRANCH  17  22
ENDBRANCH  13  14
ENDBRANCH   1  13
TORSDOF 7
ENDMDL
MODEL 4
REMARK VINA RESULT:      -5.2      1.624      4.813
REMARK  7 active torsions:
REMARK  status: ('A' for Active; 'I' for Inactive)
REMARK    1  A    between atoms: C_2  and  S_1 
REMARK    2  A    between atoms: N_6  and  S_1 
REMARK    3  A    between atoms: O_14  and  C_5 
REMARK    4  A    between atoms: C_15  and  N_6 
REMARK    5  A    between atoms: O_16  and  C_7 
REMARK    6  A    between atoms: C_11  and  C_19 
REMARK    7  A    between atoms: C_19  and  C_15 
ROOT
ATOM      1  C   UNL d   1     -47.529  13.416  22.375  0.00  0.00     0.112 C 
ENDROOT
BRANCH   1   2
ATOM      2  N   UNL d   1     -46.721  13.279  22.308  0.00  0.00    -0.157 NA
BRANCH   2   3
ATOM      3  S   UNL d   1     -46.178  13.785  22.670  0.00  0.00     0.285 S 
ATOM      4  O   UNL d   1     -46.784  14.331  22.792  0.00  0.00    -0.198 OA
ATOM      5  O   UNL d   1     -45.648  14.293  23.030  0.00  0.00    -0.198 OA
BRANCH   3   6
ATOM      6  C   UNL d   1     -45.576  13.233  22.544  0.00  0.00     0.105 A 
ATOM      7  C   UNL d   1     -45.007  13.358  21.956  0.00  0.00     0.013 A 
ATOM      8  C   UNL d   1     -44.409  12.802  21.837  0.00  0.00     0.001 A 
ATOM      9  C   UNL d   1     -43.841  12.924  21.253  0.00  0.00     0.000 C 
ATOM     10  C   UNL d   1     -44.381  12.120  22.305  0.00  0.00     0.000 A 
ATOM     11  C   UNL d   1     -44.948  11.997  22.889  0.00  0.00     0.001 A 
ATOM     12  C   UNL d   1     -45.546  12.553  23.009  0.00  0.00     0.013 A 
ENDBRANCH   3   6
ENDBRANCH   2   3
ENDBRANCH   1   2
BRANCH   1  13
ATOM     13  C   UNL d   1     -48.043  13.022  21.877  0.00  0.00     0.022 C 
BRANCH  13  14
ATOM     14  C   UNL d   1     -48.784  12.805  22.148  0.00  0.00     0.004 A 
ATOM     15  C   UNL d   1     -49.420  13.327  22.094  0.00  0.00     0.026 A 
ATOM     16  C   UNL d   1     -50.165  13.105  22.370  0.00  0.00     0.116 A 
ATOM     17  C   UNL d   1     -50.269  12.345  22.704  0.00  0.00     0.116 A 
ATOM     18  C   UNL d   1     -49.639  11.833  22.756  0.00  0.00     0.026 A 
ATOM     19  C   UNL d   1     -48.896  12.053  22.482  0.00  0.00     0.002 A 
BRANCH  16  20
ATOM     20  O   UNL d   1     -50.799  13.630  22.314  0.00  0.00    -0.326 OA
ATOM     21  C   UNL d   1     -50.806  14.435  21.978  0.00  0.00     0.181 C 
ENDBRANCH  16  20
BRANCH  17  22
ATOM     22  O   UNL d   1     -50.987  12.113  22.976  0.00  0.00    -0.326 OA
ATOM     23  C   UNL d   1     -51.064  11.744  23.698  0.00  0.00     0.181 C 
ENDBRANCH  17  22
ENDBRANCH  13  14
ENDBRANCH   1  13
TORSDOF 7
ENDMDL
MODEL 5
REMARK VINA RESULT:      -5.0      8.464     10.065
REMARK  7 active torsions:
REMARK  status: ('A' for Active; 'I' for Inactive)
REMARK    1  A    between atoms: C_2  and  S_1 
REMARK    2  A    between atoms: N_6  and  S_1 
REMARK    3  A    between atoms: O_14  and  C_5 
REMARK    4  A    between atoms: C_15  and  N_6 
REMARK    5  A    between atoms: O_16  and  C_7 
REMARK    6  A    between atoms: C_11  and  C_19 
REMARK    7  A    between atoms: C_19  and  C_15 
ROOT
ATOM      1  C   UNL d   1     -39.662  14.554  18.912  0.00  0.00     0.112 C 
ENDROOT
BRANCH   1   2
ATOM      2  N   UNL d   1     -39.764  14.786  19.693  0.00  0.00    -0.157 NA
BRANCH   2   3
ATOM      3  S   UNL d   1     -40.472  14.631  20.089  0.00  0.00     0.285 S 
ATOM      4  O   UNL d   1     -40.813  14.413  19.370  0.00  0.00    -0.198 OA
ATOM      5  O   UNL d   1     -41.178  14.474  20.470  0.00  0.00    -0.198 OA
BRANCH   3   6
ATOM      6  C   UNL d   1     -40.124  14.850  20.805  0.00  0.00     0.105 A 
ATOM      7  C   UNL d   1     -39.756  14.285  21.285  0.00  0.00     0.013 A 
ATOM      8  C   UNL d   1     -39.410  14.512  21.998  0.00  0.00     0.001 A 
ATOM      9  C   UNL d   1     -39.043  13.951  22.477  0.00  0.00     0.000 C 
ATOM     10  C   UNL d   1     -39.432  15.305  22.234  0.00  0.00     0.000 A 
ATOM     11  C   UNL d   1     -39.799  15.866  21.755  0.00  0.00     0.001 A 
ATOM     12  C   UNL d   1     -40.145  15.639  21.041  0.00  0.00     0.013 A 
ENDBRANCH   3   6
ENDBRANCH   2   3
ENDBRANCH   1   2
BRANCH   1  13
ATOM     13  C   UNL d   1     -38.990  14.790  18.510  0.00  0.00     0.022 C 
BRANCH  13  14
ATOM     14  C   UNL d   1     -38.794  14.429  17.802  0.00  0.00     0.004 A 
ATOM     15  C   UNL d   1     -38.491  13.662  17.793  0.00  0.00     0.026 A 
ATOM     16  C   UNL d   1     -38.294  13.302  17.077  0.00  0.00     0.116 A 
ATOM     17  C   UNL d   1     -38.406  13.722  16.362  0.00  0.00     0.116 A 
ATOM     18  C   UNL d   1     -38.705  14.478  16.376  0.00  0.00     0.026 A 
ATOM     19  C   UNL d   1     -38.901  14.838  17.087  0.00  0.00     0.002 A 
BRANCH  16  20
ATOM     20  O   UNL d   1     -37.991  12.535  17.071  0.00  0.00    -0.326 OA
ATOM     21  C   UNL d   1     -37.940  11.969  17.733  0.00  0.00     0.181 C 
ENDBRANCH  16  20
BRANCH  17  22
ATOM     22  O   UNL d   1     -38.220  13.386  15.658  0.00  0.00    -0.326 OA
ATOM     23  C   UNL d   1     -38.091  13.841  14.995  0.00  0.00     0.181 C 
ENDBRANCH  17  22
ENDBRANCH  13  14
ENDBRANCH   1  13
TORSDOF 7
ENDMDL
