MODEL 1
REMARK VINA RESULT:      24.3      0.000      0.000
REMARK  2 active torsions:
REMARK  status: ('A' for Active; 'I' for Inactive)
REMARK    1  A    between atoms: S_2  and  C_1 
REMARK    2  A    between atoms: N_3  and  S_2 
ROOT
ATOM      1  C   UNL d   1     -54.801-101.242 -37.115  0.00  0.00     0.125 A 
ATOM      2  C   UNL d   1     -54.712-100.404 -36.978  0.00  0.00    -0.009 A 
ATOM      3  C   UNL d   1     -54.970-101.872 -36.764  0.00  0.00     0.031 A 
ATOM      4  C   UNL d   1     -54.811-100.647 -36.694  0.00  0.00    -0.009 A 
ATOM      5  C   UNL d   1     -54.981-100.475 -35.826  0.00  0.00    -0.007 A 
ATOM      6  C   UNL d   1     -55.129-101.719 -35.960  0.00  0.00     0.045 A 
ATOM      7  C   UNL d   1     -54.844-100.258 -36.299  0.00  0.00    -0.007 A 
ATOM      8  C   UNL d   1     -55.145-101.086 -35.486  0.00  0.00    -0.022 A 
ATOM      9  C   UNL d   1     -55.066-101.065 -35.824  0.00  0.00    -0.022 A 
ATOM     10  C   UNL d   1     -54.895 -99.625 -35.669  0.00  0.00    -0.001 A 
ENDROOT
BRANCH   1  11
ATOM     11  S   UNL d   1     -54.758-102.026 -37.810  0.00  0.00     0.142 S 
ATOM     12  O   UNL d   1     -54.721-102.713 -37.338  0.00  0.00    -0.233 OA
BRANCH  11  13
ATOM     13  N   UNL d   1     -54.753-102.083 -38.608  0.00  0.00    -0.251 N 
ATOM     14  C   UNL d   1     -54.716-101.405 -39.059  0.00  0.00     0.108 A 
ATOM     15  C   UNL d   1     -54.712-101.480 -39.912  0.00  0.00     0.100 A 
ATOM     16  N   UNL d   1     -54.744-102.204 -40.250  0.00  0.00    -0.299 N 
ATOM     17  C   UNL d   1     -54.781-102.878 -39.762  0.00  0.00     0.100 A 
ATOM     18  C   UNL d   1     -54.729-102.055 -41.088  0.00  0.00     0.100 C 
ATOM     19  C   UNL d   1     -54.785-102.812 -38.948  0.00  0.00     0.108 A 
ENDBRANCH  11  13
ENDBRANCH   1  11
TORSDOF 2
ENDMDL
