MODEL 1
REMARK VINA RESULT:     -11.0      0.000      0.000
REMARK  2 active torsions:
REMARK  status: ('A' for Active; 'I' for Inactive)
REMARK       I    between atoms: C_3  and  N_1 
REMARK       I    between atoms: C_4  and  N_2 
REMARK    1  A    between atoms: C_6  and  C_3 
REMARK    2  A    between atoms: C_8  and  C_4 
ROOT
ATOM      1  N   UNL d   1      53.396  32.480  53.746  0.00  0.00    -0.270 N 
ATOM      2  N   UNL d   1      52.538  33.848  53.379  0.00  0.00    -0.269 N 
ATOM      3  C   UNL d   1      53.822  31.801  53.928  0.00  0.00     0.265 C 
ATOM      4  C   UNL d   1      52.113  34.533  53.198  0.00  0.00     0.265 C 
ATOM      5  C   UNL d   1      53.673  33.224  53.987  0.00  0.00     0.085 A 
ATOM      6  C   UNL d   1      53.254  33.908  53.809  0.00  0.00     0.101 A 
ATOM      7  C   UNL d   1      52.689  32.428  53.321  0.00  0.00     0.102 A 
ATOM      8  C   UNL d   1      52.257  33.118  53.136  0.00  0.00     0.102 A 
ATOM      9  O   UNL d   1      54.531  31.856  54.354  0.00  0.00    -0.267 OA
ATOM     10  O   UNL d   1      52.396  35.276  53.442  0.00  0.00    -0.267 OA
ATOM     11  C   UNL d   1      54.386  33.281  54.416  0.00  0.00     0.021 C 
ENDROOT
BRANCH   3  12
ATOM     12  C   UNL d   1      53.545  31.064  53.687  0.00  0.00     0.057 A 
ATOM     13  C   UNL d   1      53.445  30.459  54.241  0.00  0.00     0.005 A 
ATOM     14  C   UNL d   1      53.168  29.721  54.000  0.00  0.00     0.000 A 
ATOM     15  C   UNL d   1      53.068  29.116  54.554  0.00  0.00     0.000 C 
ATOM     16  C   UNL d   1      52.990  29.588  53.207  0.00  0.00     0.000 A 
ATOM     17  C   UNL d   1      53.091  30.199  52.648  0.00  0.00     0.000 A 
ATOM     18  C   UNL d   1      53.367  30.930  52.894  0.00  0.00     0.005 A 
ENDBRANCH   3  12
BRANCH   4  19
ATOM     19  C   UNL d   1      51.408  34.477  52.774  0.00  0.00     0.057 A 
ATOM     20  C   UNL d   1      50.693  34.649  53.150  0.00  0.00     0.005 A 
ATOM     21  C   UNL d   1      49.988  34.594  52.726  0.00  0.00     0.000 A 
ATOM     22  C   UNL d   1      49.269  34.764  53.095  0.00  0.00     0.000 C 
ATOM     23  C   UNL d   1      49.998  34.366  51.926  0.00  0.00     0.000 A 
ATOM     24  C   UNL d   1      50.709  34.196  51.558  0.00  0.00     0.000 A 
ATOM     25  C   UNL d   1      51.423  34.251  51.982  0.00  0.00     0.005 A 
ENDBRANCH   4  19
TORSDOF 2
ENDMDL
MODEL 2
REMARK VINA RESULT:     -10.7      0.225      4.322
REMARK  2 active torsions:
REMARK  status: ('A' for Active; 'I' for Inactive)
REMARK       I    between atoms: C_3  and  N_1 
REMARK       I    between atoms: C_4  and  N_2 
REMARK    1  A    between atoms: C_6  and  C_3 
REMARK    2  A    between atoms: C_8  and  C_4 
ROOT
ATOM      1  N   UNL d   1      52.432  33.878  53.491  0.00  0.00    -0.270 N 
ATOM      2  N   UNL d   1      53.311  32.525  53.864  0.00  0.00    -0.269 N 
ATOM      3  C   UNL d   1      51.995  34.550  53.305  0.00  0.00     0.265 C 
ATOM      4  C   UNL d   1      53.752  31.853  54.052  0.00  0.00     0.265 C 
ATOM      5  C   UNL d   1      53.102  33.937  53.975  0.00  0.00     0.085 A 
ATOM      6  C   UNL d   1      53.544  33.271  54.165  0.00  0.00     0.101 A 
ATOM      7  C   UNL d   1      52.206  33.140  53.196  0.00  0.00     0.102 A 
ATOM      8  C   UNL d   1      52.649  32.458  53.385  0.00  0.00     0.102 A 
ATOM      9  O   UNL d   1      52.223  35.290  53.602  0.00  0.00    -0.267 OA
ATOM     10  O   UNL d   1      54.424  31.918  54.538  0.00  0.00    -0.267 OA
ATOM     11  C   UNL d   1      53.334  34.680  54.274  0.00  0.00     0.021 C 
ENDROOT
BRANCH   3  12
ATOM     12  C   UNL d   1      51.329  34.489  52.825  0.00  0.00     0.057 A 
ATOM     13  C   UNL d   1      50.580  34.644  53.135  0.00  0.00     0.005 A 
ATOM     14  C   UNL d   1      49.913  34.583  52.654  0.00  0.00     0.000 A 
ATOM     15  C   UNL d   1      49.163  34.738  52.964  0.00  0.00     0.000 C 
ATOM     16  C   UNL d   1      49.996  34.367  51.863  0.00  0.00     0.000 A 
ATOM     17  C   UNL d   1      50.753  34.211  51.549  0.00  0.00     0.000 A 
ATOM     18  C   UNL d   1      51.411  34.273  52.033  0.00  0.00     0.005 A 
ENDBRANCH   3  12
BRANCH   4  19
ATOM     19  C   UNL d   1      53.524  31.118  53.757  0.00  0.00     0.057 A 
ATOM     20  C   UNL d   1      53.409  30.488  54.278  0.00  0.00     0.005 A 
ATOM     21  C   UNL d   1      53.181  29.753  53.983  0.00  0.00     0.000 A 
ATOM     22  C   UNL d   1      53.064  29.118  54.499  0.00  0.00     0.000 C 
ATOM     23  C   UNL d   1      53.068  29.648  53.166  0.00  0.00     0.000 A 
ATOM     24  C   UNL d   1      53.183  30.274  52.652  0.00  0.00     0.000 A 
ATOM     25  C   UNL d   1      53.413  31.018  52.946  0.00  0.00     0.005 A 
ENDBRANCH   4  19
TORSDOF 2
ENDMDL
MODEL 3
REMARK VINA RESULT:      -8.1      1.679      4.649
REMARK  2 active torsions:
REMARK  status: ('A' for Active; 'I' for Inactive)
REMARK       I    between atoms: C_3  and  N_1 
REMARK       I    between atoms: C_4  and  N_2 
REMARK    1  A    between atoms: C_6  and  C_3 
REMARK    2  A    between atoms: C_8  and  C_4 
ROOT
ATOM      1  N   UNL d   1      53.345  32.401  53.528  0.00  0.00    -0.270 N 
ATOM      2  N   UNL d   1      52.857  30.819  53.513  0.00  0.00    -0.269 N 
ATOM      3  C   UNL d   1      53.587  33.187  53.535  0.00  0.00     0.265 C 
ATOM      4  C   UNL d   1      52.611  30.030  53.503  0.00  0.00     0.265 C 
ATOM      5  C   UNL d   1      52.680  32.174  53.087  0.00  0.00     0.085 A 
ATOM      6  C   UNL d   1      52.431  31.390  53.074  0.00  0.00     0.101 A 
ATOM      7  C   UNL d   1      53.761  31.832  53.959  0.00  0.00     0.102 A 
ATOM      8  C   UNL d   1      53.515  31.034  53.951  0.00  0.00     0.102 A 
ATOM      9  O   UNL d   1      53.167  33.756  53.102  0.00  0.00    -0.267 OA
ATOM     10  O   UNL d   1      51.944  29.808  53.059  0.00  0.00    -0.267 OA
ATOM     11  C   UNL d   1      52.257  32.745  52.651  0.00  0.00     0.021 C 
ENDROOT
BRANCH   3  12
ATOM     12  C   UNL d   1      54.247  33.410  53.974  0.00  0.00     0.057 A 
ATOM     13  C   UNL d   1      54.164  33.620  54.768  0.00  0.00     0.005 A 
ATOM     14  C   UNL d   1      54.826  33.844  55.208  0.00  0.00     0.000 A 
ATOM     15  C   UNL d   1      54.743  34.053  56.002  0.00  0.00     0.000 C 
ATOM     16  C   UNL d   1      55.569  33.858  54.852  0.00  0.00     0.000 A 
ATOM     17  C   UNL d   1      55.652  33.647  54.049  0.00  0.00     0.000 A 
ATOM     18  C   UNL d   1      54.991  33.425  53.619  0.00  0.00     0.005 A 
ENDBRANCH   3  12
BRANCH   4  19
ATOM     19  C   UNL d   1      53.029  29.465  53.934  0.00  0.00     0.057 A 
ATOM     20  C   UNL d   1      52.842  29.339  54.728  0.00  0.00     0.005 A 
ATOM     21  C   UNL d   1      53.259  28.774  55.159  0.00  0.00     0.000 A 
ATOM     22  C   UNL d   1      53.077  28.641  55.953  0.00  0.00     0.000 C 
ATOM     23  C   UNL d   1      53.865  28.335  54.795  0.00  0.00     0.000 A 
ATOM     24  C   UNL d   1      54.048  28.463  54.008  0.00  0.00     0.000 A 
ATOM     25  C   UNL d   1      53.628  29.033  53.569  0.00  0.00     0.005 A 
ENDBRANCH   4  19
TORSDOF 2
ENDMDL
