MODEL 1
REMARK VINA RESULT:      54.7      0.000      0.000
REMARK  7 active torsions:
REMARK  status: ('A' for Active; 'I' for Inactive)
REMARK    1  A    between atoms: C_2  and  N_1 
REMARK    2  A    between atoms: C_4  and  C_2 
REMARK    3  A    between atoms: O_3  and  C_9 
REMARK    4  A    between atoms: C_7  and  O_3 
REMARK    5  A    between atoms: C_9  and  C_4 
REMARK    6  A    between atoms: C_10  and  C_12 
REMARK    7  A    between atoms: C_17  and  C_10 
ROOT
ATOM      1  N   UNL d   1     -55.099-101.079 -43.217  0.00  0.00    -0.300 N 
ATOM      2  C   UNL d   1     -55.562-100.714 -42.684  0.00  0.00     0.080 A 
ATOM      3  C   UNL d   1     -54.955-100.729 -43.975  0.00  0.00     0.080 A 
ATOM      4  C   UNL d   1     -55.783 -99.633 -43.587  0.00  0.00     0.003 A 
ATOM      5  C   UNL d   1     -55.910 -99.984 -42.865  0.00  0.00     0.019 A 
ATOM      6  C   UNL d   1     -55.305-100.002 -44.149  0.00  0.00     0.019 A 
ENDROOT
BRANCH   1   7
ATOM      7  C   UNL d   1     -54.760-101.826 -42.994  0.00  0.00     0.125 C 
BRANCH   7   8
ATOM      8  C   UNL d   1     -55.203-102.384 -42.526  0.00  0.00     0.238 C 
ATOM      9  O   UNL d   1     -55.866-102.760 -42.837  0.00  0.00    -0.283 OA
BRANCH   8  10
ATOM     10  C   UNL d   1     -54.955-102.539 -41.756  0.00  0.00     0.166 C 
BRANCH  10  11
ATOM     11  O   UNL d   1     -55.503-102.636 -41.151  0.00  0.00    -0.302 OA
BRANCH  11  12
ATOM     12  C   UNL d   1     -55.309-102.378 -40.374  0.00  0.00     0.100 A 
ATOM     13  C   UNL d   1     -55.520-102.853 -39.701  0.00  0.00     0.026 A 
ATOM     14  C   UNL d   1     -55.331-102.604 -38.936  0.00  0.00     0.013 A 
ATOM     15  C   UNL d   1     -54.937-101.896 -38.821  0.00  0.00     0.058 A 
ATOM     16  C   UNL d   1     -54.723-101.421 -39.469  0.00  0.00     0.013 A 
ATOM     17 CL   UNL d   1     -54.742-101.639 -38.032  0.00  0.00    -0.082 Cl
ATOM     18  C   UNL d   1     -54.910-101.665 -40.233  0.00  0.00     0.026 A 
ENDBRANCH  11  12
ENDBRANCH  10  11
ENDBRANCH   8  10
ENDBRANCH   7   8
ENDBRANCH   1   7
BRANCH   4  19
ATOM     19  C   UNL d   1     -56.159 -98.861 -43.762  0.00  0.00     0.000 C 
BRANCH  19  20
ATOM     20  C   UNL d   1     -56.974 -98.830 -43.935  0.00  0.00     0.000 A 
ATOM     21  C   UNL d   1     -57.241 -98.836 -44.703  0.00  0.00     0.000 A 
ATOM     22  C   UNL d   1     -58.060 -98.805 -44.865  0.00  0.00     0.000 A 
ATOM     23  C   UNL d   1     -58.587 -98.768 -44.235  0.00  0.00     0.000 A 
ATOM     24  C   UNL d   1     -58.321 -98.761 -43.467  0.00  0.00     0.000 A 
ATOM     25  C   UNL d   1     -57.519 -98.792 -43.307  0.00  0.00     0.000 A 
ENDBRANCH  19  20
ENDBRANCH   4  19
TORSDOF 7
ENDMDL
