MODEL 1
REMARK VINA RESULT:      -4.1      0.000      0.000
REMARK  3 active torsions:
REMARK  status: ('A' for Active; 'I' for Inactive)
REMARK    1  A    between atoms: S_4  and  C_1 
REMARK    2  A    between atoms: N_2  and  C_5 
REMARK    3  A    between atoms: C_9  and  S_4 
ROOT
ATOM      1  C   UNL d   1      56.629  -0.314  32.123  0.00  0.00     0.133 A 
ATOM      2  C   UNL d   1      56.236  -0.219  32.870  0.00  0.00     0.051 A 
ATOM      3  C   UNL d   1      56.615  -1.093  31.797  0.00  0.00     0.024 A 
ATOM      4  C   UNL d   1      55.874  -0.851  33.233  0.00  0.00     0.008 A 
ATOM      5  C   UNL d   1      56.247  -1.700  32.182  0.00  0.00     0.002 A 
ATOM      6  C   UNL d   1      55.876  -1.604  32.890  0.00  0.00     0.001 A 
ENDROOT
BRANCH   2   7
ATOM      7  S   UNL d   1      56.209   0.522  33.253  0.00  0.00    -0.082 SA
BRANCH   7   8
ATOM      8  C   UNL d   1      55.859   0.584  33.987  0.00  0.00     0.068 A 
ATOM      9  C   UNL d   1      55.076   0.620  34.236  0.00  0.00     0.110 A 
ATOM     10  N   UNL d   1      55.068   0.678  35.027  0.00  0.00    -0.147 NA
ATOM     11  C   UNL d   1      54.415   0.598  33.714  0.00  0.00     0.023 C 
ATOM     12  N   UNL d   1      55.804   0.682  35.314  0.00  0.00    -0.147 NA
ATOM     13  C   UNL d   1      56.328   0.622  34.660  0.00  0.00     0.110 A 
ATOM     14  C   UNL d   1      57.156   0.604  34.679  0.00  0.00     0.023 C 
ENDBRANCH   7   8
ENDBRANCH   2   7
BRANCH   1  15
ATOM     15  N   UNL d   1      57.014   0.295  31.707  0.00  0.00    -0.113 N 
ATOM     16  O   UNL d   1      56.633   0.681  31.136  0.00  0.00    -0.532 OA
ATOM     17  O   UNL d   1      57.805   0.486  31.907  0.00  0.00    -0.532 OA
ENDBRANCH   1  15
TORSDOF 3
ENDMDL
MODEL 2
REMARK VINA RESULT:      -3.7      1.561      2.689
REMARK  3 active torsions:
REMARK  status: ('A' for Active; 'I' for Inactive)
REMARK    1  A    between atoms: S_4  and  C_1 
REMARK    2  A    between atoms: N_2  and  C_5 
REMARK    3  A    between atoms: C_9  and  S_4 
ROOT
ATOM      1  C   UNL d   1      55.532  -0.314  33.422  0.00  0.00     0.133 A 
ATOM      2  C   UNL d   1      56.229  -0.227  32.944  0.00  0.00     0.051 A 
ATOM      3  C   UNL d   1      55.206  -1.092  33.460  0.00  0.00     0.024 A 
ATOM      4  C   UNL d   1      56.547  -0.866  32.555  0.00  0.00     0.008 A 
ATOM      5  C   UNL d   1      55.546  -1.706  33.061  0.00  0.00     0.002 A 
ATOM      6  C   UNL d   1      56.207  -1.618  32.609  0.00  0.00     0.001 A 
ENDROOT
BRANCH   2   7
ATOM      7  S   UNL d   1      56.606   0.512  32.860  0.00  0.00    -0.082 SA
BRANCH   7   8
ATOM      8  C   UNL d   1      57.304   0.564  32.442  0.00  0.00     0.068 A 
ATOM      9  C   UNL d   1      57.480   0.557  31.638  0.00  0.00     0.110 A 
ATOM     10  N   UNL d   1      58.266   0.626  31.555  0.00  0.00    -0.147 NA
ATOM     11  C   UNL d   1      56.901   0.488  31.030  0.00  0.00     0.023 C 
ATOM     12  N   UNL d   1      58.618   0.677  32.260  0.00  0.00    -0.147 NA
ATOM     13  C   UNL d   1      58.016   0.639  32.845  0.00  0.00     0.110 A 
ATOM     14  C   UNL d   1      58.110   0.671  33.666  0.00  0.00     0.023 C 
ENDBRANCH   7   8
ENDBRANCH   2   7
BRANCH   1  15
ATOM     15  N   UNL d   1      55.163   0.303  33.842  0.00  0.00    -0.113 N 
ATOM     16  O   UNL d   1      55.449   0.525  34.542  0.00  0.00    -0.532 OA
ATOM     17  O   UNL d   1      54.491   0.676  33.510  0.00  0.00    -0.532 OA
ENDBRANCH   1  15
TORSDOF 3
ENDMDL
MODEL 3
REMARK VINA RESULT:      -2.0      4.061      5.767
REMARK  3 active torsions:
REMARK  status: ('A' for Active; 'I' for Inactive)
REMARK    1  A    between atoms: S_4  and  C_1 
REMARK    2  A    between atoms: N_2  and  C_5 
REMARK    3  A    between atoms: C_9  and  S_4 
ROOT
ATOM      1  C   UNL d   1      58.074  -0.330  29.943  0.00  0.00     0.133 A 
ATOM      2  C   UNL d   1      58.617  -0.755  29.447  0.00  0.00     0.051 A 
ATOM      3  C   UNL d   1      57.800   0.409  29.640  0.00  0.00     0.024 A 
ATOM      4  C   UNL d   1      58.847  -0.452  28.728  0.00  0.00     0.008 A 
ATOM      5  C   UNL d   1      58.046   0.682  28.921  0.00  0.00     0.002 A 
ATOM      6  C   UNL d   1      58.561   0.275  28.455  0.00  0.00     0.001 A 
ENDROOT
BRANCH   2   7
ATOM      7  S   UNL d   1      58.931  -1.492  29.681  0.00  0.00    -0.082 SA
BRANCH   7   8
ATOM      8  C   UNL d   1      59.565  -1.807  29.276  0.00  0.00     0.068 A 
ATOM      9  C   UNL d   1      60.363  -1.613  29.241  0.00  0.00     0.110 A 
ATOM     10  N   UNL d   1      60.721  -2.121  28.748  0.00  0.00    -0.147 NA
ATOM     11  C   UNL d   1      60.711  -0.976  29.669  0.00  0.00     0.023 C 
ATOM     12  N   UNL d   1      60.203  -2.639  28.455  0.00  0.00    -0.147 NA
ATOM     13  C   UNL d   1      59.451  -2.454  28.783  0.00  0.00     0.110 A 
ATOM     14  C   UNL d   1      58.733  -2.842  28.644  0.00  0.00     0.023 C 
ENDBRANCH   7   8
ENDBRANCH   2   7
BRANCH   1  15
ATOM     15  N   UNL d   1      57.806  -0.590  30.686  0.00  0.00    -0.113 N 
ATOM     16  O   UNL d   1      58.011  -0.196  31.337  0.00  0.00    -0.532 OA
ATOM     17  O   UNL d   1      57.318  -1.271  30.728  0.00  0.00    -0.532 OA
ENDBRANCH   1  15
TORSDOF 3
ENDMDL
MODEL 4
REMARK VINA RESULT:      -1.5      2.725      3.726
REMARK  3 active torsions:
REMARK  status: ('A' for Active; 'I' for Inactive)
REMARK    1  A    between atoms: S_4  and  C_1 
REMARK    2  A    between atoms: N_2  and  C_5 
REMARK    3  A    between atoms: C_9  and  S_4 
ROOT
ATOM      1  C   UNL d   1      58.463  -0.316  29.202  0.00  0.00     0.133 A 
ATOM      2  C   UNL d   1      58.207  -0.312  30.012  0.00  0.00     0.051 A 
ATOM      3  C   UNL d   1      58.743  -1.056  28.908  0.00  0.00     0.024 A 
ATOM      4  C   UNL d   1      58.237  -0.990  30.460  0.00  0.00     0.008 A 
ATOM      5  C   UNL d   1      58.761  -1.712  29.379  0.00  0.00     0.002 A 
ATOM      6  C   UNL d   1      58.516  -1.703  30.146  0.00  0.00     0.001 A 
ENDROOT
BRANCH   2   7
ATOM      7  S   UNL d   1      57.917   0.383  30.371  0.00  0.00    -0.082 SA
BRANCH   7   8
ATOM      8  C   UNL d   1      57.990   0.481  31.178  0.00  0.00     0.068 A 
ATOM      9  C   UNL d   1      58.634   0.607  31.673  0.00  0.00     0.110 A 
ATOM     10  N   UNL d   1      58.367   0.660  32.419  0.00  0.00    -0.147 NA
ATOM     11  C   UNL d   1      59.430   0.665  31.405  0.00  0.00     0.023 C 
ATOM     12  N   UNL d   1      57.583   0.576  32.442  0.00  0.00    -0.147 NA
ATOM     13  C   UNL d   1      57.320   0.459  31.652  0.00  0.00     0.110 A 
ATOM     14  C   UNL d   1      56.542   0.345  31.393  0.00  0.00     0.023 C 
ENDBRANCH   7   8
ENDBRANCH   2   7
BRANCH   1  15
ATOM     15  N   UNL d   1      58.454   0.346  28.698  0.00  0.00    -0.113 N 
ATOM     16  O   UNL d   1      57.766   0.646  28.457  0.00  0.00    -0.532 OA
ATOM     17  O   UNL d   1      59.183   0.682  28.455  0.00  0.00    -0.532 OA
ENDBRANCH   1  15
TORSDOF 3
ENDMDL
MODEL 5
REMARK VINA RESULT:      -1.3      4.197      5.711
REMARK  3 active torsions:
REMARK  status: ('A' for Active; 'I' for Inactive)
REMARK    1  A    between atoms: S_4  and  C_1 
REMARK    2  A    between atoms: N_2  and  C_5 
REMARK    3  A    between atoms: C_9  and  S_4 
ROOT
ATOM      1  C   UNL d   1      58.605  -0.272  29.558  0.00  0.00     0.133 A 
ATOM      2  C   UNL d   1      58.816  -1.092  29.491  0.00  0.00     0.051 A 
ATOM      3  C   UNL d   1      58.058  -0.082  30.173  0.00  0.00     0.024 A 
ATOM      4  C   UNL d   1      58.501  -1.644  29.998  0.00  0.00     0.008 A 
ATOM      5  C   UNL d   1      57.764  -0.654  30.660  0.00  0.00     0.002 A 
ATOM      6  C   UNL d   1      57.967  -1.430  30.593  0.00  0.00     0.001 A 
ENDROOT
BRANCH   2   7
ATOM      7  S   UNL d   1      59.350  -1.355  28.907  0.00  0.00    -0.082 SA
BRANCH   7   8
ATOM      8  C   UNL d   1      59.616  -2.126  28.921  0.00  0.00     0.068 A 
ATOM      9  C   UNL d   1      59.265  -2.845  28.731  0.00  0.00     0.110 A 
ATOM     10  N   UNL d   1      59.797  -3.421  28.854  0.00  0.00    -0.147 NA
ATOM     11  C   UNL d   1      58.473  -2.924  28.456  0.00  0.00     0.023 C 
ATOM     12  N   UNL d   1      60.479  -3.121  29.114  0.00  0.00    -0.147 NA
ATOM     13  C   UNL d   1      60.384  -2.287  29.164  0.00  0.00     0.110 A 
ATOM     14  C   UNL d   1      60.945  -1.731  29.408  0.00  0.00     0.023 C 
ENDBRANCH   7   8
ENDBRANCH   2   7
BRANCH   1  15
ATOM     15  N   UNL d   1      58.895   0.335  29.068  0.00  0.00    -0.113 N 
ATOM     16  O   UNL d   1      59.620   0.621  29.187  0.00  0.00    -0.532 OA
ATOM     17  O   UNL d   1      58.407   0.632  28.455  0.00  0.00    -0.532 OA
ENDBRANCH   1  15
TORSDOF 3
ENDMDL
MODEL 6
REMARK VINA RESULT:      -1.3      1.568      3.154
REMARK  3 active torsions:
REMARK  status: ('A' for Active; 'I' for Inactive)
REMARK    1  A    between atoms: S_4  and  C_1 
REMARK    2  A    between atoms: N_2  and  C_5 
REMARK    3  A    between atoms: C_9  and  S_4 
ROOT
ATOM      1  C   UNL d   1      55.259   0.474  34.301  0.00  0.00     0.133 A 
ATOM      2  C   UNL d   1      55.845   0.288  33.716  0.00  0.00     0.051 A 
ATOM      3  C   UNL d   1      55.554   0.673  35.067  0.00  0.00     0.024 A 
ATOM      4  C   UNL d   1      56.637   0.306  33.901  0.00  0.00     0.008 A 
ATOM      5  C   UNL d   1      56.347   0.681  35.219  0.00  0.00     0.002 A 
ATOM      6  C   UNL d   1      56.898   0.504  34.661  0.00  0.00     0.001 A 
ENDROOT
BRANCH   2   7
ATOM      7  S   UNL d   1      55.629   0.082  32.937  0.00  0.00    -0.082 SA
BRANCH   7   8
ATOM      8  C   UNL d   1      56.106  -0.418  32.504  0.00  0.00     0.068 A 
ATOM      9  C   UNL d   1      56.238  -1.230  32.528  0.00  0.00     0.110 A 
ATOM     10  N   UNL d   1      56.769  -1.411  31.967  0.00  0.00    -0.147 NA
ATOM     11  C   UNL d   1      55.858  -1.752  33.068  0.00  0.00     0.023 C 
ATOM     12  N   UNL d   1      56.994  -0.764  31.575  0.00  0.00    -0.147 NA
ATOM     13  C   UNL d   1      56.578  -0.113  31.906  0.00  0.00     0.110 A 
ATOM     14  C   UNL d   1      56.628   0.682  31.681  0.00  0.00     0.023 C 
ENDBRANCH   7   8
ENDBRANCH   2   7
BRANCH   1  15
ATOM     15  N   UNL d   1      54.437   0.472  34.169  0.00  0.00    -0.113 N 
ATOM     16  O   UNL d   1      53.947   0.682  34.749  0.00  0.00    -0.532 OA
ATOM     17  O   UNL d   1      54.147   0.246  33.416  0.00  0.00    -0.532 OA
ENDBRANCH   1  15
TORSDOF 3
ENDMDL
MODEL 7
REMARK VINA RESULT:      -1.2      3.979      5.294
REMARK  3 active torsions:
REMARK  status: ('A' for Active; 'I' for Inactive)
REMARK    1  A    between atoms: S_4  and  C_1 
REMARK    2  A    between atoms: N_2  and  C_5 
REMARK    3  A    between atoms: C_9  and  S_4 
ROOT
ATOM      1  C   UNL d   1      59.875  -2.034  29.209  0.00  0.00     0.133 A 
ATOM      2  C   UNL d   1      59.494  -1.280  29.300  0.00  0.00     0.051 A 
ATOM      3  C   UNL d   1      60.720  -2.019  29.202  0.00  0.00     0.024 A 
ATOM      4  C   UNL d   1      59.931  -0.599  29.374  0.00  0.00     0.008 A 
ATOM      5  C   UNL d   1      61.126  -1.326  29.277  0.00  0.00     0.002 A 
ATOM      6  C   UNL d   1      60.759  -0.615  29.364  0.00  0.00     0.001 A 
ENDROOT
BRANCH   2   7
ATOM      7  S   UNL d   1      58.662  -1.216  29.317  0.00  0.00    -0.082 SA
BRANCH   7   8
ATOM      8  C   UNL d   1      58.316  -0.525  29.575  0.00  0.00     0.068 A 
ATOM      9  C   UNL d   1      58.210   0.215  29.231  0.00  0.00     0.110 A 
ATOM     10  N   UNL d   1      57.830   0.679  29.750  0.00  0.00    -0.147 NA
ATOM     11  C   UNL d   1      58.471   0.414  28.455  0.00  0.00     0.023 C 
ATOM     12  N   UNL d   1      57.681   0.287  30.418  0.00  0.00    -0.147 NA
ATOM     13  C   UNL d   1      57.985  -0.491  30.327  0.00  0.00     0.110 A 
ATOM     14  C   UNL d   1      57.962  -1.108  30.877  0.00  0.00     0.023 C 
ENDBRANCH   7   8
ENDBRANCH   2   7
BRANCH   1  15
ATOM     15  N   UNL d   1      59.479  -2.761  29.129  0.00  0.00    -0.113 N 
ATOM     16  O   UNL d   1      59.108  -2.933  28.456  0.00  0.00    -0.532 OA
ATOM     17  O   UNL d   1      59.483  -3.299  29.772  0.00  0.00    -0.532 OA
ENDBRANCH   1  15
TORSDOF 3
ENDMDL
MODEL 8
REMARK VINA RESULT:      -1.2      2.972      4.600
REMARK  3 active torsions:
REMARK  status: ('A' for Active; 'I' for Inactive)
REMARK    1  A    between atoms: S_4  and  C_1 
REMARK    2  A    between atoms: N_2  and  C_5 
REMARK    3  A    between atoms: C_9  and  S_4 
ROOT
ATOM      1  C   UNL d   1      57.595  -0.356  31.055  0.00  0.00     0.133 A 
ATOM      2  C   UNL d   1      58.167  -0.260  30.435  0.00  0.00     0.051 A 
ATOM      3  C   UNL d   1      57.289  -1.138  31.154  0.00  0.00     0.024 A 
ATOM      4  C   UNL d   1      58.394  -0.892  29.977  0.00  0.00     0.008 A 
ATOM      5  C   UNL d   1      57.535  -1.745  30.683  0.00  0.00     0.002 A 
ATOM      6  C   UNL d   1      58.078  -1.648  30.097  0.00  0.00     0.001 A 
ENDROOT
BRANCH   2   7
ATOM      7  S   UNL d   1      58.513   0.483  30.277  0.00  0.00    -0.082 SA
BRANCH   7   8
ATOM      8  C   UNL d   1      59.036   0.561  29.657  0.00  0.00     0.068 A 
ATOM      9  C   UNL d   1      58.939   0.611  28.842  0.00  0.00     0.110 A 
ATOM     10  N   UNL d   1      59.656   0.682  28.509  0.00  0.00    -0.147 NA
ATOM     11  C   UNL d   1      58.191   0.588  28.455  0.00  0.00     0.023 C 
ATOM     12  N   UNL d   1      60.221   0.681  29.060  0.00  0.00    -0.147 NA
ATOM     13  C   UNL d   1      59.843   0.604  29.807  0.00  0.00     0.110 A 
ATOM     14  C   UNL d   1      60.202   0.576  30.552  0.00  0.00     0.023 C 
ENDBRANCH   7   8
ENDBRANCH   2   7
BRANCH   1  15
ATOM     15  N   UNL d   1      57.326   0.253  31.553  0.00  0.00    -0.113 N 
ATOM     16  O   UNL d   1      56.679   0.660  31.360  0.00  0.00    -0.532 OA
ATOM     17  O   UNL d   1      57.752   0.423  32.255  0.00  0.00    -0.532 OA
ENDBRANCH   1  15
TORSDOF 3
ENDMDL
MODEL 9
REMARK VINA RESULT:      -1.1      8.752      9.627
REMARK  3 active torsions:
REMARK  status: ('A' for Active; 'I' for Inactive)
REMARK    1  A    between atoms: S_4  and  C_1 
REMARK    2  A    between atoms: N_2  and  C_5 
REMARK    3  A    between atoms: C_9  and  S_4 
ROOT
ATOM      1  C   UNL d   1      59.480  -6.961  35.842  0.00  0.00     0.133 A 
ATOM      2  C   UNL d   1      60.019  -7.612  35.763  0.00  0.00     0.051 A 
ATOM      3  C   UNL d   1      59.829  -6.216  36.032  0.00  0.00     0.024 A 
ATOM      4  C   UNL d   1      60.818  -7.505  35.868  0.00  0.00     0.008 A 
ATOM      5  C   UNL d   1      60.627  -6.142  36.130  0.00  0.00     0.002 A 
ATOM      6  C   UNL d   1      61.133  -6.763  36.054  0.00  0.00     0.001 A 
ENDROOT
BRANCH   2   7
ATOM      7  S   UNL d   1      59.747  -8.379  35.577  0.00  0.00    -0.082 SA
BRANCH   7   8
ATOM      8  C   UNL d   1      60.215  -8.875  35.130  0.00  0.00     0.068 A 
ATOM      9  C   UNL d   1      60.293  -8.997  34.320  0.00  0.00     0.110 A 
ATOM     10  N   UNL d   1      60.842  -9.558  34.205  0.00  0.00    -0.147 NA
ATOM     11  C   UNL d   1      59.851  -8.580  33.737  0.00  0.00     0.023 C 
ATOM     12  N   UNL d   1      61.130  -9.813  34.894  0.00  0.00    -0.147 NA
ATOM     13  C   UNL d   1      60.739  -9.386  35.503  0.00  0.00     0.110 A 
ATOM     14  C   UNL d   1      60.852  -9.458  36.320  0.00  0.00     0.023 C 
ENDBRANCH   7   8
ENDBRANCH   2   7
BRANCH   1  15
ATOM     15  N   UNL d   1      58.655  -7.012  35.746  0.00  0.00    -0.113 N 
ATOM     16  O   UNL d   1      58.307  -6.639  35.146  0.00  0.00    -0.532 OA
ATOM     17  O   UNL d   1      58.209  -7.462  36.294  0.00  0.00    -0.532 OA
ENDBRANCH   1  15
TORSDOF 3
ENDMDL
