MODEL 1
REMARK VINA RESULT:      -2.2      0.000      0.000
REMARK  4 active torsions:
REMARK  status: ('A' for Active; 'I' for Inactive)
REMARK    1  A    between atoms: C_12  and  N_1 
REMARK    2  A    between atoms: N_2  and  C_11 
REMARK    3  A    between atoms: C_11  and  C_15 
REMARK    4  A    between atoms: C_15  and  C_12 
ROOT
ATOM      1  N   UNL d   1      33.230  19.757 -23.255  0.00  0.00    -0.303 N 
ATOM      2  C   UNL d   1      33.228  20.391 -23.805  0.00  0.00     0.064 A 
ATOM      3  C   UNL d   1      33.221  21.106 -23.363  0.00  0.00     0.018 A 
ATOM      4  C   UNL d   1      33.219  20.906 -22.556  0.00  0.00     0.018 A 
ATOM      5  C   UNL d   1      33.225  20.082 -22.490  0.00  0.00     0.064 A 
ATOM      6  C   UNL d   1      33.224  19.727 -21.745  0.00  0.00     0.018 A 
ATOM      7  C   UNL d   1      33.213  21.375 -21.877  0.00  0.00     0.002 A 
ATOM      8  C   UNL d   1      33.218  20.196 -21.066  0.00  0.00     0.002 A 
ATOM      9  C   UNL d   1      33.213  21.020 -21.132  0.00  0.00     0.000 A 
ATOM     10  C   UNL d   1      33.231  20.326 -24.629  0.00  0.00     0.019 C 
ATOM     11  C   UNL d   1      33.217  21.864 -23.675  0.00  0.00     0.002 C 
ATOM     12  C   UNL d   1      33.207  21.488 -20.453  0.00  0.00     0.000 C 
ENDROOT
BRANCH   1  13
ATOM     13  C   UNL d   1      33.236  18.954 -23.455  0.00  0.00     0.124 C 
BRANCH  13  14
ATOM     14  C   UNL d   1      32.570  18.620 -23.816  0.00  0.00     0.232 C 
ATOM     15  O   UNL d   1      32.362  18.837 -24.587  0.00  0.00    -0.283 OA
BRANCH  14  16
ATOM     16  C   UNL d   1      32.116  18.071 -23.407  0.00  0.00     0.144 C 
BRANCH  16  17
ATOM     17  N   UNL d   1      32.068  17.288 -23.673  0.00  0.00    -0.225 N 
ATOM     18  N   UNL d   1      32.696  16.832 -23.948  0.00  0.00    -0.165 NA
ATOM     19  C   UNL d   1      32.403  16.085 -24.156  0.00  0.00     0.109 A 
ATOM     20  C   UNL d   1      32.845  15.458 -24.456  0.00  0.00     0.023 C 
ATOM     21  C   UNL d   1      31.588  16.085 -24.005  0.00  0.00     0.072 A 
ATOM     22  C   UNL d   1      31.379  16.823 -23.708  0.00  0.00     0.091 A 
ATOM     23 BR   UNL d   1      31.073  15.453 -24.132  0.00  0.00    -0.046 Br
ATOM     24  C   UNL d   1      30.621  17.063 -23.485  0.00  0.00     0.021 C 
ENDBRANCH  16  17
ENDBRANCH  14  16
ENDBRANCH  13  14
ENDBRANCH   1  13
TORSDOF 4
ENDMDL
MODEL 2
REMARK VINA RESULT:      -2.0      0.769      1.813
REMARK  4 active torsions:
REMARK  status: ('A' for Active; 'I' for Inactive)
REMARK    1  A    between atoms: C_12  and  N_1 
REMARK    2  A    between atoms: N_2  and  C_11 
REMARK    3  A    between atoms: C_11  and  C_15 
REMARK    4  A    between atoms: C_15  and  C_12 
ROOT
ATOM      1  N   UNL d   1      33.231  20.027 -22.885  0.00  0.00    -0.303 N 
ATOM      2  C   UNL d   1      33.220  20.168 -22.058  0.00  0.00     0.064 A 
ATOM      3  C   UNL d   1      33.213  21.001 -21.946  0.00  0.00     0.018 A 
ATOM      4  C   UNL d   1      33.221  21.359 -22.697  0.00  0.00     0.018 A 
ATOM      5  C   UNL d   1      33.232  20.763 -23.271  0.00  0.00     0.064 A 
ATOM      6  C   UNL d   1      33.241  20.961 -24.071  0.00  0.00     0.018 A 
ATOM      7  C   UNL d   1      33.219  22.152 -22.924  0.00  0.00     0.002 A 
ATOM      8  C   UNL d   1      33.239  21.754 -24.299  0.00  0.00     0.002 A 
ATOM      9  C   UNL d   1      33.228  22.350 -23.725  0.00  0.00     0.000 A 
ATOM     10  C   UNL d   1      33.215  19.595 -21.463  0.00  0.00     0.019 C 
ATOM     11  C   UNL d   1      33.202  21.389 -21.224  0.00  0.00     0.002 C 
ATOM     12  C   UNL d   1      33.227  23.143 -23.953  0.00  0.00     0.000 C 
ENDROOT
BRANCH   1  13
ATOM     13  C   UNL d   1      33.240  19.279 -23.240  0.00  0.00     0.124 C 
BRANCH  13  14
ATOM     14  C   UNL d   1      32.559  18.808 -23.213  0.00  0.00     0.232 C 
ATOM     15  O   UNL d   1      32.153  18.706 -22.499  0.00  0.00    -0.283 OA
BRANCH  14  16
ATOM     16  C   UNL d   1      32.288  18.443 -23.897  0.00  0.00     0.144 C 
BRANCH  16  17
ATOM     17  N   UNL d   1      32.209  17.619 -23.927  0.00  0.00    -0.225 N 
ATOM     18  N   UNL d   1      32.684  17.074 -23.531  0.00  0.00    -0.165 NA
ATOM     19  C   UNL d   1      32.412  16.312 -23.716  0.00  0.00     0.109 A 
ATOM     20  C   UNL d   1      32.730  15.605 -23.438  0.00  0.00     0.023 C 
ATOM     21  C   UNL d   1      31.766  16.394 -24.229  0.00  0.00     0.072 A 
ATOM     22  C   UNL d   1      31.639  17.196 -24.360  0.00  0.00     0.091 A 
ATOM     23 BR   UNL d   1      31.326  15.776 -24.553  0.00  0.00    -0.046 Br
ATOM     24  C   UNL d   1      31.051  17.525 -24.837  0.00  0.00     0.021 C 
ENDBRANCH  16  17
ENDBRANCH  14  16
ENDBRANCH  13  14
ENDBRANCH   1  13
TORSDOF 4
ENDMDL
MODEL 3
REMARK VINA RESULT:      -1.5      1.779      4.672
REMARK  4 active torsions:
REMARK  status: ('A' for Active; 'I' for Inactive)
REMARK    1  A    between atoms: C_12  and  N_1 
REMARK    2  A    between atoms: N_2  and  C_11 
REMARK    3  A    between atoms: C_11  and  C_15 
REMARK    4  A    between atoms: C_15  and  C_12 
ROOT
ATOM      1  N   UNL d   1      32.129  17.805 -24.490  0.00  0.00    -0.303 N 
ATOM      2  C   UNL d   1      32.442  17.029 -24.425  0.00  0.00     0.064 A 
ATOM      3  C   UNL d   1      31.794  16.495 -24.444  0.00  0.00     0.018 A 
ATOM      4  C   UNL d   1      31.097  16.941 -24.519  0.00  0.00     0.018 A 
ATOM      5  C   UNL d   1      31.301  17.742 -24.547  0.00  0.00     0.064 A 
ATOM      6  C   UNL d   1      30.714  18.316 -24.622  0.00  0.00     0.018 A 
ATOM      7  C   UNL d   1      30.305  16.715 -24.565  0.00  0.00     0.002 A 
ATOM      8  C   UNL d   1      29.922  18.090 -24.668  0.00  0.00     0.002 A 
ATOM      9  C   UNL d   1      29.717  17.289 -24.640  0.00  0.00     0.000 A 
ATOM     10  C   UNL d   1      33.241  16.828 -24.355  0.00  0.00     0.019 C 
ATOM     11  C   UNL d   1      31.844  15.677 -24.396  0.00  0.00     0.002 C 
ATOM     12  C   UNL d   1      28.925  17.063 -24.686  0.00  0.00     0.000 C 
ENDROOT
BRANCH   1  13
ATOM     13  C   UNL d   1      32.577  18.501 -24.494  0.00  0.00     0.124 C 
BRANCH  13  14
ATOM     14  C   UNL d   1      32.797  18.847 -23.775  0.00  0.00     0.232 C 
ATOM     15  O   UNL d   1      32.790  18.399 -23.079  0.00  0.00    -0.283 OA
BRANCH  14  16
ATOM     16  C   UNL d   1      33.023  19.636 -23.754  0.00  0.00     0.144 C 
BRANCH  16  17
ATOM     17  N   UNL d   1      33.055  20.042 -23.032  0.00  0.00    -0.225 N 
ATOM     18  N   UNL d   1      32.994  19.702 -22.284  0.00  0.00    -0.165 NA
ATOM     19  C   UNL d   1      33.055  20.306 -21.719  0.00  0.00     0.109 A 
ATOM     20  C   UNL d   1      33.023  20.209 -20.902  0.00  0.00     0.023 C 
ATOM     21  C   UNL d   1      33.156  21.021 -22.126  0.00  0.00     0.072 A 
ATOM     22  C   UNL d   1      33.156  20.862 -22.934  0.00  0.00     0.091 A 
ATOM     23 BR   UNL d   1      33.240  21.766 -21.782  0.00  0.00    -0.046 Br
ATOM     24  C   UNL d   1      33.241  21.415 -23.540  0.00  0.00     0.021 C 
ENDBRANCH  16  17
ENDBRANCH  14  16
ENDBRANCH  13  14
ENDBRANCH   1  13
TORSDOF 4
ENDMDL
MODEL 4
REMARK VINA RESULT:      -1.4      2.054      4.608
REMARK  4 active torsions:
REMARK  status: ('A' for Active; 'I' for Inactive)
REMARK    1  A    between atoms: C_12  and  N_1 
REMARK    2  A    between atoms: N_2  and  C_11 
REMARK    3  A    between atoms: C_11  and  C_15 
REMARK    4  A    between atoms: C_15  and  C_12 
ROOT
ATOM      1  N   UNL d   1      32.781  18.697 -23.745  0.00  0.00    -0.303 N 
ATOM      2  C   UNL d   1      32.253  18.765 -24.393  0.00  0.00     0.064 A 
ATOM      3  C   UNL d   1      31.910  18.009 -24.518  0.00  0.00     0.018 A 
ATOM      4  C   UNL d   1      32.227  17.488 -23.952  0.00  0.00     0.018 A 
ATOM      5  C   UNL d   1      32.759  17.909 -23.479  0.00  0.00     0.064 A 
ATOM      6  C   UNL d   1      33.159  17.527 -22.867  0.00  0.00     0.018 A 
ATOM      7  C   UNL d   1      32.094  16.686 -23.811  0.00  0.00     0.002 A 
ATOM      8  C   UNL d   1      33.026  16.725 -22.727  0.00  0.00     0.002 A 
ATOM      9  C   UNL d   1      32.494  16.304 -23.199  0.00  0.00     0.000 A 
ATOM     10  C   UNL d   1      32.099  19.451 -24.829  0.00  0.00     0.019 C 
ATOM     11  C   UNL d   1      31.360  17.820 -25.097  0.00  0.00     0.002 C 
ATOM     12  C   UNL d   1      32.361  15.503 -23.059  0.00  0.00     0.000 C 
ENDROOT
BRANCH   1  13
ATOM     13  C   UNL d   1      33.238  19.314 -23.435  0.00  0.00     0.124 C 
BRANCH  13  14
ATOM     14  C   UNL d   1      32.881  19.874 -22.941  0.00  0.00     0.232 C 
ATOM     15  O   UNL d   1      32.191  19.684 -22.526  0.00  0.00    -0.283 OA
BRANCH  14  16
ATOM     16  C   UNL d   1      33.214  20.621 -22.864  0.00  0.00     0.144 C 
BRANCH  16  17
ATOM     17  N   UNL d   1      33.010  21.105 -22.223  0.00  0.00    -0.225 N 
ATOM     18  N   UNL d   1      32.784  20.845 -21.474  0.00  0.00    -0.165 NA
ATOM     19  C   UNL d   1      32.630  21.511 -21.005  0.00  0.00     0.109 A 
ATOM     20  C   UNL d   1      32.389  21.502 -20.217  0.00  0.00     0.023 C 
ATOM     21  C   UNL d   1      32.763  22.183 -21.471  0.00  0.00     0.072 A 
ATOM     22  C   UNL d   1      32.997  21.937 -22.221  0.00  0.00     0.091 A 
ATOM     23 BR   UNL d   1      32.676  22.966 -21.227  0.00  0.00    -0.046 Br
ATOM     24  C   UNL d   1      33.185  22.426 -22.859  0.00  0.00     0.021 C 
ENDBRANCH  16  17
ENDBRANCH  14  16
ENDBRANCH  13  14
ENDBRANCH   1  13
TORSDOF 4
ENDMDL
