MODEL 1
REMARK VINA RESULT:      63.2      0.000      0.000
REMARK  3 active torsions:
REMARK  status: ('A' for Active; 'I' for Inactive)
REMARK       I    between atoms: N_3  and  C_1 
REMARK    1  A    between atoms: C_6  and  C_1 
REMARK    2  A    between atoms: N_2  and  C_4 
REMARK    3  A    between atoms: C_9  and  N_3 
ROOT
ATOM      1  C   UNL d   1      58.221  49.671  50.550  0.00  0.00     0.064 A 
ATOM      2  C   UNL d   1      58.922  49.685  50.105  0.00  0.00     0.019 A 
ATOM      3  C   UNL d   1      58.247  49.665  51.381  0.00  0.00     0.019 A 
ATOM      4  C   UNL d   1      59.668  49.687  51.337  0.00  0.00     0.085 A 
ATOM      5  C   UNL d   1      59.642  49.693  50.506  0.00  0.00     0.021 A 
ATOM      6  C   UNL d   1      58.974  49.673  51.773  0.00  0.00     0.021 A 
ENDROOT
BRANCH   4   7
ATOM      7  N   UNL d   1      60.405  49.695  51.728  0.00  0.00    -0.208 NA
ATOM      8  C   UNL d   1      60.708  49.001  52.057  0.00  0.00     0.279 C 
ATOM      9  O   UNL d   1      60.279  48.290  51.998  0.00  0.00    -0.265 OA
BRANCH   8  10
ATOM     10  C   UNL d   1      61.441  49.012  52.446  0.00  0.00     0.058 A 
ATOM     11  C   UNL d   1      61.984  49.618  52.272  0.00  0.00     0.005 A 
ATOM     12  C   UNL d   1      62.710  49.625  52.659  0.00  0.00     0.000 A 
ATOM     13  C   UNL d   1      62.895  49.031  53.219  0.00  0.00     0.000 A 
ATOM     14  C   UNL d   1      62.350  48.442  53.378  0.00  0.00     0.000 A 
ATOM     15  C   UNL d   1      61.623  48.426  52.996  0.00  0.00     0.005 A 
ENDBRANCH   8  10
ENDBRANCH   4   7
BRANCH   1  16
ATOM     16  N   UNL d   1      57.485  49.663  50.149  0.00  0.00    -0.304 N 
ATOM     17  C   UNL d   1      56.789  49.625  50.579  0.00  0.00     0.080 A 
ATOM     18  C   UNL d   1      56.053  49.617  50.179  0.00  0.00     0.019 A 
ATOM     19  C   UNL d   1      56.049  49.647  49.356  0.00  0.00     0.003 A 
ATOM     20  C   UNL d   1      56.750  49.684  48.933  0.00  0.00     0.019 A 
ATOM     21  C   UNL d   1      57.469  49.692  49.324  0.00  0.00     0.080 A 
ENDBRANCH   1  16
TORSDOF 3
ENDMDL
