MODEL 1
REMARK VINA RESULT:      -2.4      0.000      0.000
REMARK  3 active torsions:
REMARK  status: ('A' for Active; 'I' for Inactive)
REMARK    1  A    between atoms: C_8  and  C_6 
REMARK    2  A    between atoms: C_9  and  C_8 
REMARK       I    between atoms: N_10  and  C_9 
REMARK    3  A    between atoms: C_13  and  N_10 
ROOT
ATOM      1  N   UNL d   1     -43.346-122.172 -50.499  0.00  0.00    -0.207 NA
ATOM      2  N   UNL d   1     -41.841-122.791 -50.907  0.00  0.00    -0.240 NA
ATOM      3  C   UNL d   1     -42.902-122.140 -51.186  0.00  0.00     0.297 A 
ATOM      4  C   UNL d   1     -43.162-122.538 -49.779  0.00  0.00     0.086 A 
ATOM      5  C   UNL d   1     -41.883-123.060 -50.139  0.00  0.00     0.083 A 
ATOM      6  C   UNL d   1     -42.398-122.351 -51.315  0.00  0.00     0.144 A 
ATOM      7  C   UNL d   1     -42.479-122.965 -49.578  0.00  0.00     0.035 A 
ATOM      8  O   UNL d   1     -43.260-121.726 -51.797  0.00  0.00    -0.264 OA
ATOM      9  C   UNL d   1     -42.410-123.285 -48.826  0.00  0.00     0.003 A 
ATOM     10  C   UNL d   1     -43.766-122.439 -49.221  0.00  0.00     0.019 A 
ATOM     11  C   UNL d   1     -41.201-123.485 -49.940  0.00  0.00     0.019 A 
ATOM     12  C   UNL d   1     -41.122-123.813 -49.179  0.00  0.00     0.002 A 
ATOM     13  C   UNL d   1     -43.685-122.765 -48.467  0.00  0.00     0.002 A 
ATOM     14  C   UNL d   1     -41.727-123.712 -48.623  0.00  0.00     0.000 A 
ATOM     15  C   UNL d   1     -43.014-123.184 -48.270  0.00  0.00     0.000 A 
ENDROOT
BRANCH   6  16
ATOM     16  C   UNL d   1     -42.172-122.175 -52.089  0.00  0.00     0.086 C 
BRANCH  16  17
ATOM     17  C   UNL d   1     -41.506-121.696 -52.220  0.00  0.00     0.281 C 
ATOM     18  N   UNL d   1     -41.125-121.716 -52.947  0.00  0.00    -0.208 NA
ATOM     19  O   UNL d   1     -41.223-121.199 -51.625  0.00  0.00    -0.265 OA
BRANCH  18  20
ATOM     20  C   UNL d   1     -41.400-122.209 -53.546  0.00  0.00     0.085 A 
ATOM     21  C   UNL d   1     -41.896-121.912 -54.135  0.00  0.00     0.019 A 
ATOM     22  C   UNL d   1     -42.167-122.405 -54.728  0.00  0.00     0.002 A 
ATOM     23  C   UNL d   1     -42.657-122.109 -55.310  0.00  0.00     0.000 C 
ATOM     24  C   UNL d   1     -41.948-123.198 -54.743  0.00  0.00     0.000 A 
ATOM     25  C   UNL d   1     -41.450-123.498 -54.151  0.00  0.00     0.002 A 
ATOM     26  C   UNL d   1     -41.178-122.998 -53.554  0.00  0.00     0.019 A 
ENDBRANCH  18  20
ENDBRANCH  16  17
ENDBRANCH   6  16
TORSDOF 3
ENDMDL
MODEL 2
REMARK VINA RESULT:      -1.8      0.973      4.657
REMARK  3 active torsions:
REMARK  status: ('A' for Active; 'I' for Inactive)
REMARK    1  A    between atoms: C_8  and  C_6 
REMARK    2  A    between atoms: C_9  and  C_8 
REMARK       I    between atoms: N_10  and  C_9 
REMARK    3  A    between atoms: C_13  and  N_10 
ROOT
ATOM      1  N   UNL d   1     -41.436-123.635 -53.422  0.00  0.00    -0.207 NA
ATOM      2  N   UNL d   1     -41.901-122.135 -52.834  0.00  0.00    -0.240 NA
ATOM      3  C   UNL d   1     -41.429-123.308 -52.672  0.00  0.00     0.297 A 
ATOM      4  C   UNL d   1     -41.688-123.294 -54.134  0.00  0.00     0.086 A 
ATOM      5  C   UNL d   1     -42.081-122.022 -53.621  0.00  0.00     0.083 A 
ATOM      6  C   UNL d   1     -41.587-122.804 -52.483  0.00  0.00     0.144 A 
ATOM      7  C   UNL d   1     -41.998-122.534 -54.260  0.00  0.00     0.035 A 
ATOM      8  O   UNL d   1     -41.139-123.809 -52.090  0.00  0.00    -0.264 OA
ATOM      9  C   UNL d   1     -42.215-122.308 -55.018  0.00  0.00     0.003 A 
ATOM     10  C   UNL d   1     -41.602-123.816 -54.772  0.00  0.00     0.019 A 
ATOM     11  C   UNL d   1     -42.389-121.263 -53.745  0.00  0.00     0.019 A 
ATOM     12  C   UNL d   1     -42.613-121.025 -54.511  0.00  0.00     0.002 A 
ATOM     13  C   UNL d   1     -41.824-123.576 -55.530  0.00  0.00     0.002 A 
ATOM     14  C   UNL d   1     -42.525-121.548 -55.146  0.00  0.00     0.000 A 
ATOM     15  C   UNL d   1     -42.128-122.830 -55.653  0.00  0.00     0.000 A 
ENDROOT
BRANCH   6  16
ATOM     16  C   UNL d   1     -41.476-122.724 -51.669  0.00  0.00     0.086 C 
BRANCH  16  17
ATOM     17  C   UNL d   1     -41.363-121.967 -51.345  0.00  0.00     0.281 C 
ATOM     18  N   UNL d   1     -41.491-121.842 -50.544  0.00  0.00    -0.208 NA
ATOM     19  O   UNL d   1     -41.123-121.338 -51.823  0.00  0.00    -0.265 OA
BRANCH  18  20
ATOM     20  C   UNL d   1     -41.730-122.463 -50.060  0.00  0.00     0.085 A 
ATOM     21  C   UNL d   1     -42.530-122.574 -49.890  0.00  0.00     0.019 A 
ATOM     22  C   UNL d   1     -42.763-123.193 -49.409  0.00  0.00     0.002 A 
ATOM     23  C   UNL d   1     -43.555-123.300 -49.242  0.00  0.00     0.000 C 
ATOM     24  C   UNL d   1     -42.205-123.707 -49.092  0.00  0.00     0.000 A 
ATOM     25  C   UNL d   1     -41.401-123.597 -49.262  0.00  0.00     0.002 A 
ATOM     26  C   UNL d   1     -41.168-122.972 -49.748  0.00  0.00     0.019 A 
ENDBRANCH  18  20
ENDBRANCH  16  17
ENDBRANCH   6  16
TORSDOF 3
ENDMDL
