MODEL 1
REMARK VINA RESULT:      24.8      0.000      0.000
REMARK  7 active torsions:
REMARK  status: ('A' for Active; 'I' for Inactive)
REMARK    1  A    between atoms: C_2  and  C_8 
REMARK    2  A    between atoms: O_17  and  C_2 
REMARK    3  A    between atoms: C_15  and  C_3 
REMARK    4  A    between atoms: C_5  and  C_16 
REMARK       I    between atoms: N_9  and  C_5 
REMARK    5  A    between atoms: C_14  and  N_9 
REMARK    6  A    between atoms: C_16  and  C_15 
REMARK    7  A    between atoms: C_21  and  O_17 
ROOT
ATOM      1  C   UNL d   1      13.481  12.752  -3.302  0.00  0.00     0.064 A 
ATOM      2  C   UNL d   1      14.185  13.081  -2.999  0.00  0.00     0.007 A 
ATOM      3  C   UNL d   1      13.143  12.096  -2.920  0.00  0.00     0.007 A 
ATOM      4  C   UNL d   1      14.192  12.106  -1.962  0.00  0.00     0.085 A 
ATOM      5  C   UNL d   1      14.533  12.755  -2.332  0.00  0.00     0.019 A 
ATOM      6  C   UNL d   1      13.504  11.782  -2.254  0.00  0.00     0.019 A 
ENDROOT
BRANCH   4   7
ATOM      7  N   UNL d   1      14.549  11.779  -1.286  0.00  0.00    -0.208 NA
ATOM      8  C   UNL d   1      14.823  12.275  -0.688  0.00  0.00     0.279 C 
ATOM      9  O   UNL d   1      15.177  11.958  -0.019  0.00  0.00    -0.265 OA
BRANCH   8  10
ATOM     10  C   UNL d   1      14.745  13.095  -0.756  0.00  0.00     0.065 C 
BRANCH  10  11
ATOM     11  C   UNL d   1      14.997  13.585  -0.149  0.00  0.00     0.030 C 
BRANCH  11  12
ATOM     12  C   UNL d   1      14.982  14.406  -0.242  0.00  0.00     0.100 A 
ATOM     13  O   UNL d   1      15.623  14.927  -0.185  0.00  0.00    -0.307 OA
ATOM     14  C   UNL d   1      15.355  15.687  -0.318  0.00  0.00     0.100 A 
ATOM     15  C   UNL d   1      14.539  15.648  -0.459  0.00  0.00     0.027 A 
ATOM     16  C   UNL d   1      15.809  16.369  -0.312  0.00  0.00     0.027 C 
ATOM     17  C   UNL d   1      14.309  14.857  -0.413  0.00  0.00     0.027 A 
ENDBRANCH  11  12
ENDBRANCH  10  11
ENDBRANCH   8  10
ENDBRANCH   4   7
BRANCH   1  18
ATOM     18  C   UNL d   1      13.131  13.075  -3.968  0.00  0.00     0.300 C 
ATOM     19  O   UNL d   1      13.010  12.599  -4.643  0.00  0.00    -0.259 OA
BRANCH  18  20
ATOM     20  O   UNL d   1      12.895  13.871  -3.980  0.00  0.00    -0.271 OA
BRANCH  20  21
ATOM     21  C   UNL d   1      13.192  14.371  -4.575  0.00  0.00     0.126 C 
ATOM     22  C   UNL d   1      13.374  15.158  -4.385  0.00  0.00     0.029 C 
ENDBRANCH  20  21
ENDBRANCH  18  20
ENDBRANCH   1  18
TORSDOF 7
ENDMDL
MODEL 2
REMARK VINA RESULT:      26.9      1.745      3.650
REMARK  7 active torsions:
REMARK  status: ('A' for Active; 'I' for Inactive)
REMARK    1  A    between atoms: C_2  and  C_8 
REMARK    2  A    between atoms: O_17  and  C_2 
REMARK    3  A    between atoms: C_15  and  C_3 
REMARK    4  A    between atoms: C_5  and  C_16 
REMARK       I    between atoms: N_9  and  C_5 
REMARK    5  A    between atoms: C_14  and  N_9 
REMARK    6  A    between atoms: C_16  and  C_15 
REMARK    7  A    between atoms: C_21  and  O_17 
ROOT
ATOM      1  C   UNL d   1      13.931  15.285  -3.743  0.00  0.00     0.064 A 
ATOM      2  C   UNL d   1      14.457  14.700  -4.018  0.00  0.00     0.007 A 
ATOM      3  C   UNL d   1      13.113  15.150  -3.791  0.00  0.00     0.007 A 
ATOM      4  C   UNL d   1      13.350  13.877  -4.375  0.00  0.00     0.085 A 
ATOM      5  C   UNL d   1      14.161  14.002  -4.332  0.00  0.00     0.019 A 
ATOM      6  C   UNL d   1      12.834  14.447  -4.107  0.00  0.00     0.019 A 
ENDROOT
BRANCH   4   7
ATOM      7  N   UNL d   1      13.057  13.167  -4.694  0.00  0.00    -0.208 NA
ATOM      8  C   UNL d   1      13.057  12.483  -4.236  0.00  0.00     0.279 C 
ATOM      9  O   UNL d   1      12.769  11.779  -4.546  0.00  0.00    -0.265 OA
BRANCH   8  10
ATOM     10  C   UNL d   1      13.347  12.496  -3.463  0.00  0.00     0.065 C 
BRANCH  10  11
ATOM     11  C   UNL d   1      13.516  11.795  -3.073  0.00  0.00     0.030 C 
BRANCH  11  12
ATOM     12  C   UNL d   1      13.776  11.807  -2.289  0.00  0.00     0.100 A 
ATOM     13  O   UNL d   1      13.307  11.780  -1.607  0.00  0.00    -0.307 OA
ATOM     14  C   UNL d   1      13.794  11.804  -0.952  0.00  0.00     0.100 A 
ATOM     15  C   UNL d   1      14.578  11.847  -1.220  0.00  0.00     0.027 A 
ATOM     16  C   UNL d   1      13.555  11.789  -0.169  0.00  0.00     0.027 C 
ATOM     17  C   UNL d   1      14.567  11.849  -2.045  0.00  0.00     0.027 A 
ENDBRANCH  11  12
ENDBRANCH  10  11
ENDBRANCH   8  10
ENDBRANCH   4   7
BRANCH   1  18
ATOM     18  C   UNL d   1      14.222  15.983  -3.429  0.00  0.00     0.300 C 
ATOM     19  O   UNL d   1      14.020  16.712  -3.784  0.00  0.00    -0.259 OA
BRANCH  18  20
ATOM     20  O   UNL d   1      14.716  15.976  -2.763  0.00  0.00    -0.271 OA
BRANCH  20  21
ATOM     21  C   UNL d   1      14.763  16.659  -2.289  0.00  0.00     0.126 C 
ATOM     22  C   UNL d   1      15.273  16.659  -1.634  0.00  0.00     0.029 C 
ENDBRANCH  20  21
ENDBRANCH  18  20
ENDBRANCH   1  18
TORSDOF 7
ENDMDL
