MODEL 1
REMARK VINA RESULT:       2.0      0.000      0.000
REMARK  4 active torsions:
REMARK  status: ('A' for Active; 'I' for Inactive)
REMARK    1  A    between atoms: S_3  and  N_1 
REMARK    2  A    between atoms: C_9  and  S_3 
REMARK    3  A    between atoms: C_10  and  N_5 
REMARK    4  A    between atoms: C_15  and  C_10 
ROOT
ATOM      1  N   UNL d   1      58.031  -1.549  29.948  0.00  0.00    -0.195 N 
ATOM      2  C   UNL d   1      58.686  -1.053  29.964  0.00  0.00     0.193 A 
ATOM      3  C   UNL d   1      58.642  -0.581  30.632  0.00  0.00     0.185 A 
ATOM      4  N   UNL d   1      57.954  -0.778  31.044  0.00  0.00    -0.269 N 
ATOM      5  C   UNL d   1      57.579  -1.380  30.614  0.00  0.00     0.179 A 
ATOM      6  N   UNL d   1      59.324  -0.969  29.451  0.00  0.00    -0.223 NA
ATOM      7  N   UNL d   1      59.230  -0.023  30.794  0.00  0.00    -0.224 NA
ATOM      8  C   UNL d   1      59.908  -0.422  29.604  0.00  0.00     0.101 A 
ATOM      9  C   UNL d   1      59.867   0.057  30.278  0.00  0.00     0.101 A 
ATOM     10  C   UNL d   1      60.457   0.607  30.428  0.00  0.00     0.021 A 
ATOM     11  C   UNL d   1      60.544  -0.340  29.091  0.00  0.00     0.021 A 
ATOM     12  C   UNL d   1      61.091   0.680  29.906  0.00  0.00     0.002 A 
ATOM     13  C   UNL d   1      61.133   0.209  29.241  0.00  0.00     0.002 A 
ENDROOT
BRANCH   1  14
ATOM     14  S   UNL d   1      58.114  -2.048  29.208  0.00  0.00     0.274 S 
ATOM     15  O   UNL d   1      57.802  -1.702  28.455  0.00  0.00    -0.200 OA
ATOM     16  O   UNL d   1      57.737  -1.342  28.966  0.00  0.00    -0.200 OA
BRANCH  14  17
ATOM     17  C   UNL d   1      58.432  -2.795  29.062  0.00  0.00     0.104 A 
ATOM     18  C   UNL d   1      59.205  -2.966  29.293  0.00  0.00     0.015 A 
ATOM     19  C   UNL d   1      59.527  -3.719  29.146  0.00  0.00     0.030 A 
ATOM     20  C   UNL d   1      59.070  -4.291  28.770  0.00  0.00     0.140 A 
ATOM     21  C   UNL d   1      58.286  -4.117  28.536  0.00  0.00     0.030 A 
ATOM     22  F   UNL d   1      59.446  -5.021  28.652  0.00  0.00    -0.204 F 
ATOM     23  C   UNL d   1      57.974  -3.372  28.683  0.00  0.00     0.015 A 
ENDBRANCH  14  17
ENDBRANCH   1  14
BRANCH   4  24
ATOM     24  C   UNL d   1      57.690  -0.439  31.749  0.00  0.00     0.108 C 
BRANCH  24  25
ATOM     25  C   UNL d   1      56.968  -0.679  32.082  0.00  0.00     0.118 A 
ATOM     26  O   UNL d   1      56.701  -1.460  32.150  0.00  0.00    -0.304 OA
ATOM     27  C   UNL d   1      55.947  -1.450  32.519  0.00  0.00     0.123 A 
ATOM     28  C   UNL d   1      55.756  -0.657  32.674  0.00  0.00     0.029 A 
ATOM     29  C   UNL d   1      56.388  -0.185  32.404  0.00  0.00     0.028 A 
ENDBRANCH  24  25
ENDBRANCH   4  24
TORSDOF 4
ENDMDL
