MODEL 1
REMARK VINA RESULT:      -8.3      0.000      0.000
REMARK  0 active torsions:
REMARK  status: ('A' for Active; 'I' for Inactive)
ROOT
ATOM      1  N   UNL d   1      52.617  34.956  53.815  0.00  0.00    -0.152 NA
ATOM      2  C   UNL d   1      52.743  34.165  53.640  0.00  0.00     0.284 A 
ATOM      3  C   UNL d   1      53.031  35.312  54.447  0.00  0.00     0.371 A 
ATOM      4  C   UNL d   1      53.278  33.719  54.085  0.00  0.00     0.076 A 
ATOM      5  N   UNL d   1      53.566  34.866  54.892  0.00  0.00    -0.191 NA
ATOM      6  C   UNL d   1      53.690  34.066  54.710  0.00  0.00     0.091 A 
ATOM      7  O   UNL d   1      52.333  33.813  53.015  0.00  0.00    -0.265 OA
ATOM      8  O   UNL d   1      52.906  36.108  54.625  0.00  0.00    -0.242 OA
ATOM      9  C   UNL d   1      53.399  32.924  53.902  0.00  0.00     0.006 A 
ATOM     10  C   UNL d   1      54.223  33.619  55.153  0.00  0.00     0.019 A 
ATOM     11  C   UNL d   1      53.932  32.477  54.345  0.00  0.00     0.000 A 
ATOM     12  C   UNL d   1      54.344  32.824  54.970  0.00  0.00     0.002 A 
ENDROOT
TORSDOF 0
ENDMDL
MODEL 2
REMARK VINA RESULT:      -8.3      1.587      2.450
REMARK  0 active torsions:
REMARK  status: ('A' for Active; 'I' for Inactive)
ROOT
ATOM      1  N   UNL d   1      52.523  32.502  52.756  0.00  0.00    -0.152 NA
ATOM      2  C   UNL d   1      52.676  33.185  53.184  0.00  0.00     0.284 A 
ATOM      3  C   UNL d   1      52.908  31.790  52.959  0.00  0.00     0.371 A 
ATOM      4  C   UNL d   1      53.210  33.169  53.815  0.00  0.00     0.076 A 
ATOM      5  N   UNL d   1      53.441  31.775  53.591  0.00  0.00    -0.191 NA
ATOM      6  C   UNL d   1      53.592  32.468  54.020  0.00  0.00     0.091 A 
ATOM      7  O   UNL d   1      52.296  33.889  52.982  0.00  0.00    -0.265 OA
ATOM      8  O   UNL d   1      52.755  31.101  52.530  0.00  0.00    -0.242 OA
ATOM      9  C   UNL d   1      53.358  33.860  54.241  0.00  0.00     0.006 A 
ATOM     10  C   UNL d   1      54.124  32.456  54.651  0.00  0.00     0.019 A 
ATOM     11  C   UNL d   1      53.890  33.848  54.872  0.00  0.00     0.000 A 
ATOM     12  C   UNL d   1      54.272  33.147  55.077  0.00  0.00     0.002 A 
ENDROOT
TORSDOF 0
ENDMDL
MODEL 3
REMARK VINA RESULT:      -8.2      1.205      1.746
REMARK  0 active torsions:
REMARK  status: ('A' for Active; 'I' for Inactive)
ROOT
ATOM      1  N   UNL d   1      53.989  34.393  55.072  0.00  0.00    -0.152 NA
ATOM      2  C   UNL d   1      54.249  33.629  54.924  0.00  0.00     0.284 A 
ATOM      3  C   UNL d   1      53.333  34.696  54.653  0.00  0.00     0.371 A 
ATOM      4  C   UNL d   1      53.864  33.159  54.362  0.00  0.00     0.076 A 
ATOM      5  N   UNL d   1      52.949  34.226  54.092  0.00  0.00    -0.191 NA
ATOM      6  C   UNL d   1      53.216  33.455  53.947  0.00  0.00     0.091 A 
ATOM      7  O   UNL d   1      54.897  33.329  55.338  0.00  0.00    -0.265 OA
ATOM      8  O   UNL d   1      53.070  35.465  54.800  0.00  0.00    -0.242 OA
ATOM      9  C   UNL d   1      54.131  32.392  54.220  0.00  0.00     0.006 A 
ATOM     10  C   UNL d   1      52.834  32.984  53.387  0.00  0.00     0.019 A 
ATOM     11  C   UNL d   1      53.750  31.921  53.660  0.00  0.00     0.000 A 
ATOM     12  C   UNL d   1      53.101  32.217  53.245  0.00  0.00     0.002 A 
ENDROOT
TORSDOF 0
ENDMDL
MODEL 4
REMARK VINA RESULT:      -7.9      1.455      2.155
REMARK  0 active torsions:
REMARK  status: ('A' for Active; 'I' for Inactive)
ROOT
ATOM      1  N   UNL d   1      54.468  32.941  54.847  0.00  0.00    -0.152 NA
ATOM      2  C   UNL d   1      53.836  32.757  54.358  0.00  0.00     0.284 A 
ATOM      3  C   UNL d   1      54.609  33.736  55.061  0.00  0.00     0.371 A 
ATOM      4  C   UNL d   1      53.338  33.355  54.077  0.00  0.00     0.076 A 
ATOM      5  N   UNL d   1      54.111  34.333  54.781  0.00  0.00    -0.191 NA
ATOM      6  C   UNL d   1      53.474  34.141  54.287  0.00  0.00     0.091 A 
ATOM      7  O   UNL d   1      53.696  31.971  54.146  0.00  0.00    -0.265 OA
ATOM      8  O   UNL d   1      55.245  33.923  55.553  0.00  0.00    -0.242 OA
ATOM      9  C   UNL d   1      52.704  33.162  53.586  0.00  0.00     0.006 A 
ATOM     10  C   UNL d   1      52.976  34.736  54.005  0.00  0.00     0.019 A 
ATOM     11  C   UNL d   1      52.206  33.756  53.305  0.00  0.00     0.000 A 
ATOM     12  C   UNL d   1      52.342  34.542  53.514  0.00  0.00     0.002 A 
ENDROOT
TORSDOF 0
ENDMDL
MODEL 5
REMARK VINA RESULT:      -7.7      1.981      2.836
REMARK  0 active torsions:
REMARK  status: ('A' for Active; 'I' for Inactive)
ROOT
ATOM      1  N   UNL d   1      53.285  33.145  53.388  0.00  0.00    -0.152 NA
ATOM      2  C   UNL d   1      53.699  32.499  53.677  0.00  0.00     0.284 A 
ATOM      3  C   UNL d   1      52.610  33.025  52.911  0.00  0.00     0.371 A 
ATOM      4  C   UNL d   1      53.451  31.731  53.499  0.00  0.00     0.076 A 
ATOM      5  N   UNL d   1      52.361  32.257  52.733  0.00  0.00    -0.191 NA
ATOM      6  C   UNL d   1      52.785  31.607  53.029  0.00  0.00     0.091 A 
ATOM      7  O   UNL d   1      54.367  32.618  54.148  0.00  0.00    -0.265 OA
ATOM      8  O   UNL d   1      52.191  33.674  52.619  0.00  0.00    -0.242 OA
ATOM      9  C   UNL d   1      53.874  31.087  53.793  0.00  0.00     0.006 A 
ATOM     10  C   UNL d   1      52.540  30.840  52.853  0.00  0.00     0.019 A 
ATOM     11  C   UNL d   1      53.629  30.319  53.618  0.00  0.00     0.000 A 
ATOM     12  C   UNL d   1      52.962  30.195  53.147  0.00  0.00     0.002 A 
ENDROOT
TORSDOF 0
ENDMDL
MODEL 6
REMARK VINA RESULT:      -7.4      2.475      3.222
REMARK  0 active torsions:
REMARK  status: ('A' for Active; 'I' for Inactive)
ROOT
ATOM      1  N   UNL d   1      52.734  30.832  53.031  0.00  0.00    -0.152 NA
ATOM      2  C   UNL d   1      52.869  31.623  52.860  0.00  0.00     0.284 A 
ATOM      3  C   UNL d   1      53.106  30.481  53.691  0.00  0.00     0.371 A 
ATOM      4  C   UNL d   1      53.370  32.073  53.339  0.00  0.00     0.076 A 
ATOM      5  N   UNL d   1      53.608  30.932  54.170  0.00  0.00    -0.191 NA
ATOM      6  C   UNL d   1      53.740  31.731  53.992  0.00  0.00     0.091 A 
ATOM      7  O   UNL d   1      52.501  31.970  52.207  0.00  0.00    -0.265 OA
ATOM      8  O   UNL d   1      52.972  29.685  53.865  0.00  0.00    -0.242 OA
ATOM      9  C   UNL d   1      53.500  32.868  53.161  0.00  0.00     0.006 A 
ATOM     10  C   UNL d   1      54.240  32.183  54.468  0.00  0.00     0.019 A 
ATOM     11  C   UNL d   1      54.000  33.320  53.636  0.00  0.00     0.000 A 
ATOM     12  C   UNL d   1      54.370  32.978  54.290  0.00  0.00     0.002 A 
ENDROOT
TORSDOF 0
ENDMDL
