MODEL 1
REMARK VINA RESULT:      -8.6      0.000      0.000
REMARK  4 active torsions:
REMARK  status: ('A' for Active; 'I' for Inactive)
REMARK    1  A    between atoms: C_8  and  C_1 
REMARK    2  A    between atoms: N_5  and  C_2 
REMARK       I    between atoms: C_6  and  N_5 
REMARK    3  A    between atoms: C_10  and  C_6 
REMARK    4  A    between atoms: N_9  and  C_8 
ROOT
ATOM      1  C   UNL d   1      53.545  32.292  53.746  0.00  0.00     0.042 A 
ATOM      2  C   UNL d   1      52.962  32.747  54.108  0.00  0.00     0.115 A 
ATOM      3  S   UNL d   1      53.346  33.309  54.574  0.00  0.00    -0.068 SA
ATOM      4  C   UNL d   1      54.274  32.574  53.988  0.00  0.00     0.009 A 
ATOM      5  C   UNL d   1      54.149  33.202  54.500  0.00  0.00     0.031 A 
ATOM      6  C   UNL d   1      55.012  32.271  53.752  0.00  0.00     0.001 C 
ATOM      7  C   UNL d   1      54.725  33.659  54.882  0.00  0.00     0.007 C 
ENDROOT
BRANCH   2   8
ATOM      8  N   UNL d   1      52.145  32.662  54.025  0.00  0.00    -0.201 NA
ATOM      9  C   UNL d   1      51.698  33.274  53.693  0.00  0.00     0.282 C 
ATOM     10  O   UNL d   1      50.887  33.183  53.613  0.00  0.00    -0.265 OA
BRANCH   9  11
ATOM     11  C   UNL d   1      52.070  33.969  53.445  0.00  0.00     0.085 A 
ATOM     12  C   UNL d   1      52.161  34.114  52.637  0.00  0.00     0.145 A 
ATOM     13  F   UNL d   1      51.909  33.618  52.028  0.00  0.00    -0.204 F 
ATOM     14  C   UNL d   1      52.531  34.807  52.382  0.00  0.00     0.030 A 
ATOM     15  C   UNL d   1      52.808  35.348  52.945  0.00  0.00     0.002 A 
ATOM     16  C   UNL d   1      52.717  35.202  53.750  0.00  0.00     0.000 A 
ATOM     17  C   UNL d   1      52.345  34.506  53.997  0.00  0.00     0.007 A 
ENDBRANCH   9  11
ENDBRANCH   2   8
BRANCH   1  18
ATOM     18  C   UNL d   1      53.499  31.650  53.220  0.00  0.00     0.082 C 
BRANCH  18  19
ATOM     19  N   UNL d   1      53.368  30.895  53.515  0.00  0.00    -0.304 N 
ATOM     20  C   UNL d   1      53.098  30.294  53.001  0.00  0.00     0.064 A 
ATOM     21  C   UNL d   1      52.966  30.462  52.207  0.00  0.00     0.019 C 
ATOM     22  C   UNL d   1      52.964  29.531  53.292  0.00  0.00     0.018 A 
ATOM     23  C   UNL d   1      53.097  29.366  54.084  0.00  0.00     0.003 A 
ATOM     24  C   UNL d   1      53.364  29.962  54.591  0.00  0.00     0.019 A 
ATOM     25  C   UNL d   1      53.498  30.719  54.306  0.00  0.00     0.080 A 
ENDBRANCH  18  19
ENDBRANCH   1  18
TORSDOF 4
ENDMDL
MODEL 2
REMARK VINA RESULT:      -7.9      1.380      3.737
REMARK  4 active torsions:
REMARK  status: ('A' for Active; 'I' for Inactive)
REMARK    1  A    between atoms: C_8  and  C_1 
REMARK    2  A    between atoms: N_5  and  C_2 
REMARK       I    between atoms: C_6  and  N_5 
REMARK    3  A    between atoms: C_10  and  C_6 
REMARK    4  A    between atoms: N_9  and  C_8 
ROOT
ATOM      1  C   UNL d   1      52.829  32.616  53.675  0.00  0.00     0.042 A 
ATOM      2  C   UNL d   1      53.255  32.108  53.187  0.00  0.00     0.115 A 
ATOM      3  S   UNL d   1      54.020  32.062  53.491  0.00  0.00    -0.068 SA
ATOM      4  C   UNL d   1      53.329  32.876  54.269  0.00  0.00     0.009 A 
ATOM      5  C   UNL d   1      54.064  32.533  54.153  0.00  0.00     0.031 A 
ATOM      6  C   UNL d   1      53.119  33.400  54.881  0.00  0.00     0.001 C 
ATOM      7  C   UNL d   1      54.742  32.636  54.618  0.00  0.00     0.007 C 
ENDROOT
BRANCH   2   8
ATOM      8  N   UNL d   1      52.975  31.715  52.517  0.00  0.00    -0.201 NA
ATOM      9  C   UNL d   1      52.919  30.889  52.518  0.00  0.00     0.282 C 
ATOM     10  O   UNL d   1      52.640  30.504  51.849  0.00  0.00    -0.265 OA
BRANCH   9  11
ATOM     11  C   UNL d   1      53.143  30.460  53.188  0.00  0.00     0.085 A 
ATOM     12  C   UNL d   1      52.561  30.099  53.651  0.00  0.00     0.145 A 
ATOM     13  F   UNL d   1      51.749  30.124  53.508  0.00  0.00    -0.204 F 
ATOM     14  C   UNL d   1      52.778  29.669  54.321  0.00  0.00     0.030 A 
ATOM     15  C   UNL d   1      53.580  29.606  54.520  0.00  0.00     0.002 A 
ATOM     16  C   UNL d   1      54.158  29.966  54.057  0.00  0.00     0.000 A 
ATOM     17  C   UNL d   1      53.933  30.395  53.387  0.00  0.00     0.007 A 
ENDBRANCH   9  11
ENDBRANCH   2   8
BRANCH   1  18
ATOM     18  C   UNL d   1      52.039  32.876  53.650  0.00  0.00     0.082 C 
BRANCH  18  19
ATOM     19  N   UNL d   1      51.829  33.482  53.139  0.00  0.00    -0.304 N 
ATOM     20  C   UNL d   1      51.021  33.641  52.999  0.00  0.00     0.064 A 
ATOM     21  C   UNL d   1      50.443  33.191  53.373  0.00  0.00     0.019 C 
ATOM     22  C   UNL d   1      50.802  34.252  52.484  0.00  0.00     0.018 A 
ATOM     23  C   UNL d   1      51.381  34.699  52.113  0.00  0.00     0.003 A 
ATOM     24  C   UNL d   1      52.180  34.541  52.252  0.00  0.00     0.019 A 
ATOM     25  C   UNL d   1      52.399  33.937  52.762  0.00  0.00     0.080 A 
ENDBRANCH  18  19
ENDBRANCH   1  18
TORSDOF 4
ENDMDL
MODEL 3
REMARK VINA RESULT:      -7.7      1.746      3.497
REMARK  4 active torsions:
REMARK  status: ('A' for Active; 'I' for Inactive)
REMARK    1  A    between atoms: C_8  and  C_1 
REMARK    2  A    between atoms: N_5  and  C_2 
REMARK       I    between atoms: C_6  and  N_5 
REMARK    3  A    between atoms: C_10  and  C_6 
REMARK    4  A    between atoms: N_9  and  C_8 
ROOT
ATOM      1  C   UNL d   1      52.645  34.412  53.735  0.00  0.00     0.042 A 
ATOM      2  C   UNL d   1      52.838  33.789  54.238  0.00  0.00     0.115 A 
ATOM      3  S   UNL d   1      53.078  34.119  54.954  0.00  0.00    -0.068 SA
ATOM      4  C   UNL d   1      52.767  35.112  54.141  0.00  0.00     0.009 A 
ATOM      5  C   UNL d   1      53.035  34.929  54.893  0.00  0.00     0.031 A 
ATOM      6  C   UNL d   1      52.639  35.876  53.835  0.00  0.00     0.001 C 
ATOM      7  C   UNL d   1      53.231  35.461  55.498  0.00  0.00     0.007 C 
ENDROOT
BRANCH   2   8
ATOM      8  N   UNL d   1      52.799  32.983  54.064  0.00  0.00    -0.201 NA
ATOM      9  C   UNL d   1      53.488  32.524  54.083  0.00  0.00     0.282 C 
ATOM     10  O   UNL d   1      53.443  31.724  53.909  0.00  0.00    -0.265 OA
BRANCH   9  11
ATOM     11  C   UNL d   1      54.212  32.873  54.275  0.00  0.00     0.085 A 
ATOM     12  C   UNL d   1      54.769  33.004  53.679  0.00  0.00     0.145 A 
ATOM     13  F   UNL d   1      54.674  32.816  52.881  0.00  0.00    -0.204 F 
ATOM     14  C   UNL d   1      55.494  33.353  53.864  0.00  0.00     0.030 A 
ATOM     15  C   UNL d   1      55.653  33.566  54.648  0.00  0.00     0.002 A 
ATOM     16  C   UNL d   1      55.097  33.435  55.240  0.00  0.00     0.000 A 
ATOM     17  C   UNL d   1      54.372  33.085  55.047  0.00  0.00     0.007 A 
ENDBRANCH   9  11
ENDBRANCH   2   8
BRANCH   1  18
ATOM     18  C   UNL d   1      52.371  34.426  52.951  0.00  0.00     0.082 C 
BRANCH  18  19
ATOM     19  N   UNL d   1      51.567  34.350  52.802  0.00  0.00    -0.304 N 
ATOM     20  C   UNL d   1      51.299  34.281  52.014  0.00  0.00     0.064 A 
ATOM     21  C   UNL d   1      51.840  34.288  51.394  0.00  0.00     0.019 C 
ATOM     22  C   UNL d   1      50.490  34.205  51.857  0.00  0.00     0.018 A 
ATOM     23  C   UNL d   1      49.953  34.198  52.477  0.00  0.00     0.003 A 
ATOM     24  C   UNL d   1      50.219  34.267  53.256  0.00  0.00     0.019 A 
ATOM     25  C   UNL d   1      51.021  34.342  53.414  0.00  0.00     0.080 A 
ENDBRANCH  18  19
ENDBRANCH   1  18
TORSDOF 4
ENDMDL
MODEL 4
REMARK VINA RESULT:      -7.7      1.855      3.698
REMARK  4 active torsions:
REMARK  status: ('A' for Active; 'I' for Inactive)
REMARK    1  A    between atoms: C_8  and  C_1 
REMARK    2  A    between atoms: N_5  and  C_2 
REMARK       I    between atoms: C_6  and  N_5 
REMARK    3  A    between atoms: C_10  and  C_6 
REMARK    4  A    between atoms: N_9  and  C_8 
ROOT
ATOM      1  C   UNL d   1      52.104  33.328  53.296  0.00  0.00     0.042 A 
ATOM      2  C   UNL d   1      52.830  33.711  53.242  0.00  0.00     0.115 A 
ATOM      3  S   UNL d   1      53.402  33.133  53.102  0.00  0.00    -0.068 SA
ATOM      4  C   UNL d   1      52.232  32.526  53.191  0.00  0.00     0.009 A 
ATOM      5  C   UNL d   1      53.034  32.408  53.072  0.00  0.00     0.031 A 
ATOM      6  C   UNL d   1      51.644  31.938  53.204  0.00  0.00     0.001 C 
ATOM      7  C   UNL d   1      53.420  31.686  52.941  0.00  0.00     0.007 C 
ENDROOT
BRANCH   2   8
ATOM      8  N   UNL d   1      52.968  34.522  53.312  0.00  0.00    -0.201 NA
ATOM      9  C   UNL d   1      53.480  34.804  53.899  0.00  0.00     0.282 C 
ATOM     10  O   UNL d   1      53.612  35.610  53.964  0.00  0.00    -0.265 OA
BRANCH   9  11
ATOM     11  C   UNL d   1      53.851  34.273  54.413  0.00  0.00     0.085 A 
ATOM     12  C   UNL d   1      53.584  34.210  55.192  0.00  0.00     0.145 A 
ATOM     13  F   UNL d   1      52.961  34.637  55.523  0.00  0.00    -0.204 F 
ATOM     14  C   UNL d   1      53.951  33.682  55.710  0.00  0.00     0.030 A 
ATOM     15  C   UNL d   1      54.584  33.222  55.439  0.00  0.00     0.002 A 
ATOM     16  C   UNL d   1      54.848  33.287  54.662  0.00  0.00     0.000 A 
ATOM     17  C   UNL d   1      54.476  33.818  54.149  0.00  0.00     0.007 A 
ENDBRANCH   9  11
ENDBRANCH   2   8
BRANCH   1  18
ATOM     18  C   UNL d   1      51.335  33.614  53.429  0.00  0.00     0.082 C 
BRANCH  18  19
ATOM     19  N   UNL d   1      50.905  33.924  52.802  0.00  0.00    -0.304 N 
ATOM     20  C   UNL d   1      50.202  34.349  52.956  0.00  0.00     0.064 A 
ATOM     21  C   UNL d   1      49.947  34.454  53.731  0.00  0.00     0.019 C 
ATOM     22  C   UNL d   1      49.764  34.664  52.328  0.00  0.00     0.018 A 
ATOM     23  C   UNL d   1      50.021  34.557  51.557  0.00  0.00     0.003 A 
ATOM     24  C   UNL d   1      50.716  34.136  51.406  0.00  0.00     0.019 A 
ATOM     25  C   UNL d   1      51.153  33.823  52.026  0.00  0.00     0.080 A 
ENDBRANCH  18  19
ENDBRANCH   1  18
TORSDOF 4
ENDMDL
MODEL 5
REMARK VINA RESULT:      -7.6      1.534      2.400
REMARK  4 active torsions:
REMARK  status: ('A' for Active; 'I' for Inactive)
REMARK    1  A    between atoms: C_8  and  C_1 
REMARK    2  A    between atoms: N_5  and  C_2 
REMARK       I    between atoms: C_6  and  N_5 
REMARK    3  A    between atoms: C_10  and  C_6 
REMARK    4  A    between atoms: N_9  and  C_8 
ROOT
ATOM      1  C   UNL d   1      52.625  32.369  53.475  0.00  0.00     0.042 A 
ATOM      2  C   UNL d   1      53.216  32.890  53.240  0.00  0.00     0.115 A 
ATOM      3  S   UNL d   1      52.854  33.493  52.810  0.00  0.00    -0.068 SA
ATOM      4  C   UNL d   1      51.911  32.651  53.191  0.00  0.00     0.009 A 
ATOM      5  C   UNL d   1      52.054  33.345  52.781  0.00  0.00     0.031 A 
ATOM      6  C   UNL d   1      51.170  32.289  53.304  0.00  0.00     0.001 C 
ATOM      7  C   UNL d   1      51.498  33.825  52.398  0.00  0.00     0.007 C 
ENDROOT
BRANCH   2   8
ATOM      8  N   UNL d   1      54.024  32.828  53.402  0.00  0.00    -0.201 NA
ATOM      9  C   UNL d   1      54.394  33.394  53.878  0.00  0.00     0.282 C 
ATOM     10  O   UNL d   1      55.196  33.327  54.035  0.00  0.00    -0.265 OA
BRANCH   9  11
ATOM     11  C   UNL d   1      53.955  34.021  54.192  0.00  0.00     0.085 A 
ATOM     12  C   UNL d   1      53.773  34.025  54.998  0.00  0.00     0.145 A 
ATOM     13  F   UNL d   1      53.992  33.446  55.543  0.00  0.00    -0.204 F 
ATOM     14  C   UNL d   1      53.335  34.648  55.317  0.00  0.00     0.030 A 
ATOM     15  C   UNL d   1      53.084  35.263  54.821  0.00  0.00     0.002 A 
ATOM     16  C   UNL d   1      53.267  35.257  54.019  0.00  0.00     0.000 A 
ATOM     17  C   UNL d   1      53.706  34.629  53.706  0.00  0.00     0.007 A 
ENDBRANCH   9  11
ENDBRANCH   2   8
BRANCH   1  18
ATOM     18  C   UNL d   1      52.650  31.665  53.917  0.00  0.00     0.082 C 
BRANCH  18  19
ATOM     19  N   UNL d   1      52.841  30.960  53.543  0.00  0.00    -0.304 N 
ATOM     20  C   UNL d   1      53.089  30.305  53.999  0.00  0.00     0.064 A 
ATOM     21  C   UNL d   1      53.140  30.372  54.818  0.00  0.00     0.019 C 
ATOM     22  C   UNL d   1      53.283  29.591  53.628  0.00  0.00     0.018 A 
ATOM     23  C   UNL d   1      53.231  29.528  52.812  0.00  0.00     0.003 A 
ATOM     24  C   UNL d   1      52.986  30.176  52.361  0.00  0.00     0.019 A 
ATOM     25  C   UNL d   1      52.793  30.885  52.727  0.00  0.00     0.080 A 
ENDBRANCH  18  19
ENDBRANCH   1  18
TORSDOF 4
ENDMDL
MODEL 6
REMARK VINA RESULT:      -7.0      1.399      2.700
REMARK  4 active torsions:
REMARK  status: ('A' for Active; 'I' for Inactive)
REMARK    1  A    between atoms: C_8  and  C_1 
REMARK    2  A    between atoms: N_5  and  C_2 
REMARK       I    between atoms: C_6  and  N_5 
REMARK    3  A    between atoms: C_10  and  C_6 
REMARK    4  A    between atoms: N_9  and  C_8 
ROOT
ATOM      1  C   UNL d   1      53.053  32.843  53.526  0.00  0.00     0.042 A 
ATOM      2  C   UNL d   1      52.408  33.318  53.716  0.00  0.00     0.115 A 
ATOM      3  S   UNL d   1      51.730  32.858  53.619  0.00  0.00    -0.068 SA
ATOM      4  C   UNL d   1      52.771  32.104  53.315  0.00  0.00     0.009 A 
ATOM      5  C   UNL d   1      51.954  32.115  53.373  0.00  0.00     0.031 A 
ATOM      6  C   UNL d   1      53.240  31.457  53.083  0.00  0.00     0.001 C 
ATOM      7  C   UNL d   1      51.432  31.492  53.215  0.00  0.00     0.007 C 
ENDROOT
BRANCH   2   8
ATOM      8  N   UNL d   1      52.428  34.107  53.960  0.00  0.00    -0.201 NA
ATOM      9  C   UNL d   1      51.989  34.676  53.550  0.00  0.00     0.282 C 
ATOM     10  O   UNL d   1      52.014  35.457  53.796  0.00  0.00    -0.265 OA
BRANCH   9  11
ATOM     11  C   UNL d   1      51.532  34.454  52.898  0.00  0.00     0.085 A 
ATOM     12  C   UNL d   1      51.822  34.586  52.135  0.00  0.00     0.145 A 
ATOM     13  F   UNL d   1      52.549  34.930  51.951  0.00  0.00    -0.204 F 
ATOM     14  C   UNL d   1      51.370  34.368  51.480  0.00  0.00     0.030 A 
ATOM     15  C   UNL d   1      50.629  34.017  51.598  0.00  0.00     0.002 A 
ATOM     16  C   UNL d   1      50.342  33.886  52.358  0.00  0.00     0.000 A 
ATOM     17  C   UNL d   1      50.800  34.108  53.010  0.00  0.00     0.007 A 
ENDBRANCH   9  11
ENDBRANCH   2   8
BRANCH   1  18
ATOM     18  C   UNL d   1      53.870  32.997  53.518  0.00  0.00     0.082 C 
BRANCH  18  19
ATOM     19  N   UNL d   1      54.263  33.126  54.227  0.00  0.00    -0.304 N 
ATOM     20  C   UNL d   1      55.015  33.490  54.220  0.00  0.00     0.064 A 
ATOM     21  C   UNL d   1      55.355  33.716  53.506  0.00  0.00     0.019 C 
ATOM     22  C   UNL d   1      55.417  33.623  54.932  0.00  0.00     0.018 A 
ATOM     23  C   UNL d   1      55.076  33.397  55.642  0.00  0.00     0.003 A 
ATOM     24  C   UNL d   1      54.332  33.037  55.647  0.00  0.00     0.019 A 
ATOM     25  C   UNL d   1      53.931  32.904  54.944  0.00  0.00     0.080 A 
ENDBRANCH  18  19
ENDBRANCH   1  18
TORSDOF 4
ENDMDL
