MODEL 1
REMARK VINA RESULT:      -8.6      0.000      0.000
REMARK  1 active torsions:
REMARK  status: ('A' for Active; 'I' for Inactive)
REMARK    1  A    between atoms: C_10  and  C_5 
ROOT
ATOM      1  C   UNL d   1     -48.475  13.786  23.105  0.00  0.00     0.118 A 
ATOM      2  C   UNL d   1     -47.874  14.258  22.830  0.00  0.00     0.088 A 
ATOM      3  N   UNL d   1     -49.258  14.093  23.157  0.00  0.00    -0.219 NA
ATOM      4  C   UNL d   1     -48.061  15.035  22.608  0.00  0.00     0.303 A 
ATOM      5  C   UNL d   1     -49.416  14.862  22.932  0.00  0.00     0.162 A 
ATOM      6  O   UNL d   1     -48.817  15.329  22.658  0.00  0.00    -0.259 OA
ATOM      7  S   UNL d   1     -48.149  13.034  23.292  0.00  0.00    -0.068 SA
ATOM      8  C   UNL d   1     -47.186  13.813  22.843  0.00  0.00     0.013 A 
ATOM      9  C   UNL d   1     -47.360  13.086  23.120  0.00  0.00     0.031 A 
ATOM     10  O   UNL d   1     -47.474  15.547  22.322  0.00  0.00    -0.259 OA
ATOM     11  C   UNL d   1     -46.419  14.011  22.627  0.00  0.00     0.001 A 
ATOM     12  C   UNL d   1     -46.792  12.494  23.205  0.00  0.00     0.006 A 
ATOM     13  C   UNL d   1     -45.832  13.413  22.711  0.00  0.00     0.000 A 
ATOM     14  C   UNL d   1     -45.998  12.693  22.984  0.00  0.00     0.001 A 
ENDROOT
BRANCH   5  15
ATOM     15  C   UNL d   1     -50.210  15.134  22.997  0.00  0.00     0.058 C 
ATOM     16  C   UNL d   1     -49.999  15.519  23.697  0.00  0.00     0.008 C 
ATOM     17  C   UNL d   1     -50.976  15.416  23.090  0.00  0.00     0.008 C 
ATOM     18  C   UNL d   1     -50.426  14.750  22.296  0.00  0.00     0.008 C 
ENDBRANCH   5  15
TORSDOF 1
ENDMDL
MODEL 2
REMARK VINA RESULT:      -8.5      2.037      3.757
REMARK  1 active torsions:
REMARK  status: ('A' for Active; 'I' for Inactive)
REMARK    1  A    between atoms: C_10  and  C_5 
ROOT
ATOM      1  C   UNL d   1     -48.542  13.180  22.941  0.00  0.00     0.118 A 
ATOM      2  C   UNL d   1     -48.634  12.422  23.218  0.00  0.00     0.088 A 
ATOM      3  N   UNL d   1     -47.772  13.467  22.754  0.00  0.00    -0.219 NA
ATOM      4  C   UNL d   1     -47.954  11.955  23.306  0.00  0.00     0.303 A 
ATOM      5  C   UNL d   1     -47.119  12.988  22.850  0.00  0.00     0.162 A 
ATOM      6  O   UNL d   1     -47.212  12.234  23.125  0.00  0.00    -0.259 OA
ATOM      7  S   UNL d   1     -49.303  13.535  22.902  0.00  0.00    -0.068 SA
ATOM      8  C   UNL d   1     -49.434  12.303  23.350  0.00  0.00     0.013 A 
ATOM      9  C   UNL d   1     -49.824  12.972  23.158  0.00  0.00     0.031 A 
ATOM     10  O   UNL d   1     -48.008  11.176  23.586  0.00  0.00    -0.259 OA
ATOM     11  C   UNL d   1     -49.836  11.643  23.627  0.00  0.00     0.001 A 
ATOM     12  C   UNL d   1     -50.643  13.044  23.224  0.00  0.00     0.006 A 
ATOM     13  C   UNL d   1     -50.673  11.708  23.698  0.00  0.00     0.000 A 
ATOM     14  C   UNL d   1     -51.064  12.366  23.510  0.00  0.00     0.001 A 
ENDROOT
BRANCH   5  15
ATOM     15  C   UNL d   1     -46.365  13.308  22.653  0.00  0.00     0.058 C 
ATOM     16  C   UNL d   1     -46.435  12.960  21.906  0.00  0.00     0.008 C 
ATOM     17  C   UNL d   1     -45.633  13.606  22.429  0.00  0.00     0.008 C 
ATOM     18  C   UNL d   1     -46.291  13.658  23.399  0.00  0.00     0.008 C 
ENDBRANCH   5  15
TORSDOF 1
ENDMDL
MODEL 3
REMARK VINA RESULT:      -8.2      1.579      3.421
REMARK  1 active torsions:
REMARK  status: ('A' for Active; 'I' for Inactive)
REMARK    1  A    between atoms: C_10  and  C_5 
ROOT
ATOM      1  C   UNL d   1     -48.439  12.595  23.109  0.00  0.00     0.118 A 
ATOM      2  C   UNL d   1     -48.915  13.253  23.123  0.00  0.00     0.088 A 
ATOM      3  N   UNL d   1     -47.619  12.675  22.933  0.00  0.00    -0.219 NA
ATOM      4  C   UNL d   1     -48.567  13.988  22.962  0.00  0.00     0.303 A 
ATOM      5  C   UNL d   1     -47.300  13.410  22.778  0.00  0.00     0.162 A 
ATOM      6  O   UNL d   1     -47.776  14.064  22.793  0.00  0.00    -0.259 OA
ATOM      7  S   UNL d   1     -48.916  11.926  23.288  0.00  0.00    -0.068 SA
ATOM      8  C   UNL d   1     -49.674  13.004  23.307  0.00  0.00     0.013 A 
ATOM      9  C   UNL d   1     -49.665  12.212  23.404  0.00  0.00     0.031 A 
ATOM     10  O   UNL d   1     -49.021  14.682  22.967  0.00  0.00    -0.259 OA
ATOM     11  C   UNL d   1     -50.369  13.432  23.394  0.00  0.00     0.001 A 
ATOM     12  C   UNL d   1     -50.340  11.779  23.594  0.00  0.00     0.006 A 
ATOM     13  C   UNL d   1     -51.064  12.997  23.588  0.00  0.00     0.000 A 
ATOM     14  C   UNL d   1     -51.060  12.215  23.685  0.00  0.00     0.001 A 
ENDROOT
BRANCH   5  15
ATOM     15  C   UNL d   1     -46.477  13.453  22.607  0.00  0.00     0.058 C 
ATOM     16  C   UNL d   1     -46.648  13.235  21.828  0.00  0.00     0.008 C 
ATOM     17  C   UNL d   1     -45.681  13.485  22.406  0.00  0.00     0.008 C 
ATOM     18  C   UNL d   1     -46.301  13.670  23.385  0.00  0.00     0.008 C 
ENDBRANCH   5  15
TORSDOF 1
ENDMDL
MODEL 4
REMARK VINA RESULT:      -6.2      1.559      2.152
REMARK  1 active torsions:
REMARK  status: ('A' for Active; 'I' for Inactive)
REMARK    1  A    between atoms: C_10  and  C_5 
ROOT
ATOM      1  C   UNL d   1     -48.456  13.244  22.761  0.00  0.00     0.118 A 
ATOM      2  C   UNL d   1     -48.594  12.479  22.994  0.00  0.00     0.088 A 
ATOM      3  N   UNL d   1     -49.097  13.720  22.490  0.00  0.00    -0.219 NA
ATOM      4  C   UNL d   1     -49.372  12.193  22.955  0.00  0.00     0.303 A 
ATOM      5  C   UNL d   1     -49.854  13.417  22.462  0.00  0.00     0.162 A 
ATOM      6  O   UNL d   1     -49.988  12.654  22.694  0.00  0.00    -0.259 OA
ATOM      7  S   UNL d   1     -47.635  13.400  22.851  0.00  0.00    -0.068 SA
ATOM      8  C   UNL d   1     -47.875  12.159  23.226  0.00  0.00     0.013 A 
ATOM      9  C   UNL d   1     -47.310  12.715  23.136  0.00  0.00     0.031 A 
ATOM     10  O   UNL d   1     -49.550  11.417  23.185  0.00  0.00    -0.259 OA
ATOM     11  C   UNL d   1     -47.691  11.411  23.509  0.00  0.00     0.001 A 
ATOM     12  C   UNL d   1     -46.518  12.578  23.319  0.00  0.00     0.006 A 
ATOM     13  C   UNL d   1     -46.883  11.262  23.698  0.00  0.00     0.000 A 
ATOM     14  C   UNL d   1     -46.321  11.808  23.612  0.00  0.00     0.001 A 
ENDROOT
BRANCH   5  15
ATOM     15  C   UNL d   1     -50.469  13.921  22.186  0.00  0.00     0.058 C 
ATOM     16  C   UNL d   1     -50.319  13.651  21.420  0.00  0.00     0.008 C 
ATOM     17  C   UNL d   1     -51.063  14.402  21.884  0.00  0.00     0.008 C 
ATOM     18  C   UNL d   1     -50.622  14.195  22.952  0.00  0.00     0.008 C 
ENDBRANCH   5  15
TORSDOF 1
ENDMDL
