MODEL 1
REMARK VINA RESULT:      -2.6      0.000      0.000
REMARK  3 active torsions:
REMARK  status: ('A' for Active; 'I' for Inactive)
REMARK       I    between atoms: C_6  and  N_7 
REMARK    1  A    between atoms: C_9  and  C_6 
REMARK    2  A    between atoms: N_7  and  C_13 
REMARK    3  A    between atoms: C_15  and  C_14 
ROOT
ATOM      1  C   UNL d   1      60.433   0.000  28.896  0.00  0.00     0.279 C 
ATOM      2  N   UNL d   1      60.182   0.682  29.278  0.00  0.00    -0.208 NA
ATOM      3  O   UNL d   1      61.133   0.010  28.468  0.00  0.00    -0.265 OA
ENDROOT
BRANCH   2   4
ATOM      4  C   UNL d   1      59.479   0.677  29.709  0.00  0.00     0.085 A 
ATOM      5  C   UNL d   1      59.509   0.673  30.527  0.00  0.00     0.024 A 
ATOM      6  C   UNL d   1      58.806   0.668  30.958  0.00  0.00     0.064 A 
ATOM      7  C   UNL d   1      58.661   0.664  31.775  0.00  0.00     0.282 A 
ATOM      8  C   UNL d   1      58.080   0.667  30.581  0.00  0.00     0.063 A 
ATOM      9  N   UNL d   1      57.848   0.660  31.886  0.00  0.00    -0.169 NA
ATOM     10  O   UNL d   1      59.217   0.663  32.380  0.00  0.00    -0.265 OA
ATOM     11  C   UNL d   1      57.490   0.662  31.150  0.00  0.00     0.282 A 
ATOM     12  O   UNL d   1      56.680   0.660  31.000  0.00  0.00    -0.265 OA
ATOM     13  C   UNL d   1      58.051   0.671  29.757  0.00  0.00     0.006 A 
ATOM     14  C   UNL d   1      58.749   0.676  29.318  0.00  0.00     0.019 A 
ENDBRANCH   2   4
BRANCH   1  15
ATOM     15  C   UNL d   1      59.991  -0.683  28.938  0.00  0.00     0.058 A 
ATOM     16  C   UNL d   1      60.209  -1.289  29.447  0.00  0.00     0.005 A 
ATOM     17  C   UNL d   1      59.756  -1.980  29.485  0.00  0.00     0.003 A 
ATOM     18  C   UNL d   1      59.086  -2.062  29.011  0.00  0.00     0.039 A 
ATOM     19  C   UNL d   1      58.868  -1.452  28.499  0.00  0.00     0.003 A 
ATOM     20  C   UNL d   1      59.321  -0.761  28.462  0.00  0.00     0.005 A 
BRANCH  18  21
ATOM     21  C   UNL d   1      58.633  -2.753  29.048  0.00  0.00     0.196 C 
ATOM     22  O   UNL d   1      58.082  -2.854  29.653  0.00  0.00    -0.287 OA
ATOM     23  C   UNL d   1      58.734  -3.342  28.478  0.00  0.00     0.045 C 
ENDBRANCH  18  21
ENDBRANCH   1  15
TORSDOF 3
ENDMDL
