MODEL 1
REMARK VINA RESULT:      -4.9      0.000      0.000
REMARK  5 active torsions:
REMARK  status: ('A' for Active; 'I' for Inactive)
REMARK    1  A    between atoms: C_2  and  C_1 
REMARK    2  A    between atoms: C_3  and  C_1 
REMARK    3  A    between atoms: C_4  and  C_2 
REMARK    4  A    between atoms: C_8  and  C_3 
REMARK    5  A    between atoms: O_18  and  C_10 
ROOT
ATOM      1  C   UNL d   1     -41.432-121.946 -52.261  0.00  0.00     0.196 C 
ATOM      2  O   UNL d   1     -41.123-121.204 -52.066  0.00  0.00    -0.287 OA
ENDROOT
BRANCH   1   3
ATOM      3  C   UNL d   1     -41.587-122.498 -51.668  0.00  0.00     0.042 C 
BRANCH   3   4
ATOM      4  C   UNL d   1     -41.368-122.575 -50.873  0.00  0.00     0.003 C 
BRANCH   4   5
ATOM      5  C   UNL d   1     -41.730-122.887 -50.200  0.00  0.00     0.000 A 
ATOM      6  C   UNL d   1     -42.465-122.594 -49.960  0.00  0.00     0.003 A 
ATOM      7  C   UNL d   1     -42.829-122.906 -49.286  0.00  0.00     0.042 A 
ATOM      8  C   UNL d   1     -42.456-123.505 -48.860  0.00  0.00     0.196 A 
ATOM      9  C   UNL d   1     -41.720-123.792 -49.107  0.00  0.00     0.042 A 
ATOM     10  O   UNL d   1     -42.816-123.817 -48.187  0.00  0.00    -0.287 OA
ATOM     11  C   UNL d   1     -41.360-123.485 -49.773  0.00  0.00     0.003 A 
ENDBRANCH   4   5
ENDBRANCH   3   4
ENDBRANCH   1   3
BRANCH   1  12
ATOM     12  C   UNL d   1     -41.582-122.121 -53.058  0.00  0.00     0.039 A 
ATOM     13  C   UNL d   1     -41.206-122.753 -53.432  0.00  0.00     0.005 A 
ATOM     14  C   UNL d   1     -41.365-122.915 -54.225  0.00  0.00     0.024 A 
ATOM     15  C   UNL d   1     -41.901-122.445 -54.644  0.00  0.00     0.094 A 
ATOM     16  C   UNL d   1     -42.278-121.806 -54.260  0.00  0.00     0.024 A 
ATOM     17  C   UNL d   1     -42.118-121.647 -53.470  0.00  0.00     0.005 A 
BRANCH  15  18
ATOM     18  O   UNL d   1     -42.060-122.607 -55.437  0.00  0.00    -0.328 OA
ATOM     19  C   UNL d   1     -42.292-121.998 -55.943  0.00  0.00     0.181 C 
ENDBRANCH  15  18
ENDBRANCH   1  12
TORSDOF 5
ENDMDL
