MODEL 1
REMARK VINA RESULT:      31.0      0.000      0.000
REMARK  3 active torsions:
REMARK  status: ('A' for Active; 'I' for Inactive)
REMARK    1  A    between atoms: C_7  and  C_1 
REMARK    2  A    between atoms: C_10  and  C_7 
REMARK    3  A    between atoms: N_8  and  C_9 
ROOT
ATOM      1  C   UNL d   1      13.483  12.998  -4.235  0.00  0.00     0.129 A 
ATOM      2  C   UNL d   1      13.716  12.921  -3.450  0.00  0.00     0.024 A 
ATOM      3  C   UNL d   1      13.421  13.743  -4.572  0.00  0.00     0.050 A 
ATOM      4  C   UNL d   1      13.591  14.420  -4.128  0.00  0.00     0.121 A 
ATOM      5  C   UNL d   1      13.825  14.348  -3.341  0.00  0.00     0.119 A 
ATOM      6  C   UNL d   1      13.888  13.591  -2.999  0.00  0.00     0.028 A 
ATOM      7  O   UNL d   1      13.578  15.224  -4.313  0.00  0.00    -0.299 OA
ATOM      8  O   UNL d   1      13.956  15.098  -3.040  0.00  0.00    -0.300 OA
ATOM      9  C   UNL d   1      13.804  15.643  -3.640  0.00  0.00     0.304 A 
ENDROOT
BRANCH   2  10
ATOM     10  C   UNL d   1      13.777  12.174  -3.117  0.00  0.00     0.011 C 
BRANCH  10  11
ATOM     11  C   UNL d   1      14.081  12.091  -2.346  0.00  0.00     0.116 A 
ATOM     12  C   UNL d   1      14.892  12.188  -2.210  0.00  0.00     0.288 A 
ATOM     13  N   UNL d   1      15.193  12.107  -1.453  0.00  0.00    -0.152 NA
ATOM     14  O   UNL d   1      15.397  12.367  -2.844  0.00  0.00    -0.265 OA
ATOM     15  C   UNL d   1      14.690  11.930  -0.831  0.00  0.00     0.374 A 
ATOM     16  N   UNL d   1      13.879  11.834  -0.968  0.00  0.00    -0.152 NA
ATOM     17  O   UNL d   1      14.990  11.848  -0.061  0.00  0.00    -0.242 OA
ATOM     18  C   UNL d   1      13.577  11.914  -1.725  0.00  0.00     0.288 A 
ATOM     19  O   UNL d   1      12.770  11.818  -1.861  0.00  0.00    -0.265 OA
ENDBRANCH  10  11
ENDBRANCH   2  10
BRANCH   1  20
ATOM     20  N   UNL d   1      13.313  12.331  -4.680  0.00  0.00    -0.114 N 
ATOM     21  O   UNL d   1      13.687  12.211  -5.407  0.00  0.00    -0.532 OA
ATOM     22  O   UNL d   1      12.772  11.780  -4.404  0.00  0.00    -0.532 OA
ENDBRANCH   1  20
TORSDOF 3
ENDMDL
MODEL 2
REMARK VINA RESULT:      32.1      2.263      3.601
REMARK  3 active torsions:
REMARK  status: ('A' for Active; 'I' for Inactive)
REMARK    1  A    between atoms: C_7  and  C_1 
REMARK    2  A    between atoms: C_10  and  C_7 
REMARK    3  A    between atoms: N_8  and  C_9 
ROOT
ATOM      1  C   UNL d   1      14.281  12.475  -1.041  0.00  0.00     0.129 A 
ATOM      2  C   UNL d   1      14.614  13.227  -1.021  0.00  0.00     0.024 A 
ATOM      3  C   UNL d   1      13.958  12.188  -1.739  0.00  0.00     0.050 A 
ATOM      4  C   UNL d   1      13.965  12.651  -2.424  0.00  0.00     0.121 A 
ATOM      5  C   UNL d   1      14.298  13.404  -2.410  0.00  0.00     0.119 A 
ATOM      6  C   UNL d   1      14.626  13.695  -1.702  0.00  0.00     0.028 A 
ATOM      7  O   UNL d   1      13.688  12.514  -3.190  0.00  0.00    -0.299 OA
ATOM      8  O   UNL d   1      14.230  13.733  -3.157  0.00  0.00    -0.300 OA
ATOM      9  C   UNL d   1      13.852  13.183  -3.643  0.00  0.00     0.304 A 
ENDROOT
BRANCH   2  10
ATOM     10  C   UNL d   1      14.936  13.509  -0.321  0.00  0.00     0.011 C 
BRANCH  10  11
ATOM     11  C   UNL d   1      15.165  14.307  -0.267  0.00  0.00     0.116 A 
ATOM     12  C   UNL d   1      14.591  14.897  -0.177  0.00  0.00     0.288 A 
ATOM     13  N   UNL d   1      14.814  15.683  -0.124  0.00  0.00    -0.152 NA
ATOM     14  O   UNL d   1      13.788  14.686  -0.141  0.00  0.00    -0.265 OA
ATOM     15  C   UNL d   1      15.607  15.884  -0.160  0.00  0.00     0.374 A 
ATOM     16  N   UNL d   1      16.182  15.295  -0.251  0.00  0.00    -0.152 NA
ATOM     17  O   UNL d   1      15.839  16.679  -0.107  0.00  0.00    -0.242 OA
ATOM     18  C   UNL d   1      15.958  14.508  -0.304  0.00  0.00     0.288 A 
ATOM     19  O   UNL d   1      16.530  13.922  -0.394  0.00  0.00    -0.265 OA
ENDBRANCH  10  11
ENDBRANCH   2  10
BRANCH   1  20
ATOM     20  N   UNL d   1      14.272  12.013  -0.364  0.00  0.00    -0.114 N 
ATOM     21  O   UNL d   1      13.552  11.780  -0.032  0.00  0.00    -0.532 OA
ATOM     22  O   UNL d   1      14.976  11.781  -0.015  0.00  0.00    -0.532 OA
ENDBRANCH   1  20
TORSDOF 3
ENDMDL
