MODEL 1
REMARK VINA RESULT:      57.5      0.000      0.000
REMARK  3 active torsions:
REMARK  status: ('A' for Active; 'I' for Inactive)
REMARK    1  A    between atoms: C_7  and  N_1 
REMARK    2  A    between atoms: C_10  and  C_3 
REMARK    3  A    between atoms: C_8  and  C_7 
ROOT
ATOM      1  N   UNL d   1      59.560  49.611  50.666  0.00  0.00    -0.289 N 
ATOM      2  N   UNL d   1      58.713  49.688  51.817  0.00  0.00    -0.217 NA
ATOM      3  C   UNL d   1      59.464  49.656  51.486  0.00  0.00     0.149 A 
ATOM      4  C   UNL d   1      58.130  49.629  50.503  0.00  0.00     0.044 A 
ATOM      5  C   UNL d   1      58.044  49.675  51.335  0.00  0.00     0.139 A 
ATOM      6  C   UNL d   1      58.881  49.597  50.171  0.00  0.00     0.068 A 
ATOM      7  S   UNL d   1      57.279  49.706  51.658  0.00  0.00    -0.057 SA
ATOM      8  C   UNL d   1      57.457  49.615  50.013  0.00  0.00     0.004 A 
ATOM      9  C   UNL d   1      58.981  49.551  49.349  0.00  0.00     0.018 A 
ATOM     10  C   UNL d   1      57.561  49.569  49.188  0.00  0.00     0.000 A 
ATOM     11  C   UNL d   1      58.312  49.537  48.856  0.00  0.00     0.002 A 
ENDROOT
BRANCH   1  12
ATOM     12  C   UNL d   1      60.311  49.579  50.334  0.00  0.00     0.106 C 
BRANCH  12  13
ATOM     13  C   UNL d   1      60.688  48.853  50.226  0.00  0.00     0.118 A 
ATOM     14  O   UNL d   1      60.435  48.139  50.519  0.00  0.00    -0.304 OA
ATOM     15  C   UNL d   1      60.969  47.564  50.283  0.00  0.00     0.123 A 
ATOM     16  C   UNL d   1      61.560  47.933  49.838  0.00  0.00     0.029 A 
ATOM     17  C   UNL d   1      61.385  48.738  49.802  0.00  0.00     0.028 A 
ENDBRANCH  12  13
ENDBRANCH   1  12
BRANCH   3  18
ATOM     18  C   UNL d   1      60.137  49.669  51.967  0.00  0.00     0.035 A 
ATOM     19  C   UNL d   1      60.889  49.668  51.634  0.00  0.00     0.003 A 
ATOM     20  C   UNL d   1      61.547  49.681  52.127  0.00  0.00     0.000 A 
ATOM     21  C   UNL d   1      61.468  49.696  52.940  0.00  0.00     0.000 A 
ATOM     22  C   UNL d   1      60.703  49.698  53.279  0.00  0.00     0.000 A 
ATOM     23  C   UNL d   1      60.042  49.684  52.788  0.00  0.00     0.003 A 
ENDBRANCH   3  18
TORSDOF 3
ENDMDL
