MODEL 1
REMARK VINA RESULT:      23.0      0.000      0.000
REMARK  3 active torsions:
REMARK  status: ('A' for Active; 'I' for Inactive)
REMARK    1  A    between atoms: S_11  and  C_7 
REMARK    2  A    between atoms: C_12  and  S_11 
REMARK    3  A    between atoms: C_14  and  C_12 
ROOT
ATOM      1  N   UNL d   1      14.549  12.330  -1.649  0.00  0.00    -0.167 N 
ATOM      2  C   UNL d   1      13.897  12.171  -1.177  0.00  0.00     0.220 A 
ATOM      3  C   UNL d   1      15.267  12.572  -1.314  0.00  0.00     0.301 A 
ATOM      4  S   UNL d   1      13.277  11.945  -1.675  0.00  0.00    -0.019 SA
ATOM      5  N   UNL d   1      14.343  12.206  -2.432  0.00  0.00    -0.147 NA
ATOM      6  N   UNL d   1      13.950  12.251  -0.360  0.00  0.00    -0.121 NA
ATOM      7  C   UNL d   1      13.555  11.968  -2.447  0.00  0.00     0.163 A 
ATOM      8  N   UNL d   1      14.656  12.491  -0.014  0.00  0.00    -0.141 NA
ATOM      9  C   UNL d   1      15.311  12.650  -0.489  0.00  0.00     0.161 A 
ATOM     10  O   UNL d   1      15.916  12.730  -1.785  0.00  0.00    -0.263 OA
ATOM     11  C   UNL d   1      16.021  12.891  -0.147  0.00  0.00     0.028 C 
ENDROOT
BRANCH   7  12
ATOM     12  S   UNL d   1      13.117  11.783  -3.122  0.00  0.00    -0.059 SA
BRANCH  12  13
ATOM     13  C   UNL d   1      12.821  12.379  -3.601  0.00  0.00     0.037 C 
BRANCH  13  14
ATOM     14  C   UNL d   1      13.037  12.409  -4.399  0.00  0.00     0.006 A 
ATOM     15  C   UNL d   1      13.433  13.070  -4.694  0.00  0.00     0.001 A 
ATOM     16  C   UNL d   1      13.650  13.107  -5.483  0.00  0.00     0.000 A 
ATOM     17  C   UNL d   1      14.042  13.763  -5.774  0.00  0.00     0.000 C 
ATOM     18  C   UNL d   1      13.473  12.479  -5.990  0.00  0.00     0.000 A 
ATOM     19  C   UNL d   1      13.077  11.816  -5.700  0.00  0.00     0.000 A 
ATOM     20  C   UNL d   1      12.859  11.779  -4.906  0.00  0.00     0.001 A 
ENDBRANCH  13  14
ENDBRANCH  12  13
ENDBRANCH   7  12
TORSDOF 3
ENDMDL
