MODEL 1
REMARK VINA RESULT:      -8.2      0.000      0.000
REMARK  4 active torsions:
REMARK  status: ('A' for Active; 'I' for Inactive)
REMARK    1  A    between atoms: N_2  and  C_1 
REMARK       I    between atoms: C_6  and  N_2 
REMARK    2  A    between atoms: C_16  and  N_3 
REMARK    3  A    between atoms: C_8  and  C_6 
REMARK    4  A    between atoms: O_19  and  C_12 
ROOT
ATOM      1  C   UNL d   1      54.337  33.234  54.730  0.00  0.00    -0.031 C 
ATOM      2  C   UNL d   1      55.172  33.228  54.710  0.00  0.00    -0.008 C 
ATOM      3  C   UNL d   1      53.510  33.240  54.752  0.00  0.00     0.133 C 
ENDROOT
BRANCH   3   4
ATOM      4  N   UNL d   1      53.073  33.133  54.043  0.00  0.00    -0.276 N 
ATOM      5  C   UNL d   1      52.957  32.421  53.630  0.00  0.00     0.183 A 
ATOM      6  S   UNL d   1      52.507  32.566  52.984  0.00  0.00    -0.048 SA
ATOM      7  C   UNL d   1      52.319  33.374  52.960  0.00  0.00     0.050 A 
ATOM      8  C   UNL d   1      51.887  33.821  52.441  0.00  0.00     0.008 A 
ATOM      9  C   UNL d   1      52.676  33.715  53.623  0.00  0.00     0.095 A 
ATOM     10  C   UNL d   1      51.792  34.634  52.563  0.00  0.00     0.003 A 
ATOM     11  C   UNL d   1      52.156  34.986  53.238  0.00  0.00     0.026 A 
ATOM     12  C   UNL d   1      52.585  34.525  53.748  0.00  0.00     0.111 A 
BRANCH   5  13
ATOM     13  N   UNL d   1      53.262  31.659  53.850  0.00  0.00    -0.183 NA
ATOM     14  C   UNL d   1      52.913  30.983  53.548  0.00  0.00     0.287 C 
ATOM     15  O   UNL d   1      52.269  31.032  53.032  0.00  0.00    -0.265 OA
BRANCH  14  16
ATOM     16  C   UNL d   1      53.210  30.244  53.762  0.00  0.00     0.087 A 
ATOM     17  S   UNL d   1      52.925  29.744  54.374  0.00  0.00    -0.082 SA
ATOM     18  C   UNL d   1      53.381  29.068  54.391  0.00  0.00     0.036 A 
ATOM     19  C   UNL d   1      53.950  29.129  53.802  0.00  0.00     0.008 A 
ATOM     20  C   UNL d   1      53.846  29.846  53.418  0.00  0.00     0.012 A 
ENDBRANCH  14  16
ENDBRANCH   5  13
BRANCH  12  21
ATOM     21  O   UNL d   1      52.942  34.888  54.418  0.00  0.00    -0.327 OA
ATOM     22  C   UNL d   1      52.802  35.689  54.569  0.00  0.00     0.181 C 
ENDBRANCH  12  21
ENDBRANCH   3   4
TORSDOF 4
ENDMDL
MODEL 2
REMARK VINA RESULT:      -7.3      1.653      3.909
REMARK  4 active torsions:
REMARK  status: ('A' for Active; 'I' for Inactive)
REMARK    1  A    between atoms: N_2  and  C_1 
REMARK       I    between atoms: C_6  and  N_2 
REMARK    2  A    between atoms: C_16  and  N_3 
REMARK    3  A    between atoms: C_8  and  C_6 
REMARK    4  A    between atoms: O_19  and  C_12 
ROOT
ATOM      1  C   UNL d   1      52.979  35.155  54.136  0.00  0.00    -0.031 C 
ATOM      2  C   UNL d   1      53.267  35.878  53.831  0.00  0.00    -0.008 C 
ATOM      3  C   UNL d   1      52.695  34.440  54.439  0.00  0.00     0.133 C 
ENDROOT
BRANCH   3   4
ATOM      4  N   UNL d   1      52.638  33.768  53.940  0.00  0.00    -0.276 N 
ATOM      5  C   UNL d   1      52.072  33.633  53.347  0.00  0.00     0.183 A 
ATOM      6  S   UNL d   1      52.219  32.923  53.004  0.00  0.00    -0.048 SA
ATOM      7  C   UNL d   1      52.883  32.581  53.365  0.00  0.00     0.050 A 
ATOM      8  C   UNL d   1      53.273  31.881  53.244  0.00  0.00     0.008 A 
ATOM      9  C   UNL d   1      53.134  33.115  53.944  0.00  0.00     0.095 A 
ATOM     10  C   UNL d   1      53.935  31.683  53.700  0.00  0.00     0.003 A 
ATOM     11  C   UNL d   1      54.194  32.225  54.292  0.00  0.00     0.026 A 
ATOM     12  C   UNL d   1      53.794  32.921  54.401  0.00  0.00     0.111 A 
BRANCH   5  13
ATOM     13  N   UNL d   1      51.437  34.155  53.132  0.00  0.00    -0.183 NA
ATOM     14  C   UNL d   1      50.694  33.845  52.985  0.00  0.00     0.287 C 
ATOM     15  O   UNL d   1      50.553  33.033  53.043  0.00  0.00    -0.265 OA
BRANCH  14  16
ATOM     16  C   UNL d   1      50.078  34.353  52.776  0.00  0.00     0.087 A 
ATOM     17  S   UNL d   1      49.747  34.454  52.010  0.00  0.00    -0.082 SA
ATOM     18  C   UNL d   1      49.151  35.010  52.057  0.00  0.00     0.036 A 
ATOM     19  C   UNL d   1      49.098  35.263  52.837  0.00  0.00     0.008 A 
ATOM     20  C   UNL d   1      49.663  34.862  53.275  0.00  0.00     0.012 A 
ENDBRANCH  14  16
ENDBRANCH   5  13
BRANCH  12  21
ATOM     21  O   UNL d   1      54.062  33.453  54.994  0.00  0.00    -0.327 OA
ATOM     22  C   UNL d   1      54.697  33.237  55.477  0.00  0.00     0.181 C 
ENDBRANCH  12  21
ENDBRANCH   3   4
TORSDOF 4
ENDMDL
MODEL 3
REMARK VINA RESULT:      -6.7      1.037      2.077
REMARK  4 active torsions:
REMARK  status: ('A' for Active; 'I' for Inactive)
REMARK    1  A    between atoms: N_2  and  C_1 
REMARK       I    between atoms: C_6  and  N_2 
REMARK    2  A    between atoms: C_16  and  N_3 
REMARK    3  A    between atoms: C_8  and  C_6 
REMARK    4  A    between atoms: O_19  and  C_12 
ROOT
ATOM      1  C   UNL d   1      52.110  33.603  53.044  0.00  0.00    -0.031 C 
ATOM      2  C   UNL d   1      51.925  33.766  52.246  0.00  0.00    -0.008 C 
ATOM      3  C   UNL d   1      52.291  33.443  53.836  0.00  0.00     0.133 C 
ENDROOT
BRANCH   3   4
ATOM      4  N   UNL d   1      53.078  33.251  54.054  0.00  0.00    -0.276 N 
ATOM      5  C   UNL d   1      53.471  32.530  53.922  0.00  0.00     0.183 A 
ATOM      6  S   UNL d   1      54.214  32.582  54.217  0.00  0.00    -0.048 SA
ATOM      7  C   UNL d   1      54.322  33.335  54.547  0.00  0.00     0.050 A 
ATOM      8  C   UNL d   1      54.953  33.686  54.916  0.00  0.00     0.008 A 
ATOM      9  C   UNL d   1      53.610  33.741  54.439  0.00  0.00     0.095 A 
ATOM     10  C   UNL d   1      54.898  34.464  55.194  0.00  0.00     0.003 A 
ATOM     11  C   UNL d   1      54.173  34.881  55.086  0.00  0.00     0.026 A 
ATOM     12  C   UNL d   1      53.551  34.516  54.716  0.00  0.00     0.111 A 
BRANCH   5  13
ATOM     13  N   UNL d   1      53.146  31.845  53.538  0.00  0.00    -0.183 NA
ATOM     14  C   UNL d   1      53.403  31.100  53.759  0.00  0.00     0.287 C 
ATOM     15  O   UNL d   1      53.973  31.006  54.350  0.00  0.00    -0.265 OA
BRANCH  14  16
ATOM     16  C   UNL d   1      53.087  30.436  53.386  0.00  0.00     0.087 A 
ATOM     17  S   UNL d   1      52.741  29.766  53.757  0.00  0.00    -0.082 SA
ATOM     18  C   UNL d   1      52.503  29.243  53.178  0.00  0.00     0.036 A 
ATOM     19  C   UNL d   1      52.691  29.566  52.447  0.00  0.00     0.008 A 
ATOM     20  C   UNL d   1      53.047  30.294  52.574  0.00  0.00     0.012 A 
ENDBRANCH  14  16
ENDBRANCH   5  13
BRANCH  12  21
ATOM     21  O   UNL d   1      52.834  34.943  54.614  0.00  0.00    -0.327 OA
ATOM     22  C   UNL d   1      52.787  35.727  54.871  0.00  0.00     0.181 C 
ENDBRANCH  12  21
ENDBRANCH   3   4
TORSDOF 4
ENDMDL
MODEL 4
REMARK VINA RESULT:      -6.5      1.763      3.946
REMARK  4 active torsions:
REMARK  status: ('A' for Active; 'I' for Inactive)
REMARK    1  A    between atoms: N_2  and  C_1 
REMARK       I    between atoms: C_6  and  N_2 
REMARK    2  A    between atoms: C_16  and  N_3 
REMARK    3  A    between atoms: C_8  and  C_6 
REMARK    4  A    between atoms: O_19  and  C_12 
ROOT
ATOM      1  C   UNL d   1      52.763  31.896  52.878  0.00  0.00    -0.031 C 
ATOM      2  C   UNL d   1      52.389  31.151  52.938  0.00  0.00    -0.008 C 
ATOM      3  C   UNL d   1      53.134  32.633  52.817  0.00  0.00     0.133 C 
ENDROOT
BRANCH   3   4
ATOM      4  N   UNL d   1      53.064  33.189  53.442  0.00  0.00    -0.276 N 
ATOM      5  C   UNL d   1      52.403  33.660  53.620  0.00  0.00     0.183 A 
ATOM      6  S   UNL d   1      52.571  34.112  54.260  0.00  0.00    -0.048 SA
ATOM      7  C   UNL d   1      53.343  33.946  54.513  0.00  0.00     0.050 A 
ATOM      8  C   UNL d   1      53.793  34.234  55.122  0.00  0.00     0.008 A 
ATOM      9  C   UNL d   1      53.638  33.372  53.998  0.00  0.00     0.095 A 
ATOM     10  C   UNL d   1      54.564  33.957  55.243  0.00  0.00     0.003 A 
ATOM     11  C   UNL d   1      54.869  33.371  54.719  0.00  0.00     0.026 A 
ATOM     12  C   UNL d   1      54.407  33.093  54.115  0.00  0.00     0.111 A 
BRANCH   5  13
ATOM     13  N   UNL d   1      51.665  33.669  53.198  0.00  0.00    -0.183 NA
ATOM     14  C   UNL d   1      51.320  34.385  53.006  0.00  0.00     0.287 C 
ATOM     15  O   UNL d   1      51.678  35.100  53.217  0.00  0.00    -0.265 OA
BRANCH  14  16
ATOM     16  C   UNL d   1      50.604  34.393  52.596  0.00  0.00     0.087 A 
ATOM     17  S   UNL d   1      49.839  34.521  52.921  0.00  0.00    -0.082 SA
ATOM     18  C   UNL d   1      49.292  34.481  52.317  0.00  0.00     0.036 A 
ATOM     19  C   UNL d   1      49.693  34.330  51.616  0.00  0.00     0.008 A 
ATOM     20  C   UNL d   1      50.493  34.276  51.787  0.00  0.00     0.012 A 
ENDBRANCH  14  16
ENDBRANCH   5  13
BRANCH  12  21
ATOM     21  O   UNL d   1      54.722  32.509  53.599  0.00  0.00    -0.327 OA
ATOM     22  C   UNL d   1      55.526  32.528  53.406  0.00  0.00     0.181 C 
ENDBRANCH  12  21
ENDBRANCH   3   4
TORSDOF 4
ENDMDL
