MODEL 1
REMARK VINA RESULT:      -1.3      0.000      0.000
REMARK  1 active torsions:
REMARK  status: ('A' for Active; 'I' for Inactive)
REMARK    1  A    between atoms: C_2  and  C_1 
ROOT
ATOM      1  C   UNL d   1     -55.307-102.578 -36.836  0.00  0.00     0.169 A 
ATOM      2  N   UNL d   1     -55.804-102.825 -36.237  0.00  0.00    -0.142 NA
ATOM      3  N   UNL d   1     -55.528-102.521 -35.520  0.00  0.00    -0.146 NA
ATOM      4  C   UNL d   1     -54.711-102.114 -36.503  0.00  0.00     0.050 A 
ATOM      5  C   UNL d   1     -54.847-102.079 -35.691  0.00  0.00     0.124 A 
ENDROOT
BRANCH   1   6
ATOM      6  C   UNL d   1     -55.383-102.758 -37.639  0.00  0.00     0.231 C 
ATOM      7  O   UNL d   1     -56.132-102.872 -37.965  0.00  0.00    -0.643 OA
ATOM      8  O   UNL d   1     -54.714-102.824 -38.112  0.00  0.00    -0.643 OA
ENDBRANCH   1   6
TORSDOF 1
ENDMDL
MODEL 2
REMARK VINA RESULT:      -0.8      1.513      2.065
REMARK  1 active torsions:
REMARK  status: ('A' for Active; 'I' for Inactive)
REMARK    1  A    between atoms: C_2  and  C_1 
ROOT
ATOM      1  C   UNL d   1     -55.310-102.549 -37.135  0.00  0.00     0.169 A 
ATOM      2  N   UNL d   1     -55.881-102.880 -37.615  0.00  0.00    -0.142 NA
ATOM      3  N   UNL d   1     -55.651-102.790 -38.403  0.00  0.00    -0.146 NA
ATOM      4  C   UNL d   1     -54.712-102.246 -37.615  0.00  0.00     0.050 A 
ATOM      5  C   UNL d   1     -54.922-102.395 -38.398  0.00  0.00     0.124 A 
ENDROOT
BRANCH   1   6
ATOM      6  C   UNL d   1     -55.324-102.519 -36.309  0.00  0.00     0.231 C 
ATOM      7  O   UNL d   1     -54.721-102.128 -35.903  0.00  0.00    -0.643 OA
ATOM      8  O   UNL d   1     -55.935-102.878 -35.892  0.00  0.00    -0.643 OA
ENDBRANCH   1   6
TORSDOF 1
ENDMDL
