MODEL 1
REMARK VINA RESULT:      -1.2      0.000      0.000
REMARK  7 active torsions:
REMARK  status: ('A' for Active; 'I' for Inactive)
REMARK    1  A    between atoms: C_11  and  N_3 
REMARK    2  A    between atoms: C_10  and  C_4 
REMARK    3  A    between atoms: C_16  and  C_11 
REMARK    4  A    between atoms: N_13  and  C_17 
REMARK    5  A    between atoms: C_26  and  N_14 
REMARK    6  A    between atoms: C_17  and  C_16 
REMARK    7  A    between atoms: C_28  and  C_26 
ROOT
ATOM      1  C   UNL d   1      32.842  22.038 -22.707  0.00  0.00     0.137 A 
ATOM      2  N   UNL d   1      32.544  22.468 -22.057  0.00  0.00    -0.259 N 
ATOM      3  N   UNL d   1      32.976  21.268 -22.446  0.00  0.00    -0.287 N 
ATOM      4  C   UNL d   1      32.947  22.408 -23.431  0.00  0.00     0.054 A 
ATOM      5  C   UNL d   1      32.355  23.269 -22.148  0.00  0.00     0.266 A 
ATOM      6  C   UNL d   1      32.497  21.962 -21.408  0.00  0.00     0.084 A 
ATOM      7  C   UNL d   1      32.768  21.210 -21.651  0.00  0.00     0.082 A 
ATOM      8  C   UNL d   1      32.759  23.206 -23.524  0.00  0.00     0.009 A 
ATOM      9  C   UNL d   1      32.461  23.644 -22.884  0.00  0.00     0.061 A 
ATOM     10  O   UNL d   1      32.058  23.702 -21.507  0.00  0.00    -0.267 OA
ATOM     11  C   UNL d   1      32.249  22.072 -20.632  0.00  0.00     0.019 A 
ATOM     12  C   UNL d   1      32.865  23.579 -24.255  0.00  0.00     0.000 C 
ATOM     13  C   UNL d   1      32.779  20.597 -21.110  0.00  0.00     0.019 A 
ATOM     14  C   UNL d   1      32.267  21.448 -20.103  0.00  0.00     0.002 A 
ATOM     15  C   UNL d   1      32.535  20.703 -20.344  0.00  0.00     0.002 A 
ENDROOT
BRANCH   3  16
ATOM     16  C   UNL d   1      33.241  20.524 -22.678  0.00  0.00     0.125 C 
BRANCH  16  17
ATOM     17  C   UNL d   1      32.770  20.054 -23.166  0.00  0.00     0.231 C 
ATOM     18  O   UNL d   1      31.950  20.127 -23.149  0.00  0.00    -0.283 OA
BRANCH  17  19
ATOM     19  C   UNL d   1      33.120  19.508 -23.672  0.00  0.00     0.124 C 
BRANCH  19  20
ATOM     20  N   UNL d   1      32.766  18.778 -23.802  0.00  0.00    -0.297 N 
ATOM     21  C   UNL d   1      32.522  18.648 -24.585  0.00  0.00     0.100 A 
ATOM     22  C   UNL d   1      32.157  17.934 -24.792  0.00  0.00     0.100 A 
ATOM     23  N   UNL d   1      32.032  17.349 -24.222  0.00  0.00    -0.297 N 
ATOM     24  C   UNL d   1      32.274  17.477 -23.443  0.00  0.00     0.100 A 
ATOM     25  C   UNL d   1      32.640  18.191 -23.235  0.00  0.00     0.100 A 
BRANCH  23  26
ATOM     26  C   UNL d   1      31.665  16.634 -24.433  0.00  0.00     0.126 C 
BRANCH  26  27
ATOM     27  C   UNL d   1      30.873  16.500 -24.243  0.00  0.00     0.253 C 
ATOM     28  O   UNL d   1      30.543  15.766 -24.371  0.00  0.00    -0.281 OA
ENDBRANCH  26  27
ENDBRANCH  23  26
ENDBRANCH  19  20
ENDBRANCH  17  19
ENDBRANCH  16  17
ENDBRANCH   3  16
BRANCH   4  29
ATOM     29  C   UNL d   1      33.240  21.986 -24.070  0.00  0.00     0.125 C 
ATOM     30  N   UNL d   1      33.078  22.214 -24.843  0.00  0.00    -0.146 N 
ENDBRANCH   4  29
TORSDOF 7
ENDMDL
MODEL 2
REMARK VINA RESULT:      -0.6      0.789      2.315
REMARK  7 active torsions:
REMARK  status: ('A' for Active; 'I' for Inactive)
REMARK    1  A    between atoms: C_11  and  N_3 
REMARK    2  A    between atoms: C_10  and  C_4 
REMARK    3  A    between atoms: C_16  and  C_11 
REMARK    4  A    between atoms: N_13  and  C_17 
REMARK    5  A    between atoms: C_26  and  N_14 
REMARK    6  A    between atoms: C_17  and  C_16 
REMARK    7  A    between atoms: C_28  and  C_26 
ROOT
ATOM      1  C   UNL d   1      32.929  21.495 -21.985  0.00  0.00     0.137 A 
ATOM      2  N   UNL d   1      32.843  22.306 -22.164  0.00  0.00    -0.259 N 
ATOM      3  N   UNL d   1      33.083  21.106 -22.695  0.00  0.00    -0.287 N 
ATOM      4  C   UNL d   1      32.856  21.236 -21.211  0.00  0.00     0.054 A 
ATOM      5  C   UNL d   1      32.683  22.845 -21.556  0.00  0.00     0.266 A 
ATOM      6  C   UNL d   1      32.944  22.407 -22.976  0.00  0.00     0.084 A 
ATOM      7  C   UNL d   1      33.094  21.655 -23.309  0.00  0.00     0.082 A 
ATOM      8  C   UNL d   1      32.697  21.771 -20.604  0.00  0.00     0.009 A 
ATOM      9  C   UNL d   1      32.609  22.580 -20.770  0.00  0.00     0.061 A 
ATOM     10  O   UNL d   1      32.597  23.652 -21.727  0.00  0.00    -0.267 OA
ATOM     11  C   UNL d   1      32.921  23.068 -23.463  0.00  0.00     0.019 A 
ATOM     12  C   UNL d   1      32.623  21.508 -19.822  0.00  0.00     0.000 C 
ATOM     13  C   UNL d   1      33.216  21.595 -24.116  0.00  0.00     0.019 A 
ATOM     14  C   UNL d   1      33.045  22.990 -24.268  0.00  0.00     0.002 A 
ATOM     15  C   UNL d   1      33.194  22.246 -24.598  0.00  0.00     0.002 A 
ENDROOT
BRANCH   3  16
ATOM     16  C   UNL d   1      33.231  20.369 -23.031  0.00  0.00     0.125 C 
BRANCH  16  17
ATOM     17  C   UNL d   1      32.604  19.863 -23.203  0.00  0.00     0.231 C 
ATOM     18  O   UNL d   1      31.894  19.923 -22.790  0.00  0.00    -0.283 OA
BRANCH  17  19
ATOM     19  C   UNL d   1      32.686  19.293 -23.791  0.00  0.00     0.124 C 
BRANCH  19  20
ATOM     20  N   UNL d   1      32.417  18.526 -23.663  0.00  0.00    -0.297 N 
ATOM     21  C   UNL d   1      31.884  18.249 -24.236  0.00  0.00     0.100 A 
ATOM     22  C   UNL d   1      31.570  17.485 -24.175  0.00  0.00     0.100 A 
ATOM     23  N   UNL d   1      31.785  16.995 -23.545  0.00  0.00    -0.297 N 
ATOM     24  C   UNL d   1      32.316  17.271 -22.975  0.00  0.00     0.100 A 
ATOM     25  C   UNL d   1      32.630  18.034 -23.036  0.00  0.00     0.100 A 
BRANCH  23  26
ATOM     26  C   UNL d   1      31.468  16.230 -23.486  0.00  0.00     0.126 C 
BRANCH  26  27
ATOM     27  C   UNL d   1      30.703  16.116 -23.198  0.00  0.00     0.253 C 
ATOM     28  O   UNL d   1      30.539  15.473 -22.725  0.00  0.00    -0.281 OA
ENDBRANCH  26  27
ENDBRANCH  23  26
ENDBRANCH  19  20
ENDBRANCH  17  19
ENDBRANCH  16  17
ENDBRANCH   3  16
BRANCH   4  29
ATOM     29  C   UNL d   1      32.940  20.439 -21.034  0.00  0.00     0.125 C 
ATOM     30  N   UNL d   1      33.017  20.180 -20.258  0.00  0.00    -0.146 N 
ENDBRANCH   4  29
TORSDOF 7
ENDMDL
MODEL 3
REMARK VINA RESULT:      -0.3      1.895      5.390
REMARK  7 active torsions:
REMARK  status: ('A' for Active; 'I' for Inactive)
REMARK    1  A    between atoms: C_11  and  N_3 
REMARK    2  A    between atoms: C_10  and  C_4 
REMARK    3  A    between atoms: C_16  and  C_11 
REMARK    4  A    between atoms: N_13  and  C_17 
REMARK    5  A    between atoms: C_26  and  N_14 
REMARK    6  A    between atoms: C_17  and  C_16 
REMARK    7  A    between atoms: C_28  and  C_26 
ROOT
ATOM      1  C   UNL d   1      33.116  20.855 -22.441  0.00  0.00     0.137 A 
ATOM      2  N   UNL d   1      33.023  20.783 -23.267  0.00  0.00    -0.259 N 
ATOM      3  N   UNL d   1      33.158  21.661 -22.272  0.00  0.00    -0.287 N 
ATOM      4  C   UNL d   1      33.149  20.184 -21.971  0.00  0.00     0.054 A 
ATOM      5  C   UNL d   1      32.964  20.031 -23.609  0.00  0.00     0.266 A 
ATOM      6  C   UNL d   1      33.008  21.539 -23.596  0.00  0.00     0.084 A 
ATOM      7  C   UNL d   1      33.092  22.090 -22.973  0.00  0.00     0.082 A 
ATOM      8  C   UNL d   1      33.091  19.434 -22.310  0.00  0.00     0.009 A 
ATOM      9  C   UNL d   1      32.998  19.350 -23.131  0.00  0.00     0.061 A 
ATOM     10  O   UNL d   1      32.871  19.952 -24.429  0.00  0.00    -0.267 OA
ATOM     11  C   UNL d   1      32.930  21.810 -24.368  0.00  0.00     0.019 A 
ATOM     12  C   UNL d   1      33.124  18.757 -21.835  0.00  0.00     0.000 C 
ATOM     13  C   UNL d   1      33.096  22.889 -23.146  0.00  0.00     0.019 A 
ATOM     14  C   UNL d   1      32.936  22.613 -24.524  0.00  0.00     0.002 A 
ATOM     15  C   UNL d   1      33.019  23.159 -23.906  0.00  0.00     0.002 A 
ENDROOT
BRANCH   3  16
ATOM     16  C   UNL d   1      33.240  22.210 -21.664  0.00  0.00     0.125 C 
BRANCH  16  17
ATOM     17  C   UNL d   1      32.575  22.466 -21.250  0.00  0.00     0.231 C 
ATOM     18  O   UNL d   1      31.881  22.024 -21.262  0.00  0.00    -0.283 OA
BRANCH  17  19
ATOM     19  C   UNL d   1      32.604  23.168 -20.821  0.00  0.00     0.124 C 
BRANCH  19  20
ATOM     20  N   UNL d   1      32.686  23.150 -20.004  0.00  0.00    -0.297 N 
ATOM     21  C   UNL d   1      32.179  23.665 -19.596  0.00  0.00     0.100 A 
ATOM     22  C   UNL d   1      32.204  23.702 -18.769  0.00  0.00     0.100 A 
ATOM     23  N   UNL d   1      32.733  23.229 -18.346  0.00  0.00    -0.297 N 
ATOM     24  C   UNL d   1      33.239  22.716 -18.751  0.00  0.00     0.100 A 
ATOM     25  C   UNL d   1      33.213  22.678 -19.578  0.00  0.00     0.100 A 
BRANCH  23  26
ATOM     26  C   UNL d   1      32.756  23.268 -17.516  0.00  0.00     0.126 C 
BRANCH  26  27
ATOM     27  C   UNL d   1      32.286  22.764 -17.061  0.00  0.00     0.253 C 
ATOM     28  O   UNL d   1      32.522  22.558 -16.310  0.00  0.00    -0.281 OA
ENDBRANCH  26  27
ENDBRANCH  23  26
ENDBRANCH  19  20
ENDBRANCH  17  19
ENDBRANCH  16  17
ENDBRANCH   3  16
BRANCH   4  29
ATOM     29  C   UNL d   1      33.241  20.255 -21.160  0.00  0.00     0.125 C 
ATOM     30  N   UNL d   1      33.109  19.617 -20.658  0.00  0.00    -0.146 N 
ENDBRANCH   4  29
TORSDOF 7
ENDMDL
MODEL 4
REMARK VINA RESULT:       0.4      1.314      5.323
REMARK  7 active torsions:
REMARK  status: ('A' for Active; 'I' for Inactive)
REMARK    1  A    between atoms: C_11  and  N_3 
REMARK    2  A    between atoms: C_10  and  C_4 
REMARK    3  A    between atoms: C_16  and  C_11 
REMARK    4  A    between atoms: N_13  and  C_17 
REMARK    5  A    between atoms: C_26  and  N_14 
REMARK    6  A    between atoms: C_17  and  C_16 
REMARK    7  A    between atoms: C_28  and  C_26 
ROOT
ATOM      1  C   UNL d   1      31.215  17.536 -24.066  0.00  0.00     0.137 A 
ATOM      2  N   UNL d   1      31.044  16.742 -23.875  0.00  0.00    -0.259 N 
ATOM      3  N   UNL d   1      32.002  17.671 -23.862  0.00  0.00    -0.287 N 
ATOM      4  C   UNL d   1      30.634  18.014 -24.394  0.00  0.00     0.054 A 
ATOM      5  C   UNL d   1      30.287  16.440 -24.018  0.00  0.00     0.266 A 
ATOM      6  C   UNL d   1      31.724  16.398 -23.557  0.00  0.00     0.084 A 
ATOM      7  C   UNL d   1      32.324  16.980 -23.550  0.00  0.00     0.082 A 
ATOM      8  C   UNL d   1      29.879  17.714 -24.537  0.00  0.00     0.009 A 
ATOM      9  C   UNL d   1      29.698  16.925 -24.350  0.00  0.00     0.061 A 
ATOM     10  O   UNL d   1      30.111  15.652 -23.830  0.00  0.00    -0.267 OA
ATOM     11  C   UNL d   1      31.887  15.644 -23.275  0.00  0.00     0.019 A 
ATOM     12  C   UNL d   1      29.293  18.197 -24.868  0.00  0.00     0.000 C 
ATOM     13  C   UNL d   1      33.063  16.784 -23.259  0.00  0.00     0.019 A 
ATOM     14  C   UNL d   1      32.631  15.465 -22.988  0.00  0.00     0.002 A 
ATOM     15  C   UNL d   1      33.226  16.041 -22.980  0.00  0.00     0.002 A 
ENDROOT
BRANCH   3  16
ATOM     16  C   UNL d   1      32.599  18.238 -23.851  0.00  0.00     0.125 C 
BRANCH  16  17
ATOM     17  C   UNL d   1      32.635  18.783 -23.233  0.00  0.00     0.231 C 
ATOM     18  O   UNL d   1      32.515  18.540 -22.456  0.00  0.00    -0.283 OA
BRANCH  17  19
ATOM     19  C   UNL d   1      32.793  19.574 -23.393  0.00  0.00     0.124 C 
BRANCH  19  20
ATOM     20  N   UNL d   1      32.903  20.107 -22.776  0.00  0.00    -0.297 N 
ATOM     21  C   UNL d   1      32.951  20.901 -23.012  0.00  0.00     0.100 A 
ATOM     22  C   UNL d   1      33.061  21.495 -22.446  0.00  0.00     0.100 A 
ATOM     23  N   UNL d   1      33.123  21.302 -21.645  0.00  0.00    -0.297 N 
ATOM     24  C   UNL d   1      33.075  20.512 -21.409  0.00  0.00     0.100 A 
ATOM     25  C   UNL d   1      32.965  19.917 -21.975  0.00  0.00     0.100 A 
BRANCH  23  26
ATOM     26  C   UNL d   1      33.234  21.901 -21.080  0.00  0.00     0.126 C 
BRANCH  26  27
ATOM     27  C   UNL d   1      32.808  22.606 -21.130  0.00  0.00     0.253 C 
ATOM     28  O   UNL d   1      32.637  23.027 -20.454  0.00  0.00    -0.281 OA
ENDBRANCH  26  27
ENDBRANCH  23  26
ENDBRANCH  19  20
ENDBRANCH  17  19
ENDBRANCH  16  17
ENDBRANCH   3  16
BRANCH   4  29
ATOM     29  C   UNL d   1      30.801  18.794 -24.582  0.00  0.00     0.125 C 
ATOM     30  N   UNL d   1      30.323  19.221 -25.096  0.00  0.00    -0.146 N 
ENDBRANCH   4  29
TORSDOF 7
ENDMDL
