MODEL 1
REMARK VINA RESULT:      -2.5      0.000      0.000
REMARK  7 active torsions:
REMARK  status: ('A' for Active; 'I' for Inactive)
REMARK    1  A    between atoms: C_7  and  N_1 
REMARK    2  A    between atoms: S_15  and  C_3 
REMARK    3  A    between atoms: O_8  and  C_7 
REMARK    4  A    between atoms: C_10  and  O_8 
REMARK    5  A    between atoms: C_19  and  C_10 
REMARK    6  A    between atoms: C_13  and  O_14 
REMARK    7  A    between atoms: O_14  and  C_19 
ROOT
ATOM      1  O   UNL d   1      32.093  18.306 -23.737  0.00  0.00    -0.251 OA
ENDROOT
BRANCH   1   2
ATOM      2  C   UNL d   1      31.999  17.871 -24.431  0.00  0.00     0.215 C 
BRANCH   2   3
ATOM      3  N   UNL d   1      31.449  17.252 -24.464  0.00  0.00    -0.229 N 
ATOM      4  C   UNL d   1      30.648  17.421 -24.571  0.00  0.00     0.287 A 
ATOM      5  C   UNL d   1      30.098  16.807 -24.604  0.00  0.00     0.159 A 
ATOM      6  O   UNL d   1      30.398  18.204 -24.646  0.00  0.00    -0.265 OA
ATOM      7  C   UNL d   1      29.293  16.988 -24.713  0.00  0.00     0.028 C 
ATOM      8  N   UNL d   1      30.348  16.024 -24.530  0.00  0.00    -0.141 NA
ATOM      9  N   UNL d   1      31.149  15.856 -24.422  0.00  0.00    -0.123 NA
ATOM     10  C   UNL d   1      31.700  16.470 -24.389  0.00  0.00     0.200 A 
BRANCH  10  11
ATOM     11  S   UNL d   1      32.500  16.302 -24.282  0.00  0.00    -0.074 SA
ATOM     12  C   UNL d   1      32.796  15.558 -24.482  0.00  0.00     0.077 C 
ENDBRANCH  10  11
ENDBRANCH   2   3
ENDBRANCH   1   2
BRANCH   1  13
ATOM     13  C   UNL d   1      32.582  18.972 -23.731  0.00  0.00     0.327 C 
ATOM     14  O   UNL d   1      32.877  19.274 -24.441  0.00  0.00    -0.256 OA
BRANCH  13  15
ATOM     15  C   UNL d   1      32.775  19.335 -23.016  0.00  0.00     0.191 C 
BRANCH  15  16
ATOM     16  O   UNL d   1      33.163  20.059 -23.013  0.00  0.00    -0.299 OA
BRANCH  16  17
ATOM     17  C   UNL d   1      33.181  20.516 -22.327  0.00  0.00     0.111 A 
ATOM     18  C   UNL d   1      33.219  21.332 -22.375  0.00  0.00     0.081 A 
ATOM     19  C   UNL d   1      33.237  21.789 -21.688  0.00  0.00     0.025 A 
ATOM     20 CL   UNL d   1      33.239  21.701 -23.128  0.00  0.00    -0.080 Cl
ATOM     21  C   UNL d   1      33.217  21.431 -20.954  0.00  0.00     0.059 A 
ATOM     22  C   UNL d   1      33.179  20.608 -20.900  0.00  0.00     0.013 A 
ATOM     23 CL   UNL d   1      33.235  21.892 -20.270  0.00  0.00    -0.082 Cl
ATOM     24  C   UNL d   1      33.161  20.151 -21.586  0.00  0.00     0.026 A 
ENDBRANCH  16  17
ENDBRANCH  15  16
ENDBRANCH  13  15
ENDBRANCH   1  13
TORSDOF 7
ENDMDL
MODEL 2
REMARK VINA RESULT:       0.0      1.419      2.120
REMARK  7 active torsions:
REMARK  status: ('A' for Active; 'I' for Inactive)
REMARK    1  A    between atoms: C_7  and  N_1 
REMARK    2  A    between atoms: S_15  and  C_3 
REMARK    3  A    between atoms: O_8  and  C_7 
REMARK    4  A    between atoms: C_10  and  O_8 
REMARK    5  A    between atoms: C_19  and  C_10 
REMARK    6  A    between atoms: C_13  and  O_14 
REMARK    7  A    between atoms: O_14  and  C_19 
ROOT
ATOM      1  O   UNL d   1      32.776  19.353 -23.313  0.00  0.00    -0.251 OA
ENDROOT
BRANCH   1   2
ATOM      2  C   UNL d   1      32.476  18.905 -23.937  0.00  0.00     0.215 C 
BRANCH   2   3
ATOM      3  N   UNL d   1      32.347  18.093 -23.843  0.00  0.00    -0.229 N 
ATOM      4  C   UNL d   1      32.731  17.685 -23.236  0.00  0.00     0.287 A 
ATOM      5  C   UNL d   1      32.605  16.875 -23.140  0.00  0.00     0.159 A 
ATOM      6  O   UNL d   1      33.241  18.087 -22.727  0.00  0.00    -0.265 OA
ATOM      7  C   UNL d   1      32.997  16.473 -22.525  0.00  0.00     0.028 C 
ATOM      8  N   UNL d   1      32.095  16.473 -23.649  0.00  0.00    -0.141 NA
ATOM      9  N   UNL d   1      31.711  16.881 -24.255  0.00  0.00    -0.123 NA
ATOM     10  C   UNL d   1      31.837  17.691 -24.352  0.00  0.00     0.200 A 
BRANCH  10  11
ATOM     11  S   UNL d   1      31.454  18.100 -24.958  0.00  0.00    -0.074 SA
ATOM     12  C   UNL d   1      30.645  17.990 -25.081  0.00  0.00     0.077 C 
ENDBRANCH  10  11
ENDBRANCH   2   3
ENDBRANCH   1   2
BRANCH   1  13
ATOM     13  C   UNL d   1      33.086  20.105 -23.457  0.00  0.00     0.327 C 
ATOM     14  O   UNL d   1      33.241  20.347 -24.231  0.00  0.00    -0.256 OA
BRANCH  13  15
ATOM     15  C   UNL d   1      33.241  20.615 -22.826  0.00  0.00     0.191 C 
BRANCH  15  16
ATOM     16  O   UNL d   1      32.635  20.842 -22.322  0.00  0.00    -0.299 OA
BRANCH  16  17
ATOM     17  C   UNL d   1      32.714  21.519 -21.858  0.00  0.00     0.111 A 
ATOM     18  C   UNL d   1      32.472  21.516 -21.077  0.00  0.00     0.081 A 
ATOM     19  C   UNL d   1      32.552  22.193 -20.612  0.00  0.00     0.025 A 
ATOM     20 CL   UNL d   1      32.142  20.817 -20.750  0.00  0.00    -0.080 Cl
ATOM     21  C   UNL d   1      32.874  22.874 -20.929  0.00  0.00     0.059 A 
ATOM     22  C   UNL d   1      33.120  22.883 -21.717  0.00  0.00     0.013 A 
ATOM     23 CL   UNL d   1      32.951  23.549 -20.461  0.00  0.00    -0.082 Cl
ATOM     24  C   UNL d   1      33.040  22.206 -22.181  0.00  0.00     0.026 A 
ENDBRANCH  16  17
ENDBRANCH  15  16
ENDBRANCH  13  15
ENDBRANCH   1  13
TORSDOF 7
ENDMDL
