MODEL 1
REMARK VINA RESULT:      58.9      0.000      0.000
REMARK  5 active torsions:
REMARK  status: ('A' for Active; 'I' for Inactive)
REMARK    1  A    between atoms: N_4  and  C_1 
REMARK    2  A    between atoms: S_3  and  C_9 
REMARK       I    between atoms: C_6  and  N_4 
REMARK    3  A    between atoms: C_11  and  C_5 
REMARK    4  A    between atoms: C_10  and  C_6 
REMARK    5  A    between atoms: O_25  and  C_22 
ROOT
ATOM      1  C   UNL d   1      13.381  16.735  -5.785  0.00  0.00     0.197 A 
ATOM      2  N   UNL d   1      13.884  17.373  -5.632  0.00  0.00    -0.221 NA
ATOM      3  C   UNL d   1      13.584  18.035  -6.006  0.00  0.00     0.090 A 
ATOM      4  S   UNL d   1      12.774  17.014  -6.255  0.00  0.00    -0.046 SA
ATOM      5  C   UNL d   1      12.907  17.823  -6.389  0.00  0.00     0.058 A 
ENDROOT
BRANCH   1   6
ATOM      6  N   UNL d   1      13.400  15.943  -5.558  0.00  0.00    -0.183 NA
ATOM      7  C   UNL d   1      13.327  15.740  -4.761  0.00  0.00     0.281 C 
ATOM      8  O   UNL d   1      13.236  16.329  -4.201  0.00  0.00    -0.265 OA
BRANCH   7   9
ATOM      9  C   UNL d   1      13.346  14.948  -4.533  0.00  0.00     0.058 A 
ATOM     10  C   UNL d   1      12.769  14.428  -4.800  0.00  0.00     0.005 A 
ATOM     11  C   UNL d   1      12.788  13.637  -4.572  0.00  0.00     0.011 A 
ATOM     12  C   UNL d   1      13.384  13.364  -4.078  0.00  0.00     0.084 A 
ATOM     13  C   UNL d   1      13.964  13.884  -3.810  0.00  0.00     0.011 A 
ATOM     14  C   UNL d   1      13.945  14.676  -4.037  0.00  0.00     0.005 A 
BRANCH  12  15
ATOM     15  S   UNL d   1      13.403  12.571  -3.851  0.00  0.00     0.191 S 
ATOM     16  O   UNL d   1      13.077  12.355  -4.576  0.00  0.00    -0.222 OA
ATOM     17  O   UNL d   1      13.729  12.787  -3.125  0.00  0.00    -0.222 OA
ATOM     18  C   UNL d   1      13.422  11.779  -3.623  0.00  0.00     0.145 C 
ENDBRANCH  12  15
ENDBRANCH   7   9
ENDBRANCH   1   6
BRANCH   3  19
ATOM     19  C   UNL d   1      13.944  18.777  -5.974  0.00  0.00     0.018 A 
ATOM     20  C   UNL d   1      14.733  18.834  -5.705  0.00  0.00     0.004 A 
ATOM     21  C   UNL d   1      15.093  19.577  -5.673  0.00  0.00     0.024 A 
ATOM     22  C   UNL d   1      14.682  20.264  -5.904  0.00  0.00     0.094 A 
ATOM     23  C   UNL d   1      13.903  20.200  -6.168  0.00  0.00     0.024 A 
ATOM     24  C   UNL d   1      13.539  19.452  -6.202  0.00  0.00     0.004 A 
BRANCH  22  25
ATOM     25  O   UNL d   1      15.051  21.013  -5.869  0.00  0.00    -0.328 OA
ATOM     26  C   UNL d   1      15.453  21.249  -5.180  0.00  0.00     0.181 C 
ENDBRANCH  22  25
ENDBRANCH   3  19
TORSDOF 5
ENDMDL
MODEL 2
REMARK VINA RESULT:      59.8      1.331      6.076
REMARK  5 active torsions:
REMARK  status: ('A' for Active; 'I' for Inactive)
REMARK    1  A    between atoms: N_4  and  C_1 
REMARK    2  A    between atoms: S_3  and  C_9 
REMARK       I    between atoms: C_6  and  N_4 
REMARK    3  A    between atoms: C_11  and  C_5 
REMARK    4  A    between atoms: C_10  and  C_6 
REMARK    5  A    between atoms: O_25  and  C_22 
ROOT
ATOM      1  C   UNL d   1      13.413  15.397  -4.928  0.00  0.00     0.197 A 
ATOM      2  N   UNL d   1      13.544  14.973  -4.231  0.00  0.00    -0.221 NA
ATOM      3  C   UNL d   1      13.475  14.175  -4.397  0.00  0.00     0.090 A 
ATOM      4  S   UNL d   1      13.263  14.852  -5.517  0.00  0.00    -0.046 SA
ATOM      5  C   UNL d   1      13.303  14.094  -5.180  0.00  0.00     0.058 A 
ENDROOT
BRANCH   1   6
ATOM      6  N   UNL d   1      13.410  16.204  -5.098  0.00  0.00    -0.183 NA
ATOM      7  C   UNL d   1      14.098  16.571  -5.369  0.00  0.00     0.281 C 
ATOM      8  O   UNL d   1      14.779  16.130  -5.468  0.00  0.00    -0.265 OA
BRANCH   7   9
ATOM      9  C   UNL d   1      14.096  17.377  -5.538  0.00  0.00     0.058 A 
ATOM     10  C   UNL d   1      14.465  17.907  -5.031  0.00  0.00     0.005 A 
ATOM     11  C   UNL d   1      14.463  18.713  -5.200  0.00  0.00     0.011 A 
ATOM     12  C   UNL d   1      14.091  18.991  -5.877  0.00  0.00     0.084 A 
ATOM     13  C   UNL d   1      13.720  18.461  -6.388  0.00  0.00     0.011 A 
ATOM     14  C   UNL d   1      13.722  17.655  -6.219  0.00  0.00     0.005 A 
BRANCH  12  15
ATOM     15  S   UNL d   1      14.089  19.798  -6.047  0.00  0.00     0.191 S 
ATOM     16  O   UNL d   1      13.273  19.819  -5.937  0.00  0.00    -0.222 OA
ATOM     17  O   UNL d   1      14.906  19.777  -6.157  0.00  0.00    -0.222 OA
ATOM     18  C   UNL d   1      14.087  20.605  -6.216  0.00  0.00     0.145 C 
ENDBRANCH  12  15
ENDBRANCH   7   9
ENDBRANCH   1   6
BRANCH   3  19
ATOM     19  C   UNL d   1      13.572  13.583  -3.829  0.00  0.00     0.018 A 
ATOM     20  C   UNL d   1      13.203  12.842  -3.948  0.00  0.00     0.004 A 
ATOM     21  C   UNL d   1      13.301  12.251  -3.380  0.00  0.00     0.024 A 
ATOM     22  C   UNL d   1      13.758  12.382  -2.696  0.00  0.00     0.094 A 
ATOM     23  C   UNL d   1      14.118  13.116  -2.586  0.00  0.00     0.024 A 
ATOM     24  C   UNL d   1      14.022  13.714  -3.157  0.00  0.00     0.004 A 
BRANCH  22  25
ATOM     25  O   UNL d   1      13.852  11.780  -2.125  0.00  0.00    -0.328 OA
ATOM     26  C   UNL d   1      14.147  11.963  -1.369  0.00  0.00     0.181 C 
ENDBRANCH  22  25
ENDBRANCH   3  19
TORSDOF 5
ENDMDL
