MODEL 1
REMARK VINA RESULT:     129.0      0.000      0.000
REMARK  4 active torsions:
REMARK  status: ('A' for Active; 'I' for Inactive)
REMARK    1  A    between atoms: N_2  and  S_1 
REMARK    2  A    between atoms: C_8  and  S_1 
REMARK       I    between atoms: C_3  and  N_2 
REMARK    3  A    between atoms: C_11  and  N_2 
REMARK       I    between atoms: N_4  and  C_3 
REMARK       I    between atoms: C_5  and  N_4 
REMARK       I    between atoms: N_9  and  C_5 
REMARK    4  A    between atoms: C_13  and  N_9 
ROOT
ATOM      1  N   UNL d   1     -56.974 -99.497 -44.080  0.00  0.00    -0.182 N 
ATOM      2  C   UNL d   1     -57.747 -99.349 -43.863  0.00  0.00     0.367 C 
ATOM      3  N   UNL d   1     -58.299 -99.182 -44.457  0.00  0.00    -0.135 NA
ATOM      4  C   UNL d   1     -59.088 -99.028 -44.270  0.00  0.00     0.373 C 
ATOM      5  N   UNL d   1     -59.637 -98.862 -44.862  0.00  0.00    -0.191 NA
ATOM      6  O   UNL d   1     -57.987 -99.361 -43.084  0.00  0.00    -0.243 OA
ATOM      7  O   UNL d   1     -59.312 -99.048 -43.450  0.00  0.00    -0.242 OA
ENDROOT
BRANCH   1   8
ATOM      8  S   UNL d   1     -56.399 -99.668 -43.491  0.00  0.00     0.275 S 
ATOM      9  O   UNL d   1     -56.052-100.215 -43.995  0.00  0.00    -0.199 OA
ATOM     10  O   UNL d   1     -56.762 -99.117 -43.004  0.00  0.00    -0.199 OA
BRANCH   8  11
ATOM     11  C   UNL d   1     -55.845 -99.824 -42.906  0.00  0.00     0.104 A 
ATOM     12  C   UNL d   1     -55.334 -99.237 -42.645  0.00  0.00     0.013 A 
ATOM     13  C   UNL d   1     -54.770 -99.392 -42.051  0.00  0.00     0.001 A 
ATOM     14  C   UNL d   1     -54.717-100.134 -41.720  0.00  0.00     0.000 A 
ATOM     15  C   UNL d   1     -55.233-100.735 -41.980  0.00  0.00     0.001 A 
ATOM     16  C   UNL d   1     -55.796-100.580 -42.574  0.00  0.00     0.013 A 
ENDBRANCH   8  11
ENDBRANCH   1   8
BRANCH   1  17
ATOM     17  C   UNL d   1     -56.775 -99.475 -44.871  0.00  0.00     0.079 A 
ATOM     18  C   UNL d   1     -56.355 -98.846 -45.168  0.00  0.00     0.018 A 
ATOM     19  C   UNL d   1     -56.152 -98.821 -45.972  0.00  0.00     0.002 A 
ATOM     20  C   UNL d   1     -56.376 -99.435 -46.474  0.00  0.00     0.000 A 
ATOM     21  C   UNL d   1     -56.801-100.069 -46.167  0.00  0.00     0.002 A 
ATOM     22  C   UNL d   1     -56.998-100.086 -45.371  0.00  0.00     0.018 A 
ENDBRANCH   1  17
BRANCH   5  23
ATOM     23  C   UNL d   1     -59.396 -98.849 -45.653  0.00  0.00     0.086 A 
ATOM     24  C   UNL d   1     -59.955 -98.908 -46.274  0.00  0.00     0.019 A 
ATOM     25  C   UNL d   1     -59.711 -98.894 -47.052  0.00  0.00     0.002 A 
ATOM     26  C   UNL d   1     -58.902 -98.822 -47.237  0.00  0.00     0.000 A 
ATOM     27  C   UNL d   1     -58.332 -98.762 -46.622  0.00  0.00     0.002 A 
ATOM     28  C   UNL d   1     -58.709 -98.811 -47.871  0.00  0.00     0.000 C 
ATOM     29  C   UNL d   1     -58.600 -98.778 -45.834  0.00  0.00     0.019 A 
ENDBRANCH   5  23
TORSDOF 4
ENDMDL
