MODEL 1
REMARK VINA RESULT:      -7.7      0.000      0.000
REMARK  6 active torsions:
REMARK  status: ('A' for Active; 'I' for Inactive)
REMARK    1  A    between atoms: C_2  and  C_1 
REMARK    2  A    between atoms: C_3  and  C_1 
REMARK    3  A    between atoms: N_4  and  C_1 
REMARK       I    between atoms: N_9  and  C_2 
REMARK    4  A    between atoms: C_7  and  C_3 
REMARK       I    between atoms: C_8  and  N_4 
REMARK    5  A    between atoms: C_14  and  C_5 
REMARK    6  A    between atoms: C_15  and  C_8 
ROOT
ATOM      1  C   UNL d   1      53.274  32.650  53.431  0.00  0.00     0.143 C 
ENDROOT
BRANCH   1   2
ATOM      2  C   UNL d   1      54.042  32.954  53.498  0.00  0.00     0.283 C 
ATOM      3  N   UNL d   1      54.357  33.137  54.238  0.00  0.00    -0.267 N 
ATOM      4  C   UNL d   1      53.903  33.016  54.920  0.00  0.00     0.110 A 
ATOM      5  C   UNL d   1      55.118  33.437  54.305  0.00  0.00     0.110 A 
ATOM      6  C   UNL d   1      54.220  33.200  55.663  0.00  0.00     0.142 A 
ATOM      7  O   UNL d   1      54.984  33.500  55.719  0.00  0.00    -0.300 OA
ATOM      8  C   UNL d   1      55.433  33.619  55.035  0.00  0.00     0.142 A 
ATOM      9  O   UNL d   1      54.494  33.073  52.812  0.00  0.00    -0.265 OA
ENDBRANCH   1   2
BRANCH   1  10
ATOM     10  C   UNL d   1      53.253  32.074  52.840  0.00  0.00     0.049 C 
BRANCH  10  11
ATOM     11  C   UNL d   1      53.130  31.281  53.038  0.00  0.00     0.102 A 
ATOM     12  O   UNL d   1      53.361  30.918  53.730  0.00  0.00    -0.307 OA
ATOM     13  C   UNL d   1      53.121  30.123  53.684  0.00  0.00     0.100 A 
ATOM     14  C   UNL d   1      52.746  30.011  52.963  0.00  0.00     0.027 A 
ATOM     15  C   UNL d   1      52.741  30.788  52.508  0.00  0.00     0.027 A 
BRANCH  13  16
ATOM     16  C   UNL d   1      53.246  29.558  54.270  0.00  0.00     0.023 A 
ATOM     17  C   UNL d   1      53.619  28.847  54.068  0.00  0.00     0.002 A 
ATOM     18  C   UNL d   1      53.751  28.271  54.646  0.00  0.00     0.000 A 
ATOM     19  C   UNL d   1      53.508  28.408  55.425  0.00  0.00     0.000 A 
ATOM     20  C   UNL d   1      53.135  29.118  55.627  0.00  0.00     0.000 A 
ATOM     21  C   UNL d   1      53.005  29.689  55.053  0.00  0.00     0.002 A 
ENDBRANCH  13  16
ENDBRANCH  10  11
ENDBRANCH   1  10
BRANCH   1  22
ATOM     22  N   UNL d   1      52.587  32.837  53.845  0.00  0.00    -0.203 NA
ATOM     23  C   UNL d   1      51.899  33.281  53.763  0.00  0.00     0.279 C 
ATOM     24  O   UNL d   1      51.345  33.285  54.381  0.00  0.00    -0.265 OA
BRANCH  23  25
ATOM     25  C   UNL d   1      51.756  33.716  53.082  0.00  0.00     0.058 A 
ATOM     26  C   UNL d   1      51.243  33.416  52.510  0.00  0.00     0.005 A 
ATOM     27  C   UNL d   1      51.098  33.852  51.826  0.00  0.00     0.000 A 
ATOM     28  C   UNL d   1      51.462  34.583  51.711  0.00  0.00     0.000 A 
ATOM     29  C   UNL d   1      51.976  34.879  52.290  0.00  0.00     0.000 A 
ATOM     30  C   UNL d   1      52.120  34.442  52.974  0.00  0.00     0.005 A 
ENDBRANCH  23  25
ENDBRANCH   1  22
TORSDOF 6
ENDMDL
MODEL 2
REMARK VINA RESULT:      -7.0      0.886      2.788
REMARK  6 active torsions:
REMARK  status: ('A' for Active; 'I' for Inactive)
REMARK    1  A    between atoms: C_2  and  C_1 
REMARK    2  A    between atoms: C_3  and  C_1 
REMARK    3  A    between atoms: N_4  and  C_1 
REMARK       I    between atoms: N_9  and  C_2 
REMARK    4  A    between atoms: C_7  and  C_3 
REMARK       I    between atoms: C_8  and  N_4 
REMARK    5  A    between atoms: C_14  and  C_5 
REMARK    6  A    between atoms: C_15  and  C_8 
ROOT
ATOM      1  C   UNL d   1      53.074  32.922  53.446  0.00  0.00     0.143 C 
ENDROOT
BRANCH   1   2
ATOM      2  C   UNL d   1      52.762  33.397  52.842  0.00  0.00     0.283 C 
ATOM      3  N   UNL d   1      51.965  33.607  52.843  0.00  0.00    -0.267 N 
ATOM      4  C   UNL d   1      51.471  33.343  53.454  0.00  0.00     0.110 A 
ATOM      5  C   UNL d   1      51.656  34.077  52.246  0.00  0.00     0.110 A 
ATOM      6  C   UNL d   1      50.670  33.555  53.456  0.00  0.00     0.142 A 
ATOM      7  O   UNL d   1      50.370  34.026  52.851  0.00  0.00    -0.300 OA
ATOM      8  C   UNL d   1      50.867  34.287  52.245  0.00  0.00     0.142 A 
ATOM      9  O   UNL d   1      53.261  33.659  52.232  0.00  0.00    -0.265 OA
ENDBRANCH   1   2
BRANCH   1  10
ATOM     10  C   UNL d   1      53.542  32.327  53.117  0.00  0.00     0.049 C 
BRANCH  10  11
ATOM     11  C   UNL d   1      53.329  31.533  53.211  0.00  0.00     0.102 A 
ATOM     12  O   UNL d   1      53.547  31.047  53.827  0.00  0.00    -0.307 OA
ATOM     13  C   UNL d   1      53.206  30.302  53.687  0.00  0.00     0.100 A 
ATOM     14  C   UNL d   1      52.783  30.343  52.985  0.00  0.00     0.027 A 
ATOM     15  C   UNL d   1      52.854  31.173  52.644  0.00  0.00     0.027 A 
BRANCH  13  16
ATOM     16  C   UNL d   1      53.288  29.646  54.178  0.00  0.00     0.023 A 
ATOM     17  C   UNL d   1      53.000  29.687  54.953  0.00  0.00     0.002 A 
ATOM     18  C   UNL d   1      53.075  29.035  55.456  0.00  0.00     0.000 A 
ATOM     19  C   UNL d   1      53.439  28.344  55.182  0.00  0.00     0.000 A 
ATOM     20  C   UNL d   1      53.727  28.303  54.407  0.00  0.00     0.000 A 
ATOM     21  C   UNL d   1      53.651  28.950  53.910  0.00  0.00     0.002 A 
ENDBRANCH  13  16
ENDBRANCH  10  11
ENDBRANCH   1  10
BRANCH   1  22
ATOM     22  N   UNL d   1      52.982  32.968  54.263  0.00  0.00    -0.203 NA
ATOM     23  C   UNL d   1      53.367  33.265  54.927  0.00  0.00     0.279 C 
ATOM     24  O   UNL d   1      53.022  33.159  55.674  0.00  0.00    -0.265 OA
BRANCH  23  25
ATOM     25  C   UNL d   1      54.081  33.662  54.859  0.00  0.00     0.058 A 
ATOM     26  C   UNL d   1      54.787  33.241  54.926  0.00  0.00     0.005 A 
ATOM     27  C   UNL d   1      55.506  33.639  54.859  0.00  0.00     0.000 A 
ATOM     28  C   UNL d   1      55.522  34.452  54.725  0.00  0.00     0.000 A 
ATOM     29  C   UNL d   1      54.809  34.870  54.659  0.00  0.00     0.000 A 
ATOM     30  C   UNL d   1      54.091  34.471  54.727  0.00  0.00     0.005 A 
ENDBRANCH  23  25
ENDBRANCH   1  22
TORSDOF 6
ENDMDL
MODEL 3
REMARK VINA RESULT:      -6.6      1.041      4.314
REMARK  6 active torsions:
REMARK  status: ('A' for Active; 'I' for Inactive)
REMARK    1  A    between atoms: C_2  and  C_1 
REMARK    2  A    between atoms: C_3  and  C_1 
REMARK    3  A    between atoms: N_4  and  C_1 
REMARK       I    between atoms: N_9  and  C_2 
REMARK    4  A    between atoms: C_7  and  C_3 
REMARK       I    between atoms: C_8  and  N_4 
REMARK    5  A    between atoms: C_14  and  C_5 
REMARK    6  A    between atoms: C_15  and  C_8 
ROOT
ATOM      1  C   UNL d   1      53.213  32.588  54.001  0.00  0.00     0.143 C 
ENDROOT
BRANCH   1   2
ATOM      2  C   UNL d   1      53.700  32.770  54.647  0.00  0.00     0.283 C 
ATOM      3  N   UNL d   1      54.428  33.138  54.531  0.00  0.00    -0.267 N 
ATOM      4  C   UNL d   1      54.676  33.329  53.764  0.00  0.00     0.110 A 
ATOM      5  C   UNL d   1      54.911  33.319  55.169  0.00  0.00     0.110 A 
ATOM      6  C   UNL d   1      55.408  33.700  53.647  0.00  0.00     0.142 A 
ATOM      7  O   UNL d   1      55.884  33.876  54.294  0.00  0.00    -0.300 OA
ATOM      8  C   UNL d   1      55.632  33.684  55.058  0.00  0.00     0.142 A 
ATOM      9  O   UNL d   1      53.448  32.577  55.414  0.00  0.00    -0.265 OA
ENDBRANCH   1   2
BRANCH   1  10
ATOM     10  C   UNL d   1      52.432  32.792  54.176  0.00  0.00     0.049 C 
BRANCH  10  11
ATOM     11  C   UNL d   1      52.058  33.398  53.757  0.00  0.00     0.102 A 
ATOM     12  O   UNL d   1      51.409  33.316  53.271  0.00  0.00    -0.307 OA
ATOM     13  C   UNL d   1      51.228  34.070  52.970  0.00  0.00     0.100 A 
ATOM     14  C   UNL d   1      51.770  34.604  53.278  0.00  0.00     0.027 A 
ATOM     15  C   UNL d   1      52.344  34.167  53.816  0.00  0.00     0.027 A 
BRANCH  13  16
ATOM     16  C   UNL d   1      50.609  34.236  52.454  0.00  0.00     0.023 A 
ATOM     17  C   UNL d   1      49.899  34.529  52.762  0.00  0.00     0.002 A 
ATOM     18  C   UNL d   1      49.269  34.700  52.255  0.00  0.00     0.000 A 
ATOM     19  C   UNL d   1      49.351  34.577  51.440  0.00  0.00     0.000 A 
ATOM     20  C   UNL d   1      50.062  34.285  51.133  0.00  0.00     0.000 A 
ATOM     21  C   UNL d   1      50.685  34.116  51.637  0.00  0.00     0.002 A 
ENDBRANCH  13  16
ENDBRANCH  10  11
ENDBRANCH   1  10
BRANCH   1  22
ATOM     22  N   UNL d   1      53.395  32.257  53.269  0.00  0.00    -0.203 NA
ATOM     23  C   UNL d   1      53.408  31.526  52.891  0.00  0.00     0.279 C 
ATOM     24  O   UNL d   1      53.653  31.486  52.099  0.00  0.00    -0.265 OA
BRANCH  23  25
ATOM     25  C   UNL d   1      53.182  30.842  53.284  0.00  0.00     0.058 A 
ATOM     26  C   UNL d   1      53.750  30.401  53.689  0.00  0.00     0.005 A 
ATOM     27  C   UNL d   1      53.525  29.714  54.084  0.00  0.00     0.000 A 
ATOM     28  C   UNL d   1      52.738  29.467  54.077  0.00  0.00     0.000 A 
ATOM     29  C   UNL d   1      52.172  29.915  53.669  0.00  0.00     0.000 A 
ATOM     30  C   UNL d   1      52.399  30.601  53.274  0.00  0.00     0.005 A 
ENDBRANCH  23  25
ENDBRANCH   1  22
TORSDOF 6
ENDMDL
MODEL 4
REMARK VINA RESULT:      -5.6      1.831      4.798
REMARK  6 active torsions:
REMARK  status: ('A' for Active; 'I' for Inactive)
REMARK    1  A    between atoms: C_2  and  C_1 
REMARK    2  A    between atoms: C_3  and  C_1 
REMARK    3  A    between atoms: N_4  and  C_1 
REMARK       I    between atoms: N_9  and  C_2 
REMARK    4  A    between atoms: C_7  and  C_3 
REMARK       I    between atoms: C_8  and  N_4 
REMARK    5  A    between atoms: C_14  and  C_5 
REMARK    6  A    between atoms: C_15  and  C_8 
ROOT
ATOM      1  C   UNL d   1      52.286  33.534  53.494  0.00  0.00     0.143 C 
ENDROOT
BRANCH   1   2
ATOM      2  C   UNL d   1      52.262  33.967  54.201  0.00  0.00     0.283 C 
ATOM      3  N   UNL d   1      52.661  34.685  54.266  0.00  0.00    -0.267 N 
ATOM      4  C   UNL d   1      53.090  34.977  53.620  0.00  0.00     0.110 A 
ATOM      5  C   UNL d   1      52.637  35.114  54.965  0.00  0.00     0.110 A 
ATOM      6  C   UNL d   1      53.492  35.700  53.686  0.00  0.00     0.142 A 
ATOM      7  O   UNL d   1      53.461  36.122  54.391  0.00  0.00    -0.300 OA
ATOM      8  C   UNL d   1      53.031  35.826  55.033  0.00  0.00     0.142 A 
ATOM      9  O   UNL d   1      51.831  33.671  54.845  0.00  0.00    -0.265 OA
ENDBRANCH   1   2
BRANCH   1  10
ATOM     10  C   UNL d   1      51.531  33.256  53.313  0.00  0.00     0.049 C 
BRANCH  10  11
ATOM     11  C   UNL d   1      51.033  33.698  52.821  0.00  0.00     0.102 A 
ATOM     12  O   UNL d   1      50.329  34.045  53.039  0.00  0.00    -0.307 OA
ATOM     13  C   UNL d   1      50.025  34.429  52.367  0.00  0.00     0.100 A 
ATOM     14  C   UNL d   1      50.548  34.310  51.746  0.00  0.00     0.027 A 
ATOM     15  C   UNL d   1      51.242  33.815  52.035  0.00  0.00     0.027 A 
BRANCH  13  16
ATOM     16  C   UNL d   1      49.318  34.851  52.344  0.00  0.00     0.023 A 
ATOM     17  C   UNL d   1      48.844  34.802  51.668  0.00  0.00     0.002 A 
ATOM     18  C   UNL d   1      48.132  35.220  51.632  0.00  0.00     0.000 A 
ATOM     19  C   UNL d   1      47.897  35.688  52.273  0.00  0.00     0.000 A 
ATOM     20  C   UNL d   1      48.371  35.737  52.950  0.00  0.00     0.000 A 
ATOM     21  C   UNL d   1      49.077  35.321  52.984  0.00  0.00     0.002 A 
ENDBRANCH  13  16
ENDBRANCH  10  11
ENDBRANCH   1  10
BRANCH   1  22
ATOM     22  N   UNL d   1      52.918  33.361  52.994  0.00  0.00    -0.203 NA
ATOM     23  C   UNL d   1      53.428  32.742  52.810  0.00  0.00     0.279 C 
ATOM     24  O   UNL d   1      54.007  32.857  52.227  0.00  0.00    -0.265 OA
BRANCH  23  25
ATOM     25  C   UNL d   1      53.370  32.019  53.192  0.00  0.00     0.058 A 
ATOM     26  C   UNL d   1      52.891  31.428  52.873  0.00  0.00     0.005 A 
ATOM     27  C   UNL d   1      52.833  30.701  53.257  0.00  0.00     0.000 A 
ATOM     28  C   UNL d   1      53.249  30.562  53.955  0.00  0.00     0.000 A 
ATOM     29  C   UNL d   1      53.729  31.160  54.271  0.00  0.00     0.000 A 
ATOM     30  C   UNL d   1      53.787  31.887  53.886  0.00  0.00     0.005 A 
ENDBRANCH  23  25
ENDBRANCH   1  22
TORSDOF 6
ENDMDL
MODEL 5
REMARK VINA RESULT:      -5.2      1.484      4.521
REMARK  6 active torsions:
REMARK  status: ('A' for Active; 'I' for Inactive)
REMARK    1  A    between atoms: C_2  and  C_1 
REMARK    2  A    between atoms: C_3  and  C_1 
REMARK    3  A    between atoms: N_4  and  C_1 
REMARK       I    between atoms: N_9  and  C_2 
REMARK    4  A    between atoms: C_7  and  C_3 
REMARK       I    between atoms: C_8  and  N_4 
REMARK    5  A    between atoms: C_14  and  C_5 
REMARK    6  A    between atoms: C_15  and  C_8 
ROOT
ATOM      1  C   UNL d   1      52.968  33.078  53.342  0.00  0.00     0.143 C 
ENDROOT
BRANCH   1   2
ATOM      2  C   UNL d   1      53.257  32.380  53.001  0.00  0.00     0.283 C 
ATOM      3  N   UNL d   1      52.845  31.671  53.084  0.00  0.00    -0.267 N 
ATOM      4  C   UNL d   1      52.136  31.656  53.513  0.00  0.00     0.110 A 
ATOM      5  C   UNL d   1      53.130  30.980  52.747  0.00  0.00     0.110 A 
ATOM      6  C   UNL d   1      51.721  30.942  53.596  0.00  0.00     0.142 A 
ATOM      7  O   UNL d   1      52.017  30.255  53.254  0.00  0.00    -0.300 OA
ATOM      8  C   UNL d   1      52.725  30.277  52.827  0.00  0.00     0.142 A 
ATOM      9  O   UNL d   1      53.967  32.401  52.573  0.00  0.00    -0.265 OA
ENDBRANCH   1   2
BRANCH   1  10
ATOM     10  C   UNL d   1      52.964  33.682  52.779  0.00  0.00     0.049 C 
BRANCH  10  11
ATOM     11  C   UNL d   1      52.248  33.952  52.465  0.00  0.00     0.102 A 
ATOM     12  O   UNL d   1      51.576  34.133  52.888  0.00  0.00    -0.307 OA
ATOM     13  C   UNL d   1      50.999  34.380  52.343  0.00  0.00     0.100 A 
ATOM     14  C   UNL d   1      51.328  34.347  51.592  0.00  0.00     0.027 A 
ATOM     15  C   UNL d   1      52.179  34.058  51.653  0.00  0.00     0.027 A 
BRANCH  13  16
ATOM     16  C   UNL d   1      50.235  34.614  52.538  0.00  0.00     0.023 A 
ATOM     17  C   UNL d   1      49.624  34.482  51.996  0.00  0.00     0.002 A 
ATOM     18  C   UNL d   1      48.852  34.713  52.179  0.00  0.00     0.000 A 
ATOM     19  C   UNL d   1      48.693  35.075  52.907  0.00  0.00     0.000 A 
ATOM     20  C   UNL d   1      49.303  35.207  53.449  0.00  0.00     0.000 A 
ATOM     21  C   UNL d   1      50.069  34.978  53.266  0.00  0.00     0.002 A 
ENDBRANCH  13  16
ENDBRANCH  10  11
ENDBRANCH   1  10
BRANCH   1  22
ATOM     22  N   UNL d   1      52.706  33.231  54.108  0.00  0.00    -0.203 NA
ATOM     23  C   UNL d   1      52.991  33.501  54.832  0.00  0.00     0.279 C 
ATOM     24  O   UNL d   1      52.469  33.557  55.475  0.00  0.00    -0.265 OA
BRANCH  23  25
ATOM     25  C   UNL d   1      53.777  33.715  54.924  0.00  0.00     0.058 A 
ATOM     26  C   UNL d   1      54.320  33.157  55.198  0.00  0.00     0.005 A 
ATOM     27  C   UNL d   1      55.110  33.371  55.291  0.00  0.00     0.000 A 
ATOM     28  C   UNL d   1      55.360  34.136  55.111  0.00  0.00     0.000 A 
ATOM     29  C   UNL d   1      54.810  34.692  54.836  0.00  0.00     0.000 A 
ATOM     30  C   UNL d   1      54.020  34.477  54.744  0.00  0.00     0.005 A 
ENDBRANCH  23  25
ENDBRANCH   1  22
TORSDOF 6
ENDMDL
