MODEL 1
REMARK VINA RESULT:      14.5      0.000      0.000
REMARK  2 active torsions:
REMARK  status: ('A' for Active; 'I' for Inactive)
REMARK    1  A    between atoms: S_2  and  C_1 
REMARK    2  A    between atoms: N_3  and  S_2 
ROOT
ATOM      1  C   UNL d   1      14.126  12.459  -1.707  0.00  0.00     0.125 A 
ATOM      2  C   UNL d   1      14.675  12.655  -1.231  0.00  0.00    -0.009 A 
ATOM      3  C   UNL d   1      14.868  12.886  -1.494  0.00  0.00    -0.009 A 
ATOM      4  C   UNL d   1      13.603  11.990  -1.412  0.00  0.00     0.031 A 
ATOM      5  C   UNL d   1      15.042  12.744  -0.801  0.00  0.00    -0.007 A 
ATOM      6  C   UNL d   1      14.887  12.465  -0.346  0.00  0.00    -0.007 A 
ATOM      7  C   UNL d   1      13.793  11.811  -0.592  0.00  0.00     0.045 A 
ATOM      8  C   UNL d   1      15.640  12.893  -0.114  0.00  0.00    -0.001 A 
ATOM      9  C   UNL d   1      14.379  12.010  -0.060  0.00  0.00    -0.022 A 
ATOM     10  C   UNL d   1      14.373  12.133  -0.397  0.00  0.00    -0.022 A 
ENDROOT
BRANCH   1  11
ATOM     11  S   UNL d   1      13.395  12.248  -2.471  0.00  0.00     0.141 S 
ATOM     12  O   UNL d   1      12.798  11.780  -2.066  0.00  0.00    -0.233 OA
BRANCH  11  13
ATOM     13  N   UNL d   1      13.303  12.436  -3.314  0.00  0.00    -0.254 N 
ATOM     14  C   UNL d   1      13.319  11.788  -3.818  0.00  0.00     0.089 A 
ATOM     15  C   UNL d   1      13.247  11.780  -4.643  0.00  0.00     0.020 A 
ATOM     16  C   UNL d   1      13.144  12.410  -5.150  0.00  0.00     0.002 A 
ATOM     17  C   UNL d   1      13.085  13.213  -4.975  0.00  0.00     0.002 A 
ATOM     18  C   UNL d   1      13.114  13.591  -4.236  0.00  0.00     0.020 A 
ATOM     19  C   UNL d   1      13.212  13.240  -3.500  0.00  0.00     0.089 A 
ENDBRANCH  11  13
ENDBRANCH   1  11
TORSDOF 2
ENDMDL
