MODEL 1
REMARK VINA RESULT:      37.1      0.000      0.000
REMARK  4 active torsions:
REMARK  status: ('A' for Active; 'I' for Inactive)
REMARK       I    between atoms: C_2  and  N_1 
REMARK       I    between atoms: N_8  and  C_2 
REMARK    1  A    between atoms: C_12  and  N_8 
REMARK    2  A    between atoms: C_9  and  C_12 
REMARK    3  A    between atoms: O_13  and  C_9 
REMARK    4  A    between atoms: C_18  and  O_13 
ROOT
ATOM      1  N   UNL d   1      14.228  13.403  -2.098  0.00  0.00    -0.258 N 
ATOM      2  C   UNL d   1      14.392  14.209  -2.161  0.00  0.00     0.354 C 
ATOM      3  S   UNL d   1      13.898  11.779  -1.973  0.00  0.00    -0.084 SA
ATOM      4  C   UNL d   1      13.881  13.001  -2.729  0.00  0.00     0.074 A 
ATOM      5  C   UNL d   1      14.413  13.000  -1.403  0.00  0.00     0.074 A 
ATOM      6  C   UNL d   1      13.714  12.190  -2.670  0.00  0.00     0.046 A 
ATOM      7  C   UNL d   1      14.247  12.184  -1.340  0.00  0.00     0.046 A 
ATOM      8  N   UNL d   1      14.743  14.611  -1.522  0.00  0.00    -0.185 NA
ATOM      9  O   UNL d   1      14.208  14.611  -2.853  0.00  0.00    -0.244 OA
ATOM     10  C   UNL d   1      13.700  13.409  -3.416  0.00  0.00     0.018 A 
ATOM     11  C   UNL d   1      14.758  13.405  -0.781  0.00  0.00     0.018 A 
ATOM     12  C   UNL d   1      14.428  11.781  -0.655  0.00  0.00     0.008 A 
ATOM     13  C   UNL d   1      13.367  11.792  -3.302  0.00  0.00     0.008 A 
ATOM     14  C   UNL d   1      13.351  13.018  -4.057  0.00  0.00     0.002 A 
ATOM     15  C   UNL d   1      14.945  12.990  -0.073  0.00  0.00     0.002 A 
ATOM     16  C   UNL d   1      14.778  12.179  -0.015  0.00  0.00     0.001 A 
ATOM     17  C   UNL d   1      13.185  12.212  -3.999  0.00  0.00     0.001 A 
ENDROOT
BRANCH   8  18
ATOM     18  C   UNL d   1      14.912  15.441  -1.586  0.00  0.00     0.172 C 
BRANCH  18  19
ATOM     19  C   UNL d   1      14.960  15.890  -0.908  0.00  0.00     0.320 C 
ATOM     20  O   UNL d   1      15.042  15.517  -0.179  0.00  0.00    -0.257 OA
BRANCH  19  21
ATOM     21  O   UNL d   1      14.928  16.701  -0.950  0.00  0.00    -0.270 OA
BRANCH  21  22
ATOM     22  C   UNL d   1      15.563  17.129  -1.286  0.00  0.00     0.126 C 
ATOM     23  C   UNL d   1      15.764  17.865  -0.988  0.00  0.00     0.029 C 
ENDBRANCH  21  22
ENDBRANCH  19  21
ENDBRANCH  18  19
ENDBRANCH   8  18
TORSDOF 4
ENDMDL
MODEL 2
REMARK VINA RESULT:      39.9      1.435      2.895
REMARK  4 active torsions:
REMARK  status: ('A' for Active; 'I' for Inactive)
REMARK       I    between atoms: C_2  and  N_1 
REMARK       I    between atoms: N_8  and  C_2 
REMARK    1  A    between atoms: C_12  and  N_8 
REMARK    2  A    between atoms: C_9  and  C_12 
REMARK    3  A    between atoms: O_13  and  C_9 
REMARK    4  A    between atoms: C_18  and  O_13 
ROOT
ATOM      1  N   UNL d   1      14.091  13.396  -2.400  0.00  0.00    -0.258 N 
ATOM      2  C   UNL d   1      14.267  14.197  -2.475  0.00  0.00     0.354 C 
ATOM      3  S   UNL d   1      13.736  11.779  -2.248  0.00  0.00    -0.084 SA
ATOM      4  C   UNL d   1      14.297  12.989  -1.712  0.00  0.00     0.074 A 
ATOM      5  C   UNL d   1      13.708  13.000  -3.015  0.00  0.00     0.074 A 
ATOM      6  C   UNL d   1      14.121  12.181  -1.633  0.00  0.00     0.046 A 
ATOM      7  C   UNL d   1      13.530  12.188  -2.938  0.00  0.00     0.046 A 
ATOM      8  N   UNL d   1      14.058  14.604  -3.171  0.00  0.00    -0.185 NA
ATOM      9  O   UNL d   1      14.648  14.592  -1.863  0.00  0.00    -0.244 OA
ATOM     10  C   UNL d   1      14.677  13.389  -1.106  0.00  0.00     0.018 A 
ATOM     11  C   UNL d   1      13.507  13.409  -3.694  0.00  0.00     0.018 A 
ATOM     12  C   UNL d   1      13.152  11.793  -3.542  0.00  0.00     0.008 A 
ATOM     13  C   UNL d   1      14.328  11.779  -0.944  0.00  0.00     0.008 A 
ATOM     14  C   UNL d   1      14.889  12.994  -0.411  0.00  0.00     0.002 A 
ATOM     15  C   UNL d   1      13.116  13.002  -4.319  0.00  0.00     0.002 A 
ATOM     16  C   UNL d   1      12.941  12.195  -4.238  0.00  0.00     0.001 A 
ATOM     17  C   UNL d   1      14.715  12.191  -0.331  0.00  0.00     0.001 A 
ENDROOT
BRANCH   8  18
ATOM     18  C   UNL d   1      14.239  15.430  -3.249  0.00  0.00     0.172 C 
BRANCH  18  19
ATOM     19  C   UNL d   1      14.383  15.737  -3.989  0.00  0.00     0.320 C 
ATOM     20  O   UNL d   1      13.813  15.661  -4.578  0.00  0.00    -0.257 OA
BRANCH  19  21
ATOM     21  O   UNL d   1      15.084  16.116  -4.148  0.00  0.00    -0.270 OA
BRANCH  21  22
ATOM     22  C   UNL d   1      15.125  16.677  -4.766  0.00  0.00     0.126 C 
ATOM     23  C   UNL d   1      15.805  17.122  -4.872  0.00  0.00     0.029 C 
ENDBRANCH  21  22
ENDBRANCH  19  21
ENDBRANCH  18  19
ENDBRANCH   8  18
TORSDOF 4
ENDMDL
