MODEL 1
REMARK VINA RESULT:      -3.4      0.000      0.000
REMARK  4 active torsions:
REMARK  status: ('A' for Active; 'I' for Inactive)
REMARK       I    between atoms: N_2  and  C_1 
REMARK    1  A    between atoms: C_4  and  C_1 
REMARK    2  A    between atoms: C_5  and  N_3 
REMARK    3  A    between atoms: O_21  and  C_8 
REMARK    4  A    between atoms: O_22  and  C_15 
ROOT
ATOM      1  C   UNL d   1      58.017   0.063  29.754  0.00  0.00     0.265 C 
ATOM      2  N   UNL d   1      57.704  -0.046  30.506  0.00  0.00    -0.269 N 
ATOM      3  N   UNL d   1      57.079  -0.261  32.002  0.00  0.00    -0.301 N 
ATOM      4  C   UNL d   1      57.124   0.464  30.779  0.00  0.00     0.102 A 
ATOM      5  C   UNL d   1      57.974  -0.661  30.972  0.00  0.00     0.102 A 
ATOM      6  C   UNL d   1      57.660  -0.769  31.723  0.00  0.00     0.100 A 
ATOM      7  C   UNL d   1      56.811   0.353  31.536  0.00  0.00     0.100 A 
ATOM      8  O   UNL d   1      57.749   0.681  29.279  0.00  0.00    -0.267 OA
ENDROOT
BRANCH   1   9
ATOM      9  C   UNL d   1      58.601  -0.449  29.476  0.00  0.00     0.059 A 
ATOM     10  C   UNL d   1      59.349  -0.153  29.278  0.00  0.00     0.031 A 
ATOM     11  C   UNL d   1      59.944  -0.670  28.995  0.00  0.00     0.116 A 
ATOM     12  C   UNL d   1      59.786  -1.473  28.913  0.00  0.00     0.116 A 
ATOM     13  C   UNL d   1      59.030  -1.774  29.113  0.00  0.00     0.026 A 
ATOM     14  C   UNL d   1      58.433  -1.268  29.394  0.00  0.00     0.007 A 
BRANCH  11  15
ATOM     15  O   UNL d   1      60.680  -0.373  28.801  0.00  0.00    -0.326 OA
ATOM     16  C   UNL d   1      60.922   0.365  29.081  0.00  0.00     0.181 C 
ENDBRANCH  11  15
BRANCH  12  17
ATOM     17  O   UNL d   1      60.369  -1.984  28.635  0.00  0.00    -0.326 OA
ATOM     18  C   UNL d   1      60.293  -2.798  28.745  0.00  0.00     0.181 C 
ENDBRANCH  12  17
ENDBRANCH   1   9
BRANCH   3  19
ATOM     19  C   UNL d   1      56.557  -0.024  32.599  0.00  0.00     0.064 A 
ATOM     20  C   UNL d   1      56.834   0.118  33.350  0.00  0.00     0.018 A 
ATOM     21  C   UNL d   1      56.319   0.353  33.946  0.00  0.00     0.001 A 
ATOM     22  C   UNL d   1      56.608   0.495  34.705  0.00  0.00     0.000 C 
ATOM     23  C   UNL d   1      55.516   0.445  33.780  0.00  0.00     0.000 A 
ATOM     24  C   UNL d   1      55.239   0.300  33.018  0.00  0.00     0.002 A 
ATOM     25  C   UNL d   1      54.992   0.681  34.374  0.00  0.00     0.000 C 
ATOM     26  C   UNL d   1      55.754   0.064  32.419  0.00  0.00     0.018 A 
ENDBRANCH   3  19
TORSDOF 4
ENDMDL
MODEL 2
REMARK VINA RESULT:      -3.4      2.133      5.549
REMARK  4 active torsions:
REMARK  status: ('A' for Active; 'I' for Inactive)
REMARK       I    between atoms: N_2  and  C_1 
REMARK    1  A    between atoms: C_4  and  C_1 
REMARK    2  A    between atoms: C_5  and  N_3 
REMARK    3  A    between atoms: O_21  and  C_8 
REMARK    4  A    between atoms: O_22  and  C_15 
ROOT
ATOM      1  C   UNL d   1      56.236  -0.761  32.585  0.00  0.00     0.265 C 
ATOM      2  N   UNL d   1      56.807  -0.402  32.116  0.00  0.00    -0.269 N 
ATOM      3  N   UNL d   1      57.944   0.312  31.181  0.00  0.00    -0.301 N 
ATOM      4  C   UNL d   1      57.040  -0.760  31.418  0.00  0.00     0.102 A 
ATOM      5  C   UNL d   1      57.136   0.309  32.352  0.00  0.00     0.102 A 
ATOM      6  C   UNL d   1      57.706   0.667  31.883  0.00  0.00     0.100 A 
ATOM      7  C   UNL d   1      57.614  -0.397  30.948  0.00  0.00     0.100 A 
ATOM      8  O   UNL d   1      55.901  -1.477  32.354  0.00  0.00    -0.267 OA
ENDROOT
BRANCH   1   9
ATOM      9  C   UNL d   1      56.000  -0.403  33.289  0.00  0.00     0.059 A 
ATOM     10  C   UNL d   1      55.257  -0.040  33.339  0.00  0.00     0.031 A 
ATOM     11  C   UNL d   1      55.013   0.325  34.052  0.00  0.00     0.116 A 
ATOM     12  C   UNL d   1      55.513   0.324  34.705  0.00  0.00     0.116 A 
ATOM     13  C   UNL d   1      56.265  -0.043  34.658  0.00  0.00     0.026 A 
ATOM     14  C   UNL d   1      56.514  -0.408  33.953  0.00  0.00     0.007 A 
BRANCH  11  15
ATOM     15  O   UNL d   1      54.279   0.682  34.095  0.00  0.00    -0.326 OA
ATOM     16  C   UNL d   1      53.657   0.421  33.619  0.00  0.00     0.181 C 
ENDBRANCH  11  15
BRANCH  12  17
ATOM     17  O   UNL d   1      55.276   0.682  35.409  0.00  0.00    -0.326 OA
ATOM     18  C   UNL d   1      55.589   0.427  36.128  0.00  0.00     0.181 C 
ENDBRANCH  12  17
ENDBRANCH   1   9
BRANCH   3  19
ATOM     19  C   UNL d   1      58.411   0.310  30.499  0.00  0.00     0.064 A 
ATOM     20  C   UNL d   1      59.217   0.403  30.557  0.00  0.00     0.018 A 
ATOM     21  C   UNL d   1      59.686   0.402  29.882  0.00  0.00     0.001 A 
ATOM     22  C   UNL d   1      60.502   0.497  29.949  0.00  0.00     0.000 C 
ATOM     23  C   UNL d   1      59.335   0.305  29.141  0.00  0.00     0.000 A 
ATOM     24  C   UNL d   1      58.520   0.211  29.086  0.00  0.00     0.002 A 
ATOM     25  C   UNL d   1      59.801   0.303  28.457  0.00  0.00     0.000 C 
ATOM     26  C   UNL d   1      58.047   0.212  29.762  0.00  0.00     0.018 A 
ENDBRANCH   3  19
TORSDOF 4
ENDMDL
MODEL 3
REMARK VINA RESULT:      -2.9      0.795      1.431
REMARK  4 active torsions:
REMARK  status: ('A' for Active; 'I' for Inactive)
REMARK       I    between atoms: N_2  and  C_1 
REMARK    1  A    between atoms: C_4  and  C_1 
REMARK    2  A    between atoms: C_5  and  N_3 
REMARK    3  A    between atoms: O_21  and  C_8 
REMARK    4  A    between atoms: O_22  and  C_15 
ROOT
ATOM      1  C   UNL d   1      57.560   0.402  30.336  0.00  0.00     0.265 C 
ATOM      2  N   UNL d   1      57.307   0.351  31.116  0.00  0.00    -0.269 N 
ATOM      3  N   UNL d   1      56.802   0.250  32.669  0.00  0.00    -0.301 N 
ATOM      4  C   UNL d   1      56.545   0.580  31.309  0.00  0.00     0.102 A 
ATOM      5  C   UNL d   1      57.819   0.072  31.691  0.00  0.00     0.102 A 
ATOM      6  C   UNL d   1      57.565   0.022  32.470  0.00  0.00     0.100 A 
ATOM      7  C   UNL d   1      56.293   0.528  32.094  0.00  0.00     0.100 A 
ATOM      8  O   UNL d   1      57.051   0.682  29.753  0.00  0.00    -0.267 OA
ENDROOT
BRANCH   1   9
ATOM      9  C   UNL d   1      58.328   0.172  30.139  0.00  0.00     0.059 A 
ATOM     10  C   UNL d   1      58.458  -0.561  29.775  0.00  0.00     0.031 A 
ATOM     11  C   UNL d   1      59.236  -0.798  29.573  0.00  0.00     0.116 A 
ATOM     12  C   UNL d   1      59.871  -0.303  29.736  0.00  0.00     0.116 A 
ATOM     13  C   UNL d   1      59.742   0.439  30.105  0.00  0.00     0.026 A 
ATOM     14  C   UNL d   1      58.973   0.682  30.308  0.00  0.00     0.007 A 
BRANCH  11  15
ATOM     15  O   UNL d   1      59.358  -1.521  29.214  0.00  0.00    -0.326 OA
ATOM     16  C   UNL d   1      58.753  -2.082  29.181  0.00  0.00     0.181 C 
ENDBRANCH  11  15
BRANCH  12  17
ATOM     17  O   UNL d   1      60.637  -0.533  29.539  0.00  0.00    -0.326 OA
ATOM     18  C   UNL d   1      61.112  -0.040  29.078  0.00  0.00     0.181 C 
ENDBRANCH  12  17
ENDBRANCH   1   9
BRANCH   3  19
ATOM     19  C   UNL d   1      56.207   0.355  33.234  0.00  0.00     0.064 A 
ATOM     20  C   UNL d   1      56.389   0.327  34.026  0.00  0.00     0.018 A 
ATOM     21  C   UNL d   1      55.802   0.431  34.592  0.00  0.00     0.001 A 
ATOM     22  C   UNL d   1      55.994   0.401  35.393  0.00  0.00     0.000 C 
ATOM     23  C   UNL d   1      55.023   0.565  34.353  0.00  0.00     0.000 A 
ATOM     24  C   UNL d   1      54.842   0.593  33.550  0.00  0.00     0.002 A 
ATOM     25  C   UNL d   1      54.426   0.670  34.916  0.00  0.00     0.000 C 
ATOM     26  C   UNL d   1      55.431   0.489  32.981  0.00  0.00     0.018 A 
ENDBRANCH   3  19
TORSDOF 4
ENDMDL
