MODEL 1
REMARK VINA RESULT:      40.0      0.000      0.000
REMARK  8 active torsions:
REMARK  status: ('A' for Active; 'I' for Inactive)
REMARK    1  A    between atoms: C_2  and  N_1 
REMARK    2  A    between atoms: O_17  and  C_3 
REMARK    3  A    between atoms: O_18  and  C_4 
REMARK    4  A    between atoms: O_19  and  C_5 
REMARK    5  A    between atoms: O_21  and  C_6 
REMARK    6  A    between atoms: C_9  and  C_11 
REMARK    7  A    between atoms: C_12  and  C_9 
REMARK    8  A    between atoms: C_11  and  C_15 
ROOT
ATOM      1  C   UNL d   1     -55.182 -99.284 -44.291  0.00  0.00     0.000 C 
ENDROOT
BRANCH   1   2
ATOM      2  C   UNL d   1     -55.739 -98.797 -43.925  0.00  0.00     0.000 C 
BRANCH   2   3
ATOM      3  C   UNL d   1     -56.526 -98.794 -44.188  0.00  0.00     0.002 A 
ATOM      4  C   UNL d   1     -57.132 -98.828 -43.648  0.00  0.00     0.026 A 
ATOM      5  C   UNL d   1     -57.915 -98.826 -43.906  0.00  0.00     0.149 A 
ATOM      6  C   UNL d   1     -58.085 -98.790 -44.714  0.00  0.00     0.116 A 
ATOM      7  C   UNL d   1     -57.466 -98.756 -45.259  0.00  0.00     0.026 A 
ATOM      8  C   UNL d   1     -56.684 -98.758 -45.003  0.00  0.00     0.002 A 
BRANCH   5   9
ATOM      9  N   UNL d   1     -58.530 -98.860 -43.357  0.00  0.00    -0.112 N 
ATOM     10  O   UNL d   1     -59.304 -98.999 -43.614  0.00  0.00    -0.532 OA
ATOM     11  O   UNL d   1     -58.380 -98.756 -42.550  0.00  0.00    -0.532 OA
ENDBRANCH   5   9
BRANCH   6  12
ATOM     12  O   UNL d   1     -58.868 -98.787 -44.980  0.00  0.00    -0.326 OA
ATOM     13  C   UNL d   1     -59.276 -99.502 -45.069  0.00  0.00     0.181 C 
ENDBRANCH   6  12
ENDBRANCH   2   3
ENDBRANCH   1   2
BRANCH   1  14
ATOM     14  C   UNL d   1     -55.064-100.053 -44.010  0.00  0.00     0.004 A 
ATOM     15  C   UNL d   1     -54.949-100.185 -43.204  0.00  0.00     0.026 A 
ATOM     16  C   UNL d   1     -54.831-100.958 -42.925  0.00  0.00     0.118 A 
ATOM     17  C   UNL d   1     -54.829-101.591 -43.450  0.00  0.00     0.138 A 
ATOM     18  C   UNL d   1     -54.943-101.460 -44.256  0.00  0.00     0.118 A 
ATOM     19  C   UNL d   1     -55.061-100.695 -44.537  0.00  0.00     0.026 A 
BRANCH  16  20
ATOM     20  O   UNL d   1     -54.716-101.089 -42.118  0.00  0.00    -0.326 OA
ATOM     21  C   UNL d   1     -55.365-101.174 -41.617  0.00  0.00     0.181 C 
ENDBRANCH  16  20
BRANCH  17  22
ATOM     22  O   UNL d   1     -54.711-102.356 -43.169  0.00  0.00    -0.324 OA
ATOM     23  C   UNL d   1     -54.972-102.563 -42.417  0.00  0.00     0.182 C 
ENDBRANCH  17  22
BRANCH  18  24
ATOM     24  O   UNL d   1     -54.941-102.094 -44.782  0.00  0.00    -0.326 OA
ATOM     25  C   UNL d   1     -55.240-101.996 -45.543  0.00  0.00     0.181 C 
ENDBRANCH  18  24
ENDBRANCH   1  14
TORSDOF 8
ENDMDL
