MODEL 1
REMARK VINA RESULT:      -7.9      0.000      0.000
REMARK  3 active torsions:
REMARK  status: ('A' for Active; 'I' for Inactive)
REMARK    1  A    between atoms: N_3  and  C_1 
REMARK    2  A    between atoms: O_4  and  C_2 
REMARK    3  A    between atoms: C_7  and  O_4 
ROOT
ATOM      1  C   UNL d   1     -49.822  13.327  22.581  0.00  0.00     0.205 A 
ATOM      2  C   UNL d   1     -49.099  12.960  22.568  0.00  0.00     0.209 A 
ATOM      3  N   UNL d   1     -48.762  12.768  21.857  0.00  0.00    -0.198 NA
ATOM      4  C   UNL d   1     -50.216  13.505  21.877  0.00  0.00     0.211 A 
ATOM      5  N   UNL d   1     -49.880  13.313  21.166  0.00  0.00    -0.202 NA
ATOM      6  C   UNL d   1     -49.163  12.950  21.147  0.00  0.00     0.202 A 
ATOM      7  N   UNL d   1     -50.954  13.879  21.881  0.00  0.00    -0.125 N 
ENDROOT
BRANCH   2   8
ATOM      8  O   UNL d   1     -48.676  12.768  23.273  0.00  0.00    -0.288 OA
BRANCH   8   9
ATOM      9  C   UNL d   1     -47.848  12.765  23.259  0.00  0.00     0.102 A 
ATOM     10  C   UNL d   1     -47.438  12.090  23.470  0.00  0.00     0.023 A 
ATOM     11  C   UNL d   1     -46.610  12.093  23.454  0.00  0.00     0.002 A 
ATOM     12  C   UNL d   1     -47.813  11.411  23.698  0.00  0.00     0.002 C 
ATOM     13  C   UNL d   1     -46.198  12.770  23.226  0.00  0.00     0.000 A 
ATOM     14  C   UNL d   1     -46.617  13.448  23.014  0.00  0.00     0.002 A 
ATOM     15  C   UNL d   1     -47.458  13.458  23.026  0.00  0.00     0.025 A 
ATOM     16  C   UNL d   1     -46.203  14.155  22.776  0.00  0.00     0.000 C 
ENDBRANCH   8   9
ENDBRANCH   2   8
BRANCH   1  17
ATOM     17  N   UNL d   1     -50.165  13.523  23.302  0.00  0.00    -0.107 N 
ATOM     18  O   UNL d   1     -50.623  12.987  23.680  0.00  0.00    -0.531 OA
ATOM     19  O   UNL d   1     -50.033  14.262  23.621  0.00  0.00    -0.531 OA
ENDBRANCH   1  17
TORSDOF 3
ENDMDL
MODEL 2
REMARK VINA RESULT:      -7.4      0.750      1.494
REMARK  3 active torsions:
REMARK  status: ('A' for Active; 'I' for Inactive)
REMARK    1  A    between atoms: N_3  and  C_1 
REMARK    2  A    between atoms: O_4  and  C_2 
REMARK    3  A    between atoms: C_7  and  O_4 
ROOT
ATOM      1  C   UNL d   1     -49.518  14.214  22.390  0.00  0.00     0.205 A 
ATOM      2  C   UNL d   1     -48.783  13.878  22.321  0.00  0.00     0.209 A 
ATOM      3  N   UNL d   1     -48.646  13.336  21.735  0.00  0.00    -0.198 NA
ATOM      4  C   UNL d   1     -50.125  14.008  21.868  0.00  0.00     0.211 A 
ATOM      5  N   UNL d   1     -49.989  13.467  21.283  0.00  0.00    -0.202 NA
ATOM      6  C   UNL d   1     -49.262  13.130  21.209  0.00  0.00     0.202 A 
ATOM      7  N   UNL d   1     -50.878  14.347  21.932  0.00  0.00    -0.125 N 
ENDROOT
BRANCH   2   8
ATOM      8  O   UNL d   1     -48.146  14.071  22.840  0.00  0.00    -0.288 OA
BRANCH   8   9
ATOM      9  C   UNL d   1     -47.560  13.504  22.987  0.00  0.00     0.102 A 
ATOM     10  C   UNL d   1     -46.774  13.686  22.858  0.00  0.00     0.023 A 
ATOM     11  C   UNL d   1     -46.192  13.116  23.008  0.00  0.00     0.002 A 
ATOM     12  C   UNL d   1     -46.537  14.411  22.588  0.00  0.00     0.002 C 
ATOM     13  C   UNL d   1     -46.400  12.367  23.284  0.00  0.00     0.000 A 
ATOM     14  C   UNL d   1     -47.196  12.189  23.412  0.00  0.00     0.002 A 
ATOM     15  C   UNL d   1     -47.796  12.759  23.265  0.00  0.00     0.025 A 
ATOM     16  C   UNL d   1     -47.426  11.419  23.698  0.00  0.00     0.000 C 
ENDBRANCH   8   9
ENDBRANCH   2   8
BRANCH   1  17
ATOM     17  N   UNL d   1     -49.658  14.764  22.984  0.00  0.00    -0.107 N 
ATOM     18  O   UNL d   1     -49.937  14.519  23.691  0.00  0.00    -0.531 OA
ATOM     19  O   UNL d   1     -49.510  15.554  22.842  0.00  0.00    -0.531 OA
ENDBRANCH   1  17
TORSDOF 3
ENDMDL
MODEL 3
REMARK VINA RESULT:      -6.8      1.769      3.324
REMARK  3 active torsions:
REMARK  status: ('A' for Active; 'I' for Inactive)
REMARK    1  A    between atoms: N_3  and  C_1 
REMARK    2  A    between atoms: O_4  and  C_2 
REMARK    3  A    between atoms: C_7  and  O_4 
ROOT
ATOM      1  C   UNL d   1     -46.837  13.608  22.658  0.00  0.00     0.205 A 
ATOM      2  C   UNL d   1     -47.615  13.401  22.755  0.00  0.00     0.209 A 
ATOM      3  N   UNL d   1     -48.165  13.978  22.898  0.00  0.00    -0.198 NA
ATOM      4  C   UNL d   1     -46.602  14.399  22.705  0.00  0.00     0.211 A 
ATOM      5  N   UNL d   1     -47.152  14.975  22.848  0.00  0.00    -0.202 NA
ATOM      6  C   UNL d   1     -47.926  14.777  22.944  0.00  0.00     0.202 A 
ATOM      7  N   UNL d   1     -45.811  14.618  22.607  0.00  0.00    -0.125 N 
ENDROOT
BRANCH   2   8
ATOM      8  O   UNL d   1     -47.880  12.601  22.712  0.00  0.00    -0.288 OA
BRANCH   8   9
ATOM      9  C   UNL d   1     -48.679  12.448  22.559  0.00  0.00     0.102 A 
ATOM     10  C   UNL d   1     -49.103  11.953  23.053  0.00  0.00     0.023 A 
ATOM     11  C   UNL d   1     -49.902  11.804  22.895  0.00  0.00     0.002 A 
ATOM     12  C   UNL d   1     -48.769  11.599  23.698  0.00  0.00     0.002 C 
ATOM     13  C   UNL d   1     -50.272  12.151  22.245  0.00  0.00     0.000 A 
ATOM     14  C   UNL d   1     -49.840  12.650  21.750  0.00  0.00     0.002 A 
ATOM     15  C   UNL d   1     -49.028  12.810  21.899  0.00  0.00     0.025 A 
ATOM     16  C   UNL d   1     -50.210  13.015  21.074  0.00  0.00     0.000 C 
ENDBRANCH   8   9
ENDBRANCH   2   8
BRANCH   1  17
ATOM     17  N   UNL d   1     -46.277  13.024  22.513  0.00  0.00    -0.107 N 
ATOM     18  O   UNL d   1     -46.096  12.828  21.760  0.00  0.00    -0.531 OA
ATOM     19  O   UNL d   1     -45.913  12.652  23.142  0.00  0.00    -0.531 OA
ENDBRANCH   1  17
TORSDOF 3
ENDMDL
MODEL 4
REMARK VINA RESULT:      -6.1      8.858      9.879
REMARK  3 active torsions:
REMARK  status: ('A' for Active; 'I' for Inactive)
REMARK    1  A    between atoms: N_3  and  C_1 
REMARK    2  A    between atoms: O_4  and  C_2 
REMARK    3  A    between atoms: C_7  and  O_4 
ROOT
ATOM      1  C   UNL d   1     -40.010  14.954  17.914  0.00  0.00     0.205 A 
ATOM      2  C   UNL d   1     -39.958  15.221  18.678  0.00  0.00     0.209 A 
ATOM      3  N   UNL d   1     -39.342  15.702  18.891  0.00  0.00    -0.198 NA
ATOM      4  C   UNL d   1     -39.441  15.168  17.354  0.00  0.00     0.211 A 
ATOM      5  N   UNL d   1     -38.825  15.649  17.566  0.00  0.00    -0.202 NA
ATOM      6  C   UNL d   1     -38.769  15.917  18.322  0.00  0.00     0.202 A 
ATOM      7  N   UNL d   1     -39.486  14.900  16.572  0.00  0.00    -0.125 N 
ENDROOT
BRANCH   2   8
ATOM      8  O   UNL d   1     -40.525  15.017  19.268  0.00  0.00    -0.288 OA
BRANCH   8   9
ATOM      9  C   UNL d   1     -40.285  14.967  20.059  0.00  0.00     0.102 A 
ATOM     10  C   UNL d   1     -40.658  15.419  20.629  0.00  0.00     0.023 A 
ATOM     11  C   UNL d   1     -40.413  15.365  21.418  0.00  0.00     0.002 A 
ATOM     12  C   UNL d   1     -41.265  15.922  20.451  0.00  0.00     0.002 C 
ATOM     13  C   UNL d   1     -39.796  14.860  21.632  0.00  0.00     0.000 A 
ATOM     14  C   UNL d   1     -39.423  14.407  21.052  0.00  0.00     0.002 A 
ATOM     15  C   UNL d   1     -39.662  14.453  20.247  0.00  0.00     0.025 A 
ATOM     16  C   UNL d   1     -38.784  13.882  21.259  0.00  0.00     0.000 C 
ENDBRANCH   8   9
ENDBRANCH   2   8
BRANCH   1  17
ATOM     17  N   UNL d   1     -40.634  14.466  17.696  0.00  0.00    -0.107 N 
ATOM     18  O   UNL d   1     -40.566  13.675  17.783  0.00  0.00    -0.531 OA
ATOM     19  O   UNL d   1     -41.315  14.797  17.392  0.00  0.00    -0.531 OA
ENDBRANCH   1  17
TORSDOF 3
ENDMDL
MODEL 5
REMARK VINA RESULT:      -5.8      8.816      9.858
REMARK  3 active torsions:
REMARK  status: ('A' for Active; 'I' for Inactive)
REMARK    1  A    between atoms: N_3  and  C_1 
REMARK    2  A    between atoms: O_4  and  C_2 
REMARK    3  A    between atoms: C_7  and  O_4 
ROOT
ATOM      1  C   UNL d   1     -40.222  15.475  20.481  0.00  0.00     0.205 A 
ATOM      2  C   UNL d   1     -40.042  15.469  19.691  0.00  0.00     0.209 A 
ATOM      3  N   UNL d   1     -39.300  15.689  19.449  0.00  0.00    -0.198 NA
ATOM      4  C   UNL d   1     -39.657  15.702  21.040  0.00  0.00     0.211 A 
ATOM      5  N   UNL d   1     -38.916  15.922  20.799  0.00  0.00    -0.202 NA
ATOM      6  C   UNL d   1     -38.731  15.918  20.016  0.00  0.00     0.202 A 
ATOM      7  N   UNL d   1     -39.832  15.711  21.849  0.00  0.00    -0.125 N 
ENDROOT
BRANCH   2   8
ATOM      8  O   UNL d   1     -40.600  15.241  19.101  0.00  0.00    -0.288 OA
BRANCH   8   9
ATOM      9  C   UNL d   1     -40.326  14.929  18.384  0.00  0.00     0.102 A 
ATOM     10  C   UNL d   1     -40.545  15.275  17.677  0.00  0.00     0.023 A 
ATOM     11  C   UNL d   1     -40.267  14.958  16.964  0.00  0.00     0.002 A 
ATOM     12  C   UNL d   1     -41.028  15.922  17.644  0.00  0.00     0.002 C 
ATOM     13  C   UNL d   1     -39.773  14.297  16.963  0.00  0.00     0.000 A 
ATOM     14  C   UNL d   1     -39.555  13.953  17.680  0.00  0.00     0.002 A 
ATOM     15  C   UNL d   1     -39.830  14.265  18.411  0.00  0.00     0.025 A 
ATOM     16  C   UNL d   1     -39.044  13.270  17.694  0.00  0.00     0.000 C 
ENDBRANCH   8   9
ENDBRANCH   2   8
BRANCH   1  17
ATOM     17  N   UNL d   1     -40.973  15.252  20.728  0.00  0.00    -0.107 N 
ATOM     18  O   UNL d   1     -41.129  14.483  20.877  0.00  0.00    -0.531 OA
ATOM     19  O   UNL d   1     -41.551  15.821  20.817  0.00  0.00    -0.531 OA
ENDBRANCH   1  17
TORSDOF 3
ENDMDL
