MODEL 1
REMARK VINA RESULT:      -4.0      0.000      0.000
REMARK  6 active torsions:
REMARK  status: ('A' for Active; 'I' for Inactive)
REMARK    1  A    between atoms: N_3  and  C_1 
REMARK       I    between atoms: C_4  and  N_3 
REMARK       I    between atoms: N_10  and  C_4 
REMARK    2  A    between atoms: C_7  and  C_5 
REMARK    3  A    between atoms: C_9  and  C_7 
REMARK       I    between atoms: N_12  and  C_9 
REMARK    4  A    between atoms: C_14  and  N_10 
REMARK    5  A    between atoms: C_19  and  N_12 
REMARK    6  A    between atoms: C_17  and  C_19 
ROOT
ATOM      1  C   UNL d   1      57.928   0.385  30.291  0.00  0.00     0.199 A 
ATOM      2  N   UNL d   1      57.906   0.047  29.538  0.00  0.00    -0.220 NA
ATOM      3  C   UNL d   1      58.675  -0.162  29.335  0.00  0.00     0.095 A 
ATOM      4  S   UNL d   1      58.695   0.387  30.552  0.00  0.00    -0.046 SA
ATOM      5  C   UNL d   1      59.165   0.050  29.966  0.00  0.00     0.058 A 
ENDROOT
BRANCH   1   6
ATOM      6  N   UNL d   1      57.271   0.679  30.719  0.00  0.00    -0.166 NA
ATOM      7  C   UNL d   1      57.022   0.291  31.416  0.00  0.00     0.370 C 
ATOM      8  N   UNL d   1      56.374   0.573  31.846  0.00  0.00    -0.191 NA
ATOM      9  O   UNL d   1      57.424  -0.384  31.684  0.00  0.00    -0.242 OA
BRANCH   8  10
ATOM     10  C   UNL d   1      56.123   0.198  32.530  0.00  0.00     0.087 A 
ATOM     11  C   UNL d   1      56.224   0.552  33.267  0.00  0.00     0.031 A 
ATOM     12  C   UNL d   1      55.977   0.183  33.948  0.00  0.00     0.059 A 
ATOM     13 CL   UNL d   1      56.081   0.546  34.685  0.00  0.00    -0.082 Cl
ATOM     14  C   UNL d   1      55.616  -0.568  33.899  0.00  0.00     0.011 A 
ATOM     15  C   UNL d   1      55.515  -0.922  33.162  0.00  0.00     0.002 A 
ATOM     16  C   UNL d   1      55.769  -0.540  32.476  0.00  0.00     0.019 A 
ENDBRANCH   8  10
ENDBRANCH   1   6
BRANCH   3  17
ATOM     17  C   UNL d   1      58.912  -0.520  28.624  0.00  0.00     0.082 C 
BRANCH  17  18
ATOM     18  C   UNL d   1      59.644  -0.929  28.574  0.00  0.00     0.281 C 
ATOM     19  N   UNL d   1      59.664  -1.751  28.504  0.00  0.00    -0.205 NA
ATOM     20  O   UNL d   1      60.342  -0.489  28.595  0.00  0.00    -0.265 OA
BRANCH  19  21
ATOM     21  C   UNL d   1      60.385  -2.142  28.455  0.00  0.00     0.121 C 
BRANCH  21  22
ATOM     22  C   UNL d   1      60.468  -2.895  28.736  0.00  0.00     0.101 A 
ATOM     23  N   UNL d   1      61.057  -3.071  29.305  0.00  0.00    -0.242 NA
ATOM     24  C   UNL d   1      61.133  -3.842  29.584  0.00  0.00     0.099 A 
ATOM     25  C   UNL d   1      60.639  -4.441  29.312  0.00  0.00     0.021 A 
ATOM     26  C   UNL d   1      60.057  -4.268  28.751  0.00  0.00     0.003 A 
ATOM     27  C   UNL d   1      59.980  -3.490  28.468  0.00  0.00     0.021 A 
ENDBRANCH  21  22
ENDBRANCH  19  21
ENDBRANCH  17  18
ENDBRANCH   3  17
TORSDOF 6
ENDMDL
MODEL 2
REMARK VINA RESULT:      -3.5      2.052      5.722
REMARK  6 active torsions:
REMARK  status: ('A' for Active; 'I' for Inactive)
REMARK    1  A    between atoms: N_3  and  C_1 
REMARK       I    between atoms: C_4  and  N_3 
REMARK       I    between atoms: N_10  and  C_4 
REMARK    2  A    between atoms: C_7  and  C_5 
REMARK    3  A    between atoms: C_9  and  C_7 
REMARK       I    between atoms: N_12  and  C_9 
REMARK    4  A    between atoms: C_14  and  N_10 
REMARK    5  A    between atoms: C_19  and  N_12 
REMARK    6  A    between atoms: C_17  and  C_19 
ROOT
ATOM      1  C   UNL d   1      58.235  -0.620  28.938  0.00  0.00     0.199 A 
ATOM      2  N   UNL d   1      57.822  -0.499  29.644  0.00  0.00    -0.220 NA
ATOM      3  C   UNL d   1      57.811   0.309  29.792  0.00  0.00     0.095 A 
ATOM      4  S   UNL d   1      58.476   0.099  28.652  0.00  0.00    -0.046 SA
ATOM      5  C   UNL d   1      58.217   0.681  29.175  0.00  0.00     0.058 A 
ENDROOT
BRANCH   1   6
ATOM      6  N   UNL d   1      58.383  -1.359  28.574  0.00  0.00    -0.166 NA
ATOM      7  C   UNL d   1      59.039  -1.817  28.813  0.00  0.00     0.370 C 
ATOM      8  N   UNL d   1      59.194  -2.548  28.459  0.00  0.00    -0.191 NA
ATOM      9  O   UNL d   1      59.544  -1.539  29.412  0.00  0.00    -0.242 OA
BRANCH   8  10
ATOM     10  C   UNL d   1      59.836  -3.003  28.689  0.00  0.00     0.087 A 
ATOM     11  C   UNL d   1      59.873  -3.805  28.506  0.00  0.00     0.031 A 
ATOM     12  C   UNL d   1      60.508  -4.258  28.733  0.00  0.00     0.059 A 
ATOM     13 CL   UNL d   1      60.538  -5.065  28.545  0.00  0.00    -0.082 Cl
ATOM     14  C   UNL d   1      61.133  -3.905  29.158  0.00  0.00     0.011 A 
ATOM     15  C   UNL d   1      61.096  -3.103  29.341  0.00  0.00     0.002 A 
ATOM     16  C   UNL d   1      60.447  -2.650  29.107  0.00  0.00     0.019 A 
ENDBRANCH   8  10
ENDBRANCH   1   6
BRANCH   3  17
ATOM     17  C   UNL d   1      57.455   0.682  30.443  0.00  0.00     0.082 C 
BRANCH  17  18
ATOM     18  C   UNL d   1      57.530   0.360  31.215  0.00  0.00     0.281 C 
ATOM     19  N   UNL d   1      56.892  -0.014  31.581  0.00  0.00    -0.205 NA
ATOM     20  O   UNL d   1      58.258   0.425  31.599  0.00  0.00    -0.265 OA
BRANCH  19  21
ATOM     21  C   UNL d   1      56.975  -0.326  32.336  0.00  0.00     0.121 C 
BRANCH  21  22
ATOM     22  C   UNL d   1      56.340  -0.387  32.832  0.00  0.00     0.101 A 
ATOM     23  N   UNL d   1      56.079   0.279  33.267  0.00  0.00    -0.242 NA
ATOM     24  C   UNL d   1      55.431   0.207  33.770  0.00  0.00     0.099 A 
ATOM     25  C   UNL d   1      55.036  -0.511  33.849  0.00  0.00     0.021 A 
ATOM     26  C   UNL d   1      55.293  -1.169  33.419  0.00  0.00     0.003 A 
ATOM     27  C   UNL d   1      55.947  -1.096  32.912  0.00  0.00     0.021 A 
ENDBRANCH  21  22
ENDBRANCH  19  21
ENDBRANCH  17  18
ENDBRANCH   3  17
TORSDOF 6
ENDMDL
MODEL 3
REMARK VINA RESULT:      -2.6      1.180      1.467
REMARK  6 active torsions:
REMARK  status: ('A' for Active; 'I' for Inactive)
REMARK    1  A    between atoms: N_3  and  C_1 
REMARK       I    between atoms: C_4  and  N_3 
REMARK       I    between atoms: N_10  and  C_4 
REMARK    2  A    between atoms: C_7  and  C_5 
REMARK    3  A    between atoms: C_9  and  C_7 
REMARK       I    between atoms: N_12  and  C_9 
REMARK    4  A    between atoms: C_14  and  N_10 
REMARK    5  A    between atoms: C_19  and  N_12 
REMARK    6  A    between atoms: C_17  and  C_19 
ROOT
ATOM      1  C   UNL d   1      58.518   0.670  31.590  0.00  0.00     0.199 A 
ATOM      2  N   UNL d   1      58.138   0.649  30.856  0.00  0.00    -0.220 NA
ATOM      3  C   UNL d   1      58.719   0.647  30.274  0.00  0.00     0.095 A 
ATOM      4  S   UNL d   1      59.319   0.682  31.468  0.00  0.00    -0.046 SA
ATOM      5  C   UNL d   1      59.453   0.668  30.655  0.00  0.00     0.058 A 
ENDROOT
BRANCH   1   6
ATOM      6  N   UNL d   1      58.144   0.679  32.339  0.00  0.00    -0.166 NA
ATOM      7  C   UNL d   1      57.393   0.325  32.433  0.00  0.00     0.370 C 
ATOM      8  N   UNL d   1      57.015   0.328  33.169  0.00  0.00    -0.191 NA
ATOM      9  O   UNL d   1      57.019  -0.036  31.785  0.00  0.00    -0.242 OA
BRANCH   8  10
ATOM     10  C   UNL d   1      56.278  -0.018  33.268  0.00  0.00     0.087 A 
ATOM     11  C   UNL d   1      56.190  -0.837  33.250  0.00  0.00     0.031 A 
ATOM     12  C   UNL d   1      55.462  -1.183  33.348  0.00  0.00     0.059 A 
ATOM     13 CL   UNL d   1      55.381  -2.007  33.329  0.00  0.00    -0.082 Cl
ATOM     14  C   UNL d   1      54.791  -0.701  33.469  0.00  0.00     0.011 A 
ATOM     15  C   UNL d   1      54.879   0.118  33.486  0.00  0.00     0.002 A 
ATOM     16  C   UNL d   1      55.623   0.462  33.386  0.00  0.00     0.019 A 
ENDBRANCH   8  10
ENDBRANCH   1   6
BRANCH   3  17
ATOM     17  C   UNL d   1      58.588   0.628  29.455  0.00  0.00     0.082 C 
BRANCH  17  18
ATOM     18  C   UNL d   1      58.997   0.079  28.968  0.00  0.00     0.281 C 
ATOM     19  N   UNL d   1      58.762  -0.712  28.934  0.00  0.00    -0.205 NA
ATOM     20  O   UNL d   1      59.639   0.349  28.525  0.00  0.00    -0.265 OA
BRANCH  19  21
ATOM     21  C   UNL d   1      59.168  -1.241  28.455  0.00  0.00     0.121 C 
BRANCH  21  22
ATOM     22  C   UNL d   1      59.213  -2.024  28.648  0.00  0.00     0.101 A 
ATOM     23  N   UNL d   1      59.959  -2.396  28.732  0.00  0.00    -0.242 NA
ATOM     24  C   UNL d   1      59.993  -3.195  28.929  0.00  0.00     0.099 A 
ATOM     25  C   UNL d   1      59.305  -3.632  29.044  0.00  0.00     0.021 A 
ATOM     26  C   UNL d   1      58.569  -3.266  28.961  0.00  0.00     0.003 A 
ATOM     27  C   UNL d   1      58.533  -2.460  28.762  0.00  0.00     0.021 A 
ENDBRANCH  21  22
ENDBRANCH  19  21
ENDBRANCH  17  18
ENDBRANCH   3  17
TORSDOF 6
ENDMDL
