MODEL 1
REMARK VINA RESULT:      44.8      0.000      0.000
REMARK  4 active torsions:
REMARK  status: ('A' for Active; 'I' for Inactive)
REMARK    1  A    between atoms: S_6  and  C_1 
REMARK    2  A    between atoms: C_14  and  N_2 
REMARK    3  A    between atoms: C_7  and  S_6 
REMARK    4  A    between atoms: O_18  and  C_16 
ROOT
ATOM      1  C   UNL d   1      14.411  13.899  -0.512  0.00  0.00     0.114 A 
ATOM      2  N   UNL d   1      14.274  13.905  -1.325  0.00  0.00    -0.239 NA
ATOM      3  C   UNL d   1      14.125  13.193  -1.703  0.00  0.00     0.084 A 
ATOM      4  C   UNL d   1      14.112  12.498  -1.289  0.00  0.00     0.018 A 
ATOM      5  C   UNL d   1      14.248  12.489  -0.480  0.00  0.00     0.004 A 
ATOM      6  C   UNL d   1      13.986  13.197  -2.521  0.00  0.00     0.043 A 
ATOM      7  C   UNL d   1      14.398  13.204  -0.097  0.00  0.00     0.026 A 
ATOM      8  C   UNL d   1      13.961  11.781  -1.676  0.00  0.00     0.004 A 
ATOM      9  C   UNL d   1      13.837  12.485  -2.900  0.00  0.00     0.096 A 
ATOM     10  C   UNL d   1      13.825  11.790  -2.485  0.00  0.00     0.024 A 
ATOM     11  C   UNL d   1      14.236  11.786  -0.061  0.00  0.00     0.000 C 
ENDROOT
BRANCH   1  12
ATOM     12  S   UNL d   1      14.575  14.572  -0.017  0.00  0.00    -0.028 SA
BRANCH  12  13
ATOM     13  C   UNL d   1      15.432  14.520  -0.196  0.00  0.00     0.220 A 
ATOM     14  N   UNL d   1      15.915  15.108  -0.570  0.00  0.00    -0.186 N 
ATOM     15  N   UNL d   1      16.674  14.800  -0.614  0.00  0.00    -0.038 NA
ATOM     16  N   UNL d   1      16.680  14.019  -0.271  0.00  0.00    -0.022 NA
ATOM     17  N   UNL d   1      15.908  13.864  -0.020  0.00  0.00    -0.101 NA
BRANCH  14  18
ATOM     18  C   UNL d   1      15.662  15.859  -0.841  0.00  0.00     0.087 A 
ATOM     19  C   UNL d   1      15.426  16.431  -0.265  0.00  0.00     0.019 A 
ATOM     20  C   UNL d   1      15.159  17.217  -0.515  0.00  0.00     0.002 A 
ATOM     21  C   UNL d   1      15.143  17.390  -1.334  0.00  0.00     0.000 A 
ATOM     22  C   UNL d   1      15.384  16.809  -1.929  0.00  0.00     0.002 A 
ATOM     23  C   UNL d   1      15.638  16.051  -1.639  0.00  0.00     0.019 A 
ENDBRANCH  14  18
ENDBRANCH  12  13
ENDBRANCH   1  12
BRANCH   9  24
ATOM     24  O   UNL d   1      13.701  12.494  -3.708  0.00  0.00    -0.328 OA
ATOM     25  C   UNL d   1      13.295  11.886  -4.061  0.00  0.00     0.181 C 
ENDBRANCH   9  24
TORSDOF 4
ENDMDL
