MODEL 1
REMARK VINA RESULT:      -3.5      0.000      0.000
REMARK  4 active torsions:
REMARK  status: ('A' for Active; 'I' for Inactive)
REMARK    1  A    between atoms: N_5  and  C_1 
REMARK    2  A    between atoms: C_4  and  N_6 
REMARK    3  A    between atoms: N_11  and  C_4 
REMARK    4  A    between atoms: N_6  and  N_5 
ROOT
ATOM      1  C   UNL d   1      58.054  -0.470  30.235  0.00  0.00     0.768 A 
ATOM      2  N   UNL d   1      58.143   0.162  29.717  0.00  0.00    -0.058 NA
ATOM      3  N   UNL d   1      58.309  -1.226  30.012  0.00  0.00    -0.058 NA
ATOM      4  C   UNL d   1      58.487   0.046  28.974  0.00  0.00     0.102 A 
ATOM      5  C   UNL d   1      58.653  -1.341  29.270  0.00  0.00     0.102 A 
ATOM      6  C   UNL d   1      58.742  -0.710  28.751  0.00  0.00     0.040 A 
ATOM      7  C   UNL d   1      58.908  -2.094  29.046  0.00  0.00     0.021 C 
ATOM      8  C   UNL d   1      58.576   0.682  28.455  0.00  0.00     0.021 C 
ENDROOT
BRANCH   1   9
ATOM      9  N   UNL d   1      57.712  -0.353  30.974  0.00  0.00     0.049 NA
BRANCH   9  10
ATOM     10  N   UNL d   1      57.010  -0.738  31.164  0.00  0.00    -0.101 NA
BRANCH  10  11
ATOM     11  C   UNL d   1      56.703  -0.674  31.920  0.00  0.00     0.241 C 
ATOM     12  S   UNL d   1      56.650   0.060  32.279  0.00  0.00    -0.035 SA
BRANCH  11  13
ATOM     13  N   UNL d   1      56.449  -1.345  32.317  0.00  0.00    -0.213 NA
ATOM     14  C   UNL d   1      55.935  -1.277  32.955  0.00  0.00     0.122 C 
ENDBRANCH  11  13
ENDBRANCH  10  11
ENDBRANCH   9  10
ENDBRANCH   1   9
TORSDOF 4
ENDMDL
MODEL 2
REMARK VINA RESULT:      -3.3      1.161      1.472
REMARK  4 active torsions:
REMARK  status: ('A' for Active; 'I' for Inactive)
REMARK    1  A    between atoms: N_5  and  C_1 
REMARK    2  A    between atoms: C_4  and  N_6 
REMARK    3  A    between atoms: N_11  and  C_4 
REMARK    4  A    between atoms: N_6  and  N_5 
ROOT
ATOM      1  C   UNL d   1      57.955   0.450  30.633  0.00  0.00     0.768 A 
ATOM      2  N   UNL d   1      58.742   0.528  30.855  0.00  0.00    -0.058 NA
ATOM      3  N   UNL d   1      57.751   0.447  29.830  0.00  0.00    -0.058 NA
ATOM      4  C   UNL d   1      59.332   0.603  30.281  0.00  0.00     0.102 A 
ATOM      5  C   UNL d   1      58.340   0.522  29.256  0.00  0.00     0.102 A 
ATOM      6  C   UNL d   1      59.128   0.600  29.477  0.00  0.00     0.040 A 
ATOM      7  C   UNL d   1      58.138   0.519  28.455  0.00  0.00     0.021 C 
ATOM      8  C   UNL d   1      60.122   0.682  30.506  0.00  0.00     0.021 C 
ENDROOT
BRANCH   1   9
ATOM      9  N   UNL d   1      57.369   0.374  31.206  0.00  0.00     0.049 NA
BRANCH   9  10
ATOM     10  N   UNL d   1      57.203  -0.365  31.525  0.00  0.00    -0.101 NA
BRANCH  10  11
ATOM     11  C   UNL d   1      56.645  -0.435  32.120  0.00  0.00     0.241 C 
ATOM     12  S   UNL d   1      56.465   0.210  32.591  0.00  0.00    -0.035 SA
BRANCH  11  13
ATOM     13  N   UNL d   1      56.265  -1.152  32.242  0.00  0.00    -0.213 NA
ATOM     14  C   UNL d   1      55.888  -1.300  32.958  0.00  0.00     0.122 C 
ENDBRANCH  11  13
ENDBRANCH  10  11
ENDBRANCH   9  10
ENDBRANCH   1   9
TORSDOF 4
ENDMDL
MODEL 3
REMARK VINA RESULT:      -2.4      9.193     10.157
REMARK  4 active torsions:
REMARK  status: ('A' for Active; 'I' for Inactive)
REMARK    1  A    between atoms: N_5  and  C_1 
REMARK    2  A    between atoms: C_4  and  N_6 
REMARK    3  A    between atoms: N_11  and  C_4 
REMARK    4  A    between atoms: N_6  and  N_5 
ROOT
ATOM      1  C   UNL d   1      59.599  -9.018  34.880  0.00  0.00     0.768 A 
ATOM      2  N   UNL d   1      60.203  -9.434  35.251  0.00  0.00    -0.058 NA
ATOM      3  N   UNL d   1      59.312  -8.319  35.219  0.00  0.00    -0.058 NA
ATOM      4  C   UNL d   1      60.526  -9.158  35.960  0.00  0.00     0.102 A 
ATOM      5  C   UNL d   1      59.635  -8.042  35.928  0.00  0.00     0.102 A 
ATOM      6  C   UNL d   1      60.239  -8.459  36.299  0.00  0.00     0.040 A 
ATOM      7  C   UNL d   1      59.350  -7.346  36.267  0.00  0.00     0.021 C 
ATOM      8  C   UNL d   1      61.133  -9.578  36.330  0.00  0.00     0.021 C 
ENDROOT
BRANCH   1   9
ATOM      9  N   UNL d   1      59.279  -9.294  34.175  0.00  0.00     0.049 NA
BRANCH   9  10
ATOM     10  N   UNL d   1      59.769  -9.426  33.528  0.00  0.00    -0.101 NA
BRANCH  10  11
ATOM     11  C   UNL d   1      59.443  -9.630  32.805  0.00  0.00     0.241 C 
ATOM     12  S   UNL d   1      58.630  -9.687  32.725  0.00  0.00    -0.035 SA
BRANCH  11  13
ATOM     13  N   UNL d   1      59.931  -9.776  32.163  0.00  0.00    -0.213 NA
ATOM     14  C   UNL d   1      59.612  -9.818  31.405  0.00  0.00     0.122 C 
ENDBRANCH  11  13
ENDBRANCH  10  11
ENDBRANCH   9  10
ENDBRANCH   1   9
TORSDOF 4
ENDMDL
MODEL 4
REMARK VINA RESULT:      -1.9      2.150      3.398
REMARK  4 active torsions:
REMARK  status: ('A' for Active; 'I' for Inactive)
REMARK    1  A    between atoms: N_5  and  C_1 
REMARK    2  A    between atoms: C_4  and  N_6 
REMARK    3  A    between atoms: N_11  and  C_4 
REMARK    4  A    between atoms: N_6  and  N_5 
ROOT
ATOM      1  C   UNL d   1      59.353  -2.305  28.523  0.00  0.00     0.768 A 
ATOM      2  N   UNL d   1      60.131  -2.568  28.506  0.00  0.00    -0.058 NA
ATOM      3  N   UNL d   1      58.732  -2.854  28.506  0.00  0.00    -0.058 NA
ATOM      4  C   UNL d   1      60.298  -3.376  28.473  0.00  0.00     0.102 A 
ATOM      5  C   UNL d   1      58.898  -3.662  28.472  0.00  0.00     0.102 A 
ATOM      6  C   UNL d   1      59.677  -3.925  28.456  0.00  0.00     0.040 A 
ATOM      7  C   UNL d   1      58.281  -4.210  28.455  0.00  0.00     0.021 C 
ATOM      8  C   UNL d   1      61.081  -3.638  28.456  0.00  0.00     0.021 C 
ENDROOT
BRANCH   1   9
ATOM      9  N   UNL d   1      59.188  -1.500  28.556  0.00  0.00     0.049 NA
BRANCH   9  10
ATOM     10  N   UNL d   1      58.802  -1.189  29.213  0.00  0.00    -0.101 NA
BRANCH  10  11
ATOM     11  C   UNL d   1      58.667  -0.383  29.262  0.00  0.00     0.241 C 
ATOM     12  S   UNL d   1      58.572   0.058  28.578  0.00  0.00    -0.035 SA
BRANCH  11  13
ATOM     13  N   UNL d   1      58.628  -0.018  29.995  0.00  0.00    -0.213 NA
ATOM     14  C   UNL d   1      58.082   0.583  30.126  0.00  0.00     0.122 C 
ENDBRANCH  11  13
ENDBRANCH  10  11
ENDBRANCH   9  10
ENDBRANCH   1   9
TORSDOF 4
ENDMDL
MODEL 5
REMARK VINA RESULT:      -1.8      1.356      3.662
REMARK  4 active torsions:
REMARK  status: ('A' for Active; 'I' for Inactive)
REMARK    1  A    between atoms: N_5  and  C_1 
REMARK    2  A    between atoms: C_4  and  N_6 
REMARK    3  A    between atoms: N_11  and  C_4 
REMARK    4  A    between atoms: N_6  and  N_5 
ROOT
ATOM      1  C   UNL d   1      57.101  -0.050  31.660  0.00  0.00     0.768 A 
ATOM      2  N   UNL d   1      57.356   0.406  32.295  0.00  0.00    -0.058 NA
ATOM      3  N   UNL d   1      56.598  -0.695  31.791  0.00  0.00    -0.058 NA
ATOM      4  C   UNL d   1      57.113   0.223  33.063  0.00  0.00     0.102 A 
ATOM      5  C   UNL d   1      56.355  -0.878  32.559  0.00  0.00     0.102 A 
ATOM      6  C   UNL d   1      56.609  -0.422  33.194  0.00  0.00     0.040 A 
ATOM      7  C   UNL d   1      55.854  -1.520  32.691  0.00  0.00     0.021 C 
ATOM      8  C   UNL d   1      57.370   0.682  33.700  0.00  0.00     0.021 C 
ENDROOT
BRANCH   1   9
ATOM      9  N   UNL d   1      57.344   0.133  30.896  0.00  0.00     0.049 NA
BRANCH   9  10
ATOM     10  N   UNL d   1      58.019  -0.221  30.586  0.00  0.00    -0.101 NA
BRANCH  10  11
ATOM     11  C   UNL d   1      58.215  -0.105  29.800  0.00  0.00     0.241 C 
ATOM     12  S   UNL d   1      58.291   0.655  29.505  0.00  0.00    -0.035 SA
BRANCH  11  13
ATOM     13  N   UNL d   1      58.335  -0.751  29.309  0.00  0.00    -0.213 NA
ATOM     14  C   UNL d   1      58.956  -0.748  28.770  0.00  0.00     0.122 C 
ENDBRANCH  11  13
ENDBRANCH  10  11
ENDBRANCH   9  10
ENDBRANCH   1   9
TORSDOF 4
ENDMDL
