MODEL 1
REMARK VINA RESULT:      51.2      0.000      0.000
REMARK  2 active torsions:
REMARK  status: ('A' for Active; 'I' for Inactive)
REMARK    1  A    between atoms: N_10  and  C_5 
REMARK    2  A    between atoms: C_22  and  N_12 
ROOT
ATOM      1  N   UNL d   1      13.933  13.614  -3.013  0.00  0.00    -0.175 N 
ATOM      2  C   UNL d   1      13.927  12.836  -2.719  0.00  0.00     0.167 A 
ATOM      3  N   UNL d   1      14.228  14.243  -2.549  0.00  0.00    -0.143 NA
ATOM      4  C   UNL d   1      13.646  13.784  -3.774  0.00  0.00     0.283 A 
ATOM      5  C   UNL d   1      14.514  14.072  -1.789  0.00  0.00     0.168 A 
ATOM      6  N   UNL d   1      13.634  12.236  -3.188  0.00  0.00    -0.227 NA
ATOM      7  C   UNL d   1      13.354  13.157  -4.232  0.00  0.00     0.076 A 
ATOM      8  C   UNL d   1      14.216  12.694  -1.964  0.00  0.00     0.039 A 
ATOM      9  C   UNL d   1      14.508  13.295  -1.495  0.00  0.00     0.039 A 
ATOM     10  C   UNL d   1      13.348  12.380  -3.938  0.00  0.00     0.088 A 
ATOM     11  O   UNL d   1      13.653  14.539  -4.059  0.00  0.00    -0.265 OA
ATOM     12  C   UNL d   1      13.068  13.328  -4.992  0.00  0.00     0.006 A 
ATOM     13  C   UNL d   1      14.209  11.917  -1.670  0.00  0.00     0.003 A 
ATOM     14  C   UNL d   1      14.794  13.150  -0.745  0.00  0.00     0.003 A 
ATOM     15  C   UNL d   1      13.055  11.779  -4.406  0.00  0.00     0.019 A 
ATOM     16  C   UNL d   1      12.775  12.701  -5.451  0.00  0.00     0.000 A 
ATOM     17  C   UNL d   1      14.496  11.779  -0.922  0.00  0.00     0.000 A 
ATOM     18  C   UNL d   1      14.788  12.373  -0.451  0.00  0.00     0.000 A 
ATOM     19  C   UNL d   1      12.769  11.923  -5.157  0.00  0.00     0.002 A 
ENDROOT
BRANCH   5  20
ATOM     20  N   UNL d   1      14.807  14.699  -1.331  0.00  0.00    -0.285 N 
ATOM     21  C   UNL d   1      15.012  14.589  -0.558  0.00  0.00     0.101 A 
ATOM     22  C   UNL d   1      15.298  15.219  -0.122  0.00  0.00     0.100 A 
ATOM     23  N   UNL d   1      15.380  15.961  -0.460  0.00  0.00    -0.300 N 
ATOM     24  C   UNL d   1      15.175  16.071  -1.232  0.00  0.00     0.100 A 
ATOM     25  C   UNL d   1      14.882  15.444  -1.690  0.00  0.00     0.101 A 
BRANCH  23  26
ATOM     26  C   UNL d   1      15.667  16.592  -0.023  0.00  0.00     0.080 C 
ATOM     27  C   UNL d   1      15.685  17.345  -0.361  0.00  0.00     0.021 C 
ENDBRANCH  23  26
ENDBRANCH   5  20
TORSDOF 2
ENDMDL
MODEL 2
REMARK VINA RESULT:      53.9      1.602      3.879
REMARK  2 active torsions:
REMARK  status: ('A' for Active; 'I' for Inactive)
REMARK    1  A    between atoms: N_10  and  C_5 
REMARK    2  A    between atoms: C_22  and  N_12 
ROOT
ATOM      1  N   UNL d   1      14.074  13.590  -2.581  0.00  0.00    -0.175 N 
ATOM      2  C   UNL d   1      13.810  12.823  -2.762  0.00  0.00     0.167 A 
ATOM      3  N   UNL d   1      13.991  14.211  -3.133  0.00  0.00    -0.143 NA
ATOM      4  C   UNL d   1      14.426  13.759  -1.848  0.00  0.00     0.283 A 
ATOM      5  C   UNL d   1      13.639  14.043  -3.866  0.00  0.00     0.168 A 
ATOM      6  N   UNL d   1      13.901  12.230  -2.208  0.00  0.00    -0.227 NA
ATOM      7  C   UNL d   1      14.507  13.139  -1.301  0.00  0.00     0.076 A 
ATOM      8  C   UNL d   1      13.466  12.683  -3.494  0.00  0.00     0.039 A 
ATOM      9  C   UNL d   1      13.375  13.276  -4.047  0.00  0.00     0.039 A 
ATOM     10  C   UNL d   1      14.244  12.372  -1.482  0.00  0.00     0.088 A 
ATOM     11  O   UNL d   1      14.682  14.503  -1.672  0.00  0.00    -0.265 OA
ATOM     12  C   UNL d   1      14.859  13.308  -0.568  0.00  0.00     0.006 A 
ATOM     13  C   UNL d   1      13.202  11.916  -3.675  0.00  0.00     0.003 A 
ATOM     14  C   UNL d   1      13.032  13.134  -4.774  0.00  0.00     0.003 A 
ATOM     15  C   UNL d   1      14.334  11.779  -0.929  0.00  0.00     0.019 A 
ATOM     16  C   UNL d   1      14.940  12.688  -0.021  0.00  0.00     0.000 A 
ATOM     17  C   UNL d   1      12.861  11.780  -4.400  0.00  0.00     0.000 A 
ATOM     18  C   UNL d   1      12.769  12.366  -4.954  0.00  0.00     0.000 A 
ATOM     19  C   UNL d   1      14.677  11.921  -0.202  0.00  0.00     0.002 A 
ENDROOT
BRANCH   5  20
ATOM     20  N   UNL d   1      13.557  14.662  -4.413  0.00  0.00    -0.285 N 
ATOM     21  C   UNL d   1      12.838  14.997  -4.557  0.00  0.00     0.101 A 
ATOM     22  C   UNL d   1      12.777  15.607  -5.099  0.00  0.00     0.100 A 
ATOM     23  N   UNL d   1      13.437  15.882  -5.498  0.00  0.00    -0.300 N 
ATOM     24  C   UNL d   1      14.157  15.546  -5.354  0.00  0.00     0.100 A 
ATOM     25  C   UNL d   1      14.238  14.927  -4.808  0.00  0.00     0.101 A 
BRANCH  23  26
ATOM     26  C   UNL d   1      13.377  16.492  -6.041  0.00  0.00     0.080 C 
ATOM     27  C   UNL d   1      13.998  17.030  -6.120  0.00  0.00     0.021 C 
ENDBRANCH  23  26
ENDBRANCH   5  20
TORSDOF 2
ENDMDL
