MODEL 1
REMARK VINA RESULT:      43.1      0.000      0.000
REMARK  2 active torsions:
REMARK  status: ('A' for Active; 'I' for Inactive)
REMARK    1  A    between atoms: C_7  and  C_1 
REMARK    2  A    between atoms: C_9  and  C_1 
ROOT
ATOM      1  C   UNL d   1     -57.863 -98.939 -44.667  0.00  0.00     0.240 A 
ATOM      2  S   UNL d   1     -58.662 -98.917 -44.487  0.00  0.00    -0.043 SA
ATOM      3  N   UNL d   1     -57.308 -98.907 -44.057  0.00  0.00    -0.199 NA
ATOM      4  C   UNL d   1     -58.912 -98.863 -43.706  0.00  0.00     0.181 A 
ATOM      5  N   UNL d   1     -58.357 -98.831 -43.096  0.00  0.00    -0.237 N 
ATOM      6  C   UNL d   1     -57.553 -98.853 -43.268  0.00  0.00     0.352 A 
ATOM      7  N   UNL d   1     -59.717 -98.841 -43.532  0.00  0.00    -0.221 NA
ATOM      8  O   UNL d   1     -56.992 -98.822 -42.664  0.00  0.00    -0.244 OA
ATOM      9  C   UNL d   1     -58.607 -98.777 -42.313  0.00  0.00     0.088 A 
ATOM     10  C   UNL d   1     -59.960 -98.787 -42.755  0.00  0.00     0.103 A 
ATOM     11  C   UNL d   1     -59.406 -98.755 -42.146  0.00  0.00     0.040 A 
ENDROOT
BRANCH   1  12
ATOM     12  C   UNL d   1     -58.418 -98.971 -45.277  0.00  0.00     0.429 C 
ATOM     13  F   UNL d   1     -58.913 -99.003 -45.839  0.00  0.00    -0.167 F 
ATOM     14  F   UNL d   1     -58.285 -99.153 -46.104  0.00  0.00    -0.167 F 
ATOM     15  F   UNL d   1     -59.259 -98.835 -45.251  0.00  0.00    -0.167 F 
ENDBRANCH   1  12
BRANCH   1  16
ATOM     16  C   UNL d   1     -57.053 -98.961 -44.833  0.00  0.00     0.016 A 
ATOM     17  C   UNL d   1     -56.785 -98.760 -45.594  0.00  0.00    -0.001 A 
ATOM     18  C   UNL d   1     -55.977 -98.780 -45.763  0.00  0.00    -0.000 A 
ATOM     19  C   UNL d   1     -55.436 -99.003 -45.170  0.00  0.00    -0.000 A 
ATOM     20  C   UNL d   1     -55.716 -99.201 -44.417  0.00  0.00    -0.000 A 
ATOM     21  C   UNL d   1     -56.521 -99.182 -44.243  0.00  0.00    -0.001 A 
ENDBRANCH   1  16
TORSDOF 2
ENDMDL
MODEL 2
REMARK VINA RESULT:      43.6      7.064      7.690
REMARK  2 active torsions:
REMARK  status: ('A' for Active; 'I' for Inactive)
REMARK    1  A    between atoms: C_7  and  C_1 
REMARK    2  A    between atoms: C_9  and  C_1 
ROOT
ATOM      1  C   UNL d   1     -54.786-100.777 -38.157  0.00  0.00     0.240 A 
ATOM      2  S   UNL d   1     -54.787-100.405 -37.427  0.00  0.00    -0.043 SA
ATOM      3  N   UNL d   1     -54.775-101.601 -38.193  0.00  0.00    -0.199 NA
ATOM      4  C   UNL d   1     -54.775-100.848 -36.734  0.00  0.00     0.181 A 
ATOM      5  N   UNL d   1     -54.764-101.672 -36.770  0.00  0.00    -0.237 N 
ATOM      6  C   UNL d   1     -54.763-102.053 -37.500  0.00  0.00     0.352 A 
ATOM      7  N   UNL d   1     -54.776-100.467 -36.003  0.00  0.00    -0.221 NA
ATOM      8  O   UNL d   1     -54.751-102.877 -37.544  0.00  0.00    -0.244 OA
ATOM      9  C   UNL d   1     -54.752-102.116 -36.076  0.00  0.00     0.088 A 
ATOM     10  C   UNL d   1     -54.765-100.910 -35.318  0.00  0.00     0.103 A 
ATOM     11  C   UNL d   1     -54.753-101.734 -35.355  0.00  0.00     0.040 A 
ENDROOT
BRANCH   1  12
ATOM     12  C   UNL d   1     -54.798 -99.953 -38.121  0.00  0.00     0.429 C 
ATOM     13  F   UNL d   1     -54.807 -99.204 -38.075  0.00  0.00    -0.167 F 
ATOM     14  F   UNL d   1     -54.725 -99.453 -37.428  0.00  0.00    -0.167 F 
ATOM     15  F   UNL d   1     -54.884 -99.385 -38.749  0.00  0.00    -0.167 F 
ENDBRANCH   1  12
BRANCH   1  16
ATOM     16  C   UNL d   1     -54.786-101.166 -38.887  0.00  0.00     0.016 A 
ATOM     17  C   UNL d   1     -54.752-101.996 -38.909  0.00  0.00    -0.001 A 
ATOM     18  C   UNL d   1     -54.752-102.387 -39.636  0.00  0.00    -0.000 A 
ATOM     19  C   UNL d   1     -54.784-101.948 -40.343  0.00  0.00    -0.000 A 
ATOM     20  C   UNL d   1     -54.817-101.121 -40.307  0.00  0.00    -0.000 A 
ATOM     21  C   UNL d   1     -54.818-100.727 -39.584  0.00  0.00    -0.001 A 
ENDBRANCH   1  16
TORSDOF 2
ENDMDL
MODEL 3
REMARK VINA RESULT:      44.2      1.705      3.167
REMARK  2 active torsions:
REMARK  status: ('A' for Active; 'I' for Inactive)
REMARK    1  A    between atoms: C_7  and  C_1 
REMARK    2  A    between atoms: C_9  and  C_1 
ROOT
ATOM      1  C   UNL d   1     -57.840 -98.898 -44.037  0.00  0.00     0.240 A 
ATOM      2  S   UNL d   1     -57.212 -98.943 -43.511  0.00  0.00    -0.043 SA
ATOM      3  N   UNL d   1     -57.689 -98.836 -44.845  0.00  0.00    -0.199 NA
ATOM      4  C   UNL d   1     -56.437 -98.926 -43.786  0.00  0.00     0.181 A 
ATOM      5  N   UNL d   1     -56.286 -98.864 -44.594  0.00  0.00    -0.237 N 
ATOM      6  C   UNL d   1     -56.911 -98.818 -45.128  0.00  0.00     0.352 A 
ATOM      7  N   UNL d   1     -55.811 -98.972 -43.252  0.00  0.00    -0.221 NA
ATOM      8  O   UNL d   1     -56.768 -98.756 -45.939  0.00  0.00    -0.244 OA
ATOM      9  C   UNL d   1     -55.510 -98.847 -44.870  0.00  0.00     0.088 A 
ATOM     10  C   UNL d   1     -55.044 -98.955 -43.528  0.00  0.00     0.103 A 
ATOM     11  C   UNL d   1     -54.893 -98.892 -44.337  0.00  0.00     0.040 A 
ENDROOT
BRANCH   1  12
ATOM     12  C   UNL d   1     -57.990 -98.961 -43.228  0.00  0.00     0.429 C 
ATOM     13  F   UNL d   1     -58.115 -99.013 -42.490  0.00  0.00    -0.167 F 
ATOM     14  F   UNL d   1     -57.472 -98.755 -42.576  0.00  0.00    -0.167 F 
ATOM     15  F   UNL d   1     -58.688 -99.241 -42.828  0.00  0.00    -0.167 F 
ENDBRANCH   1  12
BRANCH   1  16
ATOM     16  C   UNL d   1     -58.463 -98.852 -44.579  0.00  0.00     0.016 A 
ATOM     17  C   UNL d   1     -59.245 -98.814 -44.302  0.00  0.00    -0.001 A 
ATOM     18  C   UNL d   1     -59.869 -98.768 -44.840  0.00  0.00    -0.000 A 
ATOM     19  C   UNL d   1     -59.711 -98.760 -45.658  0.00  0.00    -0.000 A 
ATOM     20  C   UNL d   1     -58.927 -98.798 -45.921  0.00  0.00    -0.000 A 
ATOM     21  C   UNL d   1     -58.301 -98.844 -45.388  0.00  0.00    -0.001 A 
ENDBRANCH   1  16
TORSDOF 2
ENDMDL
