MODEL 1
REMARK VINA RESULT:      -9.2      0.000      0.000
REMARK  2 active torsions:
REMARK  status: ('A' for Active; 'I' for Inactive)
REMARK    1  A    between atoms: C_6  and  C_1 
REMARK    2  A    between atoms: O_15  and  C_12 
ROOT
ATOM      1  C   UNL d   1      54.315  33.578  54.778  0.00  0.00     0.128 A 
ATOM      2  C   UNL d   1      53.667  34.120  54.716  0.00  0.00     0.306 A 
ATOM      3  C   UNL d   1      54.279  32.872  54.368  0.00  0.00     0.013 A 
ATOM      4  O   UNL d   1      53.032  33.916  54.249  0.00  0.00    -0.273 OA
ATOM      5  C   UNL d   1      53.649  32.684  53.912  0.00  0.00     0.025 A 
ATOM      6  C   UNL d   1      53.001  33.226  53.850  0.00  0.00     0.103 A 
ATOM      7  O   UNL d   1      53.694  34.846  55.133  0.00  0.00    -0.259 OA
ATOM      8  C   UNL d   1      53.611  31.974  53.498  0.00  0.00     0.026 A 
ATOM      9  C   UNL d   1      52.364  33.018  53.379  0.00  0.00     0.027 A 
ATOM     10  C   UNL d   1      52.966  31.767  53.023  0.00  0.00     0.094 A 
ATOM     11  C   UNL d   1      52.318  32.309  52.961  0.00  0.00     0.026 A 
ENDROOT
BRANCH   1  12
ATOM     12  C   UNL d   1      54.979  33.770  55.256  0.00  0.00     0.216 C 
ATOM     13  O   UNL d   1      54.973  33.592  56.058  0.00  0.00    -0.644 OA
ATOM     14  O   UNL d   1      55.643  34.140  54.912  0.00  0.00    -0.644 OA
ENDBRANCH   1  12
BRANCH  10  15
ATOM     15  O   UNL d   1      52.950  31.045  52.614  0.00  0.00    -0.328 OA
ATOM     16  C   UNL d   1      52.638  30.373  52.970  0.00  0.00     0.181 C 
ENDBRANCH  10  15
TORSDOF 2
ENDMDL
MODEL 2
REMARK VINA RESULT:      -8.7      1.552      2.713
REMARK  2 active torsions:
REMARK  status: ('A' for Active; 'I' for Inactive)
REMARK    1  A    between atoms: C_6  and  C_1 
REMARK    2  A    between atoms: O_15  and  C_12 
ROOT
ATOM      1  C   UNL d   1      51.990  33.656  52.872  0.00  0.00     0.128 A 
ATOM      2  C   UNL d   1      52.640  34.016  53.277  0.00  0.00     0.306 A 
ATOM      3  C   UNL d   1      51.982  32.845  52.779  0.00  0.00     0.013 A 
ATOM      4  O   UNL d   1      53.235  33.538  53.560  0.00  0.00    -0.273 OA
ATOM      5  C   UNL d   1      52.574  32.386  53.061  0.00  0.00     0.025 A 
ATOM      6  C   UNL d   1      53.225  32.746  53.467  0.00  0.00     0.103 A 
ATOM      7  O   UNL d   1      52.657  34.848  53.378  0.00  0.00    -0.259 OA
ATOM      8  C   UNL d   1      52.569  31.568  52.969  0.00  0.00     0.026 A 
ATOM      9  C   UNL d   1      53.823  32.261  53.750  0.00  0.00     0.027 A 
ATOM     10  C   UNL d   1      53.174  31.082  53.256  0.00  0.00     0.094 A 
ATOM     11  C   UNL d   1      53.825  31.441  53.661  0.00  0.00     0.026 A 
ENDROOT
BRANCH   1  12
ATOM     12  C   UNL d   1      51.365  34.133  52.574  0.00  0.00     0.216 C 
ATOM     13  O   UNL d   1      51.374  34.378  51.789  0.00  0.00    -0.644 OA
ATOM     14  O   UNL d   1      50.738  34.357  53.076  0.00  0.00    -0.644 OA
ENDBRANCH   1  12
BRANCH  10  15
ATOM     15  O   UNL d   1      53.147  30.260  53.151  0.00  0.00    -0.328 OA
ATOM     16  C   UNL d   1      53.305  29.754  53.780  0.00  0.00     0.181 C 
ENDBRANCH  10  15
TORSDOF 2
ENDMDL
MODEL 3
REMARK VINA RESULT:      -8.6      0.922      3.423
REMARK  2 active torsions:
REMARK  status: ('A' for Active; 'I' for Inactive)
REMARK    1  A    between atoms: C_6  and  C_1 
REMARK    2  A    between atoms: O_15  and  C_12 
ROOT
ATOM      1  C   UNL d   1      53.278  30.944  53.484  0.00  0.00     0.128 A 
ATOM      2  C   UNL d   1      52.952  31.373  52.830  0.00  0.00     0.306 A 
ATOM      3  C   UNL d   1      53.637  31.359  54.089  0.00  0.00     0.013 A 
ATOM      4  O   UNL d   1      53.010  32.185  52.830  0.00  0.00    -0.273 OA
ATOM      5  C   UNL d   1      53.686  32.157  54.077  0.00  0.00     0.025 A 
ATOM      6  C   UNL d   1      53.361  32.586  53.423  0.00  0.00     0.103 A 
ATOM      7  O   UNL d   1      52.583  30.956  52.205  0.00  0.00    -0.259 OA
ATOM      8  C   UNL d   1      54.047  32.578  54.685  0.00  0.00     0.026 A 
ATOM      9  C   UNL d   1      53.420  33.404  53.426  0.00  0.00     0.027 A 
ATOM     10  C   UNL d   1      54.106  33.404  54.686  0.00  0.00     0.094 A 
ATOM     11  C   UNL d   1      53.780  33.833  54.032  0.00  0.00     0.026 A 
ENDROOT
BRANCH   1  12
ATOM     12  C   UNL d   1      53.229  30.105  53.502  0.00  0.00     0.216 C 
ATOM     13  O   UNL d   1      53.901  29.651  53.366  0.00  0.00    -0.644 OA
ATOM     14  O   UNL d   1      52.497  29.736  53.658  0.00  0.00    -0.644 OA
ENDBRANCH   1  12
BRANCH  10  15
ATOM     15  O   UNL d   1      54.474  33.806  55.310  0.00  0.00    -0.328 OA
ATOM     16  C   UNL d   1      55.277  33.978  55.279  0.00  0.00     0.181 C 
ENDBRANCH  10  15
TORSDOF 2
ENDMDL
MODEL 4
REMARK VINA RESULT:      -8.5      1.099      1.673
REMARK  2 active torsions:
REMARK  status: ('A' for Active; 'I' for Inactive)
REMARK    1  A    between atoms: C_6  and  C_1 
REMARK    2  A    between atoms: O_15  and  C_12 
ROOT
ATOM      1  C   UNL d   1      53.906  32.806  54.174  0.00  0.00     0.128 A 
ATOM      2  C   UNL d   1      53.416  33.068  53.534  0.00  0.00     0.306 A 
ATOM      3  C   UNL d   1      53.962  32.005  54.325  0.00  0.00     0.013 A 
ATOM      4  O   UNL d   1      53.020  32.511  53.093  0.00  0.00    -0.273 OA
ATOM      5  C   UNL d   1      53.568  31.467  53.883  0.00  0.00     0.025 A 
ATOM      6  C   UNL d   1      53.078  31.730  53.243  0.00  0.00     0.103 A 
ATOM      7  O   UNL d   1      53.352  33.887  53.372  0.00  0.00    -0.259 OA
ATOM      8  C   UNL d   1      53.623  30.660  54.033  0.00  0.00     0.026 A 
ATOM      9  C   UNL d   1      52.681  31.165  52.801  0.00  0.00     0.027 A 
ATOM     10  C   UNL d   1      53.220  30.092  53.584  0.00  0.00     0.094 A 
ATOM     11  C   UNL d   1      52.731  30.355  52.945  0.00  0.00     0.026 A 
ENDROOT
BRANCH   1  12
ATOM     12  C   UNL d   1      54.323  33.366  54.641  0.00  0.00     0.216 C 
ATOM     13  O   UNL d   1      55.130  33.473  54.531  0.00  0.00    -0.644 OA
ATOM     14  O   UNL d   1      53.914  33.813  55.216  0.00  0.00    -0.644 OA
ENDBRANCH   1  12
BRANCH  10  15
ATOM     15  O   UNL d   1      53.291  29.284  53.754  0.00  0.00    -0.328 OA
ATOM     16  C   UNL d   1      53.188  29.009  54.522  0.00  0.00     0.181 C 
ENDBRANCH  10  15
TORSDOF 2
ENDMDL
MODEL 5
REMARK VINA RESULT:      -8.3      1.223      3.488
REMARK  2 active torsions:
REMARK  status: ('A' for Active; 'I' for Inactive)
REMARK    1  A    between atoms: C_6  and  C_1 
REMARK    2  A    between atoms: O_15  and  C_12 
ROOT
ATOM      1  C   UNL d   1      53.050  31.401  53.316  0.00  0.00     0.128 A 
ATOM      2  C   UNL d   1      53.633  31.216  53.903  0.00  0.00     0.306 A 
ATOM      3  C   UNL d   1      52.836  32.181  53.205  0.00  0.00     0.013 A 
ATOM      4  O   UNL d   1      53.957  31.825  54.334  0.00  0.00    -0.273 OA
ATOM      5  C   UNL d   1      53.163  32.770  53.636  0.00  0.00     0.025 A 
ATOM      6  C   UNL d   1      53.745  32.585  54.223  0.00  0.00     0.103 A 
ATOM      7  O   UNL d   1      53.859  30.419  54.024  0.00  0.00    -0.259 OA
ATOM      8  C   UNL d   1      52.949  33.557  53.527  0.00  0.00     0.026 A 
ATOM      9  C   UNL d   1      54.071  33.201  54.656  0.00  0.00     0.027 A 
ATOM     10  C   UNL d   1      53.279  34.177  53.965  0.00  0.00     0.094 A 
ATOM     11  C   UNL d   1      53.861  33.992  54.551  0.00  0.00     0.026 A 
ENDROOT
BRANCH   1  12
ATOM     12  C   UNL d   1      52.703  30.786  52.860  0.00  0.00     0.216 C 
ATOM     13  O   UNL d   1      52.996  30.614  52.112  0.00  0.00    -0.644 OA
ATOM     14  O   UNL d   1      52.061  30.352  53.170  0.00  0.00    -0.644 OA
ENDBRANCH   1  12
BRANCH  10  15
ATOM     15  O   UNL d   1      53.047  34.962  53.837  0.00  0.00    -0.328 OA
ATOM     16  C   UNL d   1      52.950  35.477  54.470  0.00  0.00     0.181 C 
ENDBRANCH  10  15
TORSDOF 2
ENDMDL
MODEL 6
REMARK VINA RESULT:      -8.3      1.414      2.312
REMARK  2 active torsions:
REMARK  status: ('A' for Active; 'I' for Inactive)
REMARK    1  A    between atoms: C_6  and  C_1 
REMARK    2  A    between atoms: O_15  and  C_12 
ROOT
ATOM      1  C   UNL d   1      53.913  33.382  54.414  0.00  0.00     0.128 A 
ATOM      2  C   UNL d   1      54.074  32.867  53.762  0.00  0.00     0.306 A 
ATOM      3  C   UNL d   1      53.236  33.840  54.399  0.00  0.00     0.013 A 
ATOM      4  O   UNL d   1      53.547  32.847  53.142  0.00  0.00    -0.273 OA
ATOM      5  C   UNL d   1      52.726  33.810  53.783  0.00  0.00     0.025 A 
ATOM      6  C   UNL d   1      52.887  33.295  53.130  0.00  0.00     0.103 A 
ATOM      7  O   UNL d   1      54.766  32.394  53.769  0.00  0.00    -0.259 OA
ATOM      8  C   UNL d   1      52.043  34.270  53.764  0.00  0.00     0.026 A 
ATOM      9  C   UNL d   1      52.354  33.277  52.507  0.00  0.00     0.027 A 
ATOM     10  C   UNL d   1      51.507  34.250  53.134  0.00  0.00     0.094 A 
ATOM     11  C   UNL d   1      51.668  33.734  52.482  0.00  0.00     0.026 A 
ENDROOT
BRANCH   1  12
ATOM     12  C   UNL d   1      54.445  33.417  55.064  0.00  0.00     0.216 C 
ATOM     13  O   UNL d   1      55.027  33.998  55.087  0.00  0.00    -0.644 OA
ATOM     14  O   UNL d   1      54.381  32.861  55.683  0.00  0.00    -0.644 OA
ENDBRANCH   1  12
BRANCH  10  15
ATOM     15  O   UNL d   1      50.826  34.722  53.138  0.00  0.00    -0.328 OA
ATOM     16  C   UNL d   1      50.126  34.446  52.807  0.00  0.00     0.181 C 
ENDBRANCH  10  15
TORSDOF 2
ENDMDL
MODEL 7
REMARK VINA RESULT:      -8.0      1.295      3.476
REMARK  2 active torsions:
REMARK  status: ('A' for Active; 'I' for Inactive)
REMARK    1  A    between atoms: C_6  and  C_1 
REMARK    2  A    between atoms: O_15  and  C_12 
ROOT
ATOM      1  C   UNL d   1      52.008  33.580  53.051  0.00  0.00     0.128 A 
ATOM      2  C   UNL d   1      52.164  32.763  52.887  0.00  0.00     0.306 A 
ATOM      3  C   UNL d   1      52.487  33.975  53.581  0.00  0.00     0.013 A 
ATOM      4  O   UNL d   1      52.789  32.404  53.265  0.00  0.00    -0.273 OA
ATOM      5  C   UNL d   1      53.098  33.609  53.946  0.00  0.00     0.025 A 
ATOM      6  C   UNL d   1      53.255  32.793  53.782  0.00  0.00     0.103 A 
ATOM      7  O   UNL d   1      51.678  32.349  52.345  0.00  0.00    -0.259 OA
ATOM      8  C   UNL d   1      53.583  34.005  54.480  0.00  0.00     0.026 A 
ATOM      9  C   UNL d   1      53.885  32.433  54.165  0.00  0.00     0.027 A 
ATOM     10  C   UNL d   1      54.218  33.640  54.865  0.00  0.00     0.094 A 
ATOM     11  C   UNL d   1      54.375  32.824  54.701  0.00  0.00     0.026 A 
ENDROOT
BRANCH   1  12
ATOM     12  C   UNL d   1      51.367  33.969  52.670  0.00  0.00     0.216 C 
ATOM     13  O   UNL d   1      51.480  34.326  51.939  0.00  0.00    -0.644 OA
ATOM     14  O   UNL d   1      50.618  33.991  53.037  0.00  0.00    -0.644 OA
ENDBRANCH   1  12
BRANCH  10  15
ATOM     15  O   UNL d   1      54.693  34.059  55.399  0.00  0.00    -0.328 OA
ATOM     16  C   UNL d   1      55.512  34.022  55.347  0.00  0.00     0.181 C 
ENDBRANCH  10  15
TORSDOF 2
ENDMDL
