MODEL 1
REMARK VINA RESULT:      77.7      0.000      0.000
REMARK  4 active torsions:
REMARK  status: ('A' for Active; 'I' for Inactive)
REMARK    1  A    between atoms: C_12  and  C_2 
REMARK    2  A    between atoms: N_9  and  C_3 
REMARK       I    between atoms: C_7  and  N_8 
REMARK    3  A    between atoms: C_10  and  C_7 
REMARK    4  A    between atoms: N_8  and  N_9 
ROOT
ATOM      1  C   UNL d   1     -47.741  30.019  35.457  0.00  0.00     0.037 A 
ATOM      2  C   UNL d   1     -48.157  30.289  34.794  0.00  0.00     0.101 A 
ATOM      3  C   UNL d   1     -48.774  28.979  34.647  0.00  0.00     0.768 A 
ATOM      4  N   UNL d   1     -48.664  29.770  34.402  0.00  0.00    -0.058 NA
ATOM      5  N   UNL d   1     -48.341  28.718  35.327  0.00  0.00    -0.058 NA
ATOM      6  C   UNL d   1     -47.836  29.228  35.722  0.00  0.00     0.101 A 
ATOM      7  C   UNL d   1     -47.226  30.507  35.877  0.00  0.00     0.010 A 
ATOM      8  C   UNL d   1     -47.411  28.952  36.400  0.00  0.00     0.020 A 
ATOM      9  C   UNL d   1     -46.811  30.253  36.530  0.00  0.00     0.035 A 
ATOM     10  C   UNL d   1     -46.912  29.473  36.782  0.00  0.00     0.008 A 
ATOM     11 BR   UNL d   1     -46.281  30.779  36.949  0.00  0.00    -0.049 Br
ENDROOT
BRANCH   3  12
ATOM     12  N   UNL d   1     -49.282  28.452  34.257  0.00  0.00     0.049 NA
BRANCH  12  13
ATOM     13  N   UNL d   1     -49.010  27.730  33.974  0.00  0.00    -0.094 NA
ATOM     14  C   UNL d   1     -49.505  27.220  33.605  0.00  0.00     0.273 C 
ATOM     15  O   UNL d   1     -49.196  26.499  33.332  0.00  0.00    -0.269 OA
BRANCH  14  16
ATOM     16  C   UNL d   1     -50.297  27.406  33.502  0.00  0.00     0.075 C 
ATOM     17  C   UNL d   1     -50.512  26.602  33.709  0.00  0.00     0.009 C 
ATOM     18  C   UNL d   1     -50.066  28.179  33.306  0.00  0.00     0.009 C 
ATOM     19  C   UNL d   1     -51.089  27.594  33.399  0.00  0.00     0.009 C 
ENDBRANCH  14  16
ENDBRANCH  12  13
ENDBRANCH   3  12
BRANCH   2  20
ATOM     20  C   UNL d   1     -48.081  31.050  34.521  0.00  0.00     0.018 A 
ATOM     21  C   UNL d   1     -48.711  31.558  34.486  0.00  0.00     0.002 A 
ATOM     22  C   UNL d   1     -48.632  32.314  34.214  0.00  0.00     0.000 A 
ATOM     23  C   UNL d   1     -47.889  32.573  33.965  0.00  0.00     0.000 A 
ATOM     24  C   UNL d   1     -47.272  32.098  33.990  0.00  0.00     0.000 A 
ATOM     25  C   UNL d   1     -47.337  31.318  34.268  0.00  0.00     0.002 A 
ENDBRANCH   2  20
TORSDOF 4
ENDMDL
MODEL 2
REMARK VINA RESULT:      79.5      3.983      5.634
REMARK  4 active torsions:
REMARK  status: ('A' for Active; 'I' for Inactive)
REMARK    1  A    between atoms: C_12  and  C_2 
REMARK    2  A    between atoms: N_9  and  C_3 
REMARK       I    between atoms: C_7  and  N_8 
REMARK    3  A    between atoms: C_10  and  C_7 
REMARK    4  A    between atoms: N_8  and  N_9 
ROOT
ATOM      1  C   UNL d   1     -51.197  26.740  37.611  0.00  0.00     0.037 A 
ATOM      2  C   UNL d   1     -51.689  26.136  37.329  0.00  0.00     0.101 A 
ATOM      3  C   UNL d   1     -51.182  26.350  35.981  0.00  0.00     0.768 A 
ATOM      4  N   UNL d   1     -51.675  25.951  36.526  0.00  0.00    -0.058 NA
ATOM      5  N   UNL d   1     -50.684  26.965  36.286  0.00  0.00    -0.058 NA
ATOM      6  C   UNL d   1     -50.693  27.154  37.082  0.00  0.00     0.101 A 
ATOM      7  C   UNL d   1     -51.181  26.954  38.407  0.00  0.00     0.010 A 
ATOM      8  C   UNL d   1     -50.189  27.771  37.369  0.00  0.00     0.020 A 
ATOM      9  C   UNL d   1     -50.702  27.546  38.694  0.00  0.00     0.035 A 
ATOM     10  C   UNL d   1     -50.210  27.947  38.167  0.00  0.00     0.008 A 
ATOM     11 BR   UNL d   1     -50.703  27.750  39.526  0.00  0.00    -0.049 Br
ENDROOT
BRANCH   3  12
ATOM     12  N   UNL d   1     -51.163  26.170  35.172  0.00  0.00     0.049 NA
BRANCH  12  13
ATOM     13  N   UNL d   1     -51.524  26.657  34.618  0.00  0.00    -0.094 NA
ATOM     14  C   UNL d   1     -51.498  26.483  33.837  0.00  0.00     0.273 C 
ATOM     15  O   UNL d   1     -51.874  26.998  33.306  0.00  0.00    -0.269 OA
BRANCH  14  16
ATOM     16  C   UNL d   1     -51.110  25.811  33.572  0.00  0.00     0.075 C 
ATOM     17  C   UNL d   1     -51.832  25.358  33.667  0.00  0.00     0.009 C 
ATOM     18  C   UNL d   1     -50.423  26.269  33.487  0.00  0.00     0.009 C 
ATOM     19  C   UNL d   1     -50.720  25.139  33.306  0.00  0.00     0.009 C 
ENDBRANCH  14  16
ENDBRANCH  12  13
ENDBRANCH   3  12
BRANCH   2  20
ATOM     20  C   UNL d   1     -52.184  25.722  37.822  0.00  0.00     0.018 A 
ATOM     21  C   UNL d   1     -52.985  25.843  37.824  0.00  0.00     0.002 A 
ATOM     22  C   UNL d   1     -53.475  25.430  38.315  0.00  0.00     0.000 A 
ATOM     23  C   UNL d   1     -53.148  24.871  38.827  0.00  0.00     0.000 A 
ATOM     24  C   UNL d   1     -52.381  24.741  38.838  0.00  0.00     0.000 A 
ATOM     25  C   UNL d   1     -51.863  25.158  38.339  0.00  0.00     0.002 A 
ENDBRANCH   2  20
TORSDOF 4
ENDMDL
MODEL 3
REMARK VINA RESULT:      80.0      5.288      6.910
REMARK  4 active torsions:
REMARK  status: ('A' for Active; 'I' for Inactive)
REMARK    1  A    between atoms: C_12  and  C_2 
REMARK    2  A    between atoms: N_9  and  C_3 
REMARK       I    between atoms: C_7  and  N_8 
REMARK    3  A    between atoms: C_10  and  C_7 
REMARK    4  A    between atoms: N_8  and  N_9 
ROOT
ATOM      1  C   UNL d   1     -52.572  24.679  34.933  0.00  0.00     0.037 A 
ATOM      2  C   UNL d   1     -52.203  25.409  35.063  0.00  0.00     0.101 A 
ATOM      3  C   UNL d   1     -52.706  25.420  36.429  0.00  0.00     0.768 A 
ATOM      4  N   UNL d   1     -52.274  25.766  35.803  0.00  0.00    -0.058 NA
ATOM      5  N   UNL d   1     -53.078  24.673  36.279  0.00  0.00    -0.058 NA
ATOM      6  C   UNL d   1     -53.011  24.313  35.548  0.00  0.00     0.101 A 
ATOM      7  C   UNL d   1     -52.525  24.290  34.207  0.00  0.00     0.010 A 
ATOM      8  C   UNL d   1     -53.390  23.567  35.415  0.00  0.00     0.020 A 
ATOM      9  C   UNL d   1     -52.884  23.573  34.068  0.00  0.00     0.035 A 
ATOM     10  C   UNL d   1     -53.313  23.221  34.679  0.00  0.00     0.008 A 
ATOM     11 BR   UNL d   1     -52.820  23.188  33.306  0.00  0.00    -0.049 Br
ENDROOT
BRANCH   3  12
ATOM     12  N   UNL d   1     -52.781  25.774  37.176  0.00  0.00     0.049 NA
BRANCH  12  13
ATOM     13  N   UNL d   1     -52.776  25.324  37.863  0.00  0.00    -0.094 NA
ATOM     14  C   UNL d   1     -52.349  25.551  38.501  0.00  0.00     0.273 C 
ATOM     15  O   UNL d   1     -52.367  25.071  39.179  0.00  0.00    -0.269 OA
BRANCH  14  16
ATOM     16  C   UNL d   1     -51.905  26.240  38.482  0.00  0.00     0.075 C 
ATOM     17  C   UNL d   1     -51.188  25.775  38.410  0.00  0.00     0.009 C 
ATOM     18  C   UNL d   1     -52.611  26.670  38.553  0.00  0.00     0.009 C 
ATOM     19  C   UNL d   1     -51.461  26.930  38.464  0.00  0.00     0.009 C 
ENDBRANCH  14  16
ENDBRANCH  12  13
ENDBRANCH   3  12
BRANCH   2  20
ATOM     20  C   UNL d   1     -51.773  25.782  34.483  0.00  0.00     0.018 A 
ATOM     21  C   UNL d   1     -50.976  25.663  34.399  0.00  0.00     0.002 A 
ATOM     22  C   UNL d   1     -50.552  26.035  33.822  0.00  0.00     0.000 A 
ATOM     23  C   UNL d   1     -50.942  26.548  33.306  0.00  0.00     0.000 A 
ATOM     24  C   UNL d   1     -51.708  26.674  33.373  0.00  0.00     0.000 A 
ATOM     25  C   UNL d   1     -52.159  26.299  33.961  0.00  0.00     0.002 A 
ENDBRANCH   2  20
TORSDOF 4
ENDMDL
MODEL 4
REMARK VINA RESULT:      80.0      3.044      5.684
REMARK  4 active torsions:
REMARK  status: ('A' for Active; 'I' for Inactive)
REMARK    1  A    between atoms: C_12  and  C_2 
REMARK    2  A    between atoms: N_9  and  C_3 
REMARK       I    between atoms: C_7  and  N_8 
REMARK    3  A    between atoms: C_10  and  C_7 
REMARK    4  A    between atoms: N_8  and  N_9 
ROOT
ATOM      1  C   UNL d   1     -50.760  25.288  33.412  0.00  0.00     0.037 A 
ATOM      2  C   UNL d   1     -51.069  26.056  33.419  0.00  0.00     0.101 A 
ATOM      3  C   UNL d   1     -49.721  26.598  33.505  0.00  0.00     0.768 A 
ATOM      4  N   UNL d   1     -50.551  26.695  33.465  0.00  0.00    -0.058 NA
ATOM      5  N   UNL d   1     -49.421  25.806  33.496  0.00  0.00    -0.058 NA
ATOM      6  C   UNL d   1     -49.931  25.166  33.451  0.00  0.00     0.101 A 
ATOM      7  C   UNL d   1     -51.246  24.623  33.367  0.00  0.00     0.010 A 
ATOM      8  C   UNL d   1     -49.614  24.381  33.444  0.00  0.00     0.020 A 
ATOM      9  C   UNL d   1     -50.953  23.863  33.359  0.00  0.00     0.035 A 
ATOM     10  C   UNL d   1     -50.136  23.755  33.398  0.00  0.00     0.008 A 
ATOM     11 BR   UNL d   1     -51.478  23.188  33.312  0.00  0.00    -0.049 Br
ENDROOT
BRANCH   3  12
ATOM     12  N   UNL d   1     -49.194  27.236  33.551  0.00  0.00     0.049 NA
BRANCH  12  13
ATOM     13  N   UNL d   1     -49.464  28.008  33.629  0.00  0.00    -0.094 NA
ATOM     14  C   UNL d   1     -49.184  28.486  34.207  0.00  0.00     0.273 C 
ATOM     15  O   UNL d   1     -49.480  29.260  34.257  0.00  0.00    -0.269 OA
BRANCH  14  16
ATOM     16  C   UNL d   1     -48.618  28.215  34.736  0.00  0.00     0.075 C 
ATOM     17  C   UNL d   1     -48.007  28.351  34.149  0.00  0.00     0.009 C 
ATOM     18  C   UNL d   1     -49.225  28.092  35.288  0.00  0.00     0.009 C 
ATOM     19  C   UNL d   1     -48.052  27.944  35.265  0.00  0.00     0.009 C 
ENDBRANCH  14  16
ENDBRANCH  12  13
ENDBRANCH   3  12
BRANCH   2  20
ATOM     20  C   UNL d   1     -51.869  26.197  33.382  0.00  0.00     0.018 A 
ATOM     21  C   UNL d   1     -52.170  26.948  33.352  0.00  0.00     0.002 A 
ATOM     22  C   UNL d   1     -52.964  27.085  33.315  0.00  0.00     0.000 A 
ATOM     23  C   UNL d   1     -53.481  26.441  33.308  0.00  0.00     0.000 A 
ATOM     24  C   UNL d   1     -53.209  25.712  33.336  0.00  0.00     0.000 A 
ATOM     25  C   UNL d   1     -52.394  25.554  33.374  0.00  0.00     0.002 A 
ENDBRANCH   2  20
TORSDOF 4
ENDMDL
