MODEL 1
REMARK VINA RESULT:      98.2      0.000      0.000
REMARK  6 active torsions:
REMARK  status: ('A' for Active; 'I' for Inactive)
REMARK    1  A    between atoms: C_8  and  C_1 
REMARK    2  A    between atoms: C_13  and  N_2 
REMARK    3  A    between atoms: C_7  and  C_4 
REMARK    4  A    between atoms: C_6  and  C_8 
REMARK    5  A    between atoms: C_22  and  C_13 
REMARK    6  A    between atoms: N_18  and  C_22 
ROOT
ATOM      1  C   UNL d   1     -55.149-100.607 -43.080  0.00  0.00     0.103 A 
ATOM      2  N   UNL d   1     -54.876-101.625 -42.254  0.00  0.00    -0.267 N 
ATOM      3  C   UNL d   1     -55.100-101.296 -43.535  0.00  0.00     0.256 A 
ATOM      4  C   UNL d   1     -55.012-100.812 -42.295  0.00  0.00     0.096 A 
ATOM      5  C   UNL d   1     -54.931-101.925 -43.025  0.00  0.00     0.304 A 
ATOM      6  O   UNL d   1     -54.833-102.716 -43.247  0.00  0.00    -0.263 OA
ATOM      7  O   UNL d   1     -55.198-101.358 -44.349  0.00  0.00    -0.281 OA
ENDROOT
BRANCH   1   8
ATOM      8  C   UNL d   1     -55.309 -99.853 -43.369  0.00  0.00     0.223 C 
ATOM      9  O   UNL d   1     -54.711 -99.278 -43.376  0.00  0.00    -0.284 OA
BRANCH   8  10
ATOM     10  C   UNL d   1     -56.063 -99.664 -43.653  0.00  0.00     0.139 A 
ATOM     11  O   UNL d   1     -56.764 -99.677 -43.216  0.00  0.00    -0.304 OA
ATOM     12  C   UNL d   1     -57.377 -99.453 -43.711  0.00  0.00     0.100 A 
ATOM     13  C   UNL d   1     -58.171 -99.364 -43.600  0.00  0.00     0.025 A 
ATOM     14  C   UNL d   1     -57.056 -99.300 -44.458  0.00  0.00     0.025 A 
ATOM     15  C   UNL d   1     -58.661 -99.128 -44.206  0.00  0.00     0.002 A 
ATOM     16  C   UNL d   1     -58.346 -98.975 -44.951  0.00  0.00     0.000 A 
ATOM     17  C   UNL d   1     -57.539 -99.065 -45.067  0.00  0.00     0.002 A 
ATOM     18  C   UNL d   1     -56.240 -99.433 -44.415  0.00  0.00     0.030 A 
ENDBRANCH   8  10
ENDBRANCH   1   8
BRANCH   4  19
ATOM     19  C   UNL d   1     -55.010-100.286 -41.650  0.00  0.00     0.116 A 
ATOM     20  O   UNL d   1     -54.761-100.377 -40.878  0.00  0.00    -0.306 OA
ATOM     21  C   UNL d   1     -54.891 -99.673 -40.483  0.00  0.00     0.100 A 
ATOM     22  C   UNL d   1     -54.715 -99.532 -39.690  0.00  0.00     0.027 C 
ATOM     23  C   UNL d   1     -55.225 -99.138 -41.016  0.00  0.00     0.027 A 
ATOM     24  C   UNL d   1     -55.299 -99.517 -41.739  0.00  0.00     0.028 A 
ENDBRANCH   4  19
BRANCH   2  25
ATOM     25  C   UNL d   1     -54.716-102.058 -41.580  0.00  0.00     0.102 C 
BRANCH  25  26
ATOM     26  C   UNL d   1     -55.218-102.672 -41.354  0.00  0.00     0.100 C 
BRANCH  26  27
ATOM     27  N   UNL d   1     -55.494-102.718 -40.578  0.00  0.00    -0.298 N 
ATOM     28  C   UNL d   1     -54.967-102.833 -39.961  0.00  0.00     0.107 A 
ATOM     29  C   UNL d   1     -55.235-102.879 -39.184  0.00  0.00     0.142 A 
ATOM     30  O   UNL d   1     -56.036-102.812 -39.025  0.00  0.00    -0.300 OA
ATOM     31  C   UNL d   1     -56.575-102.696 -39.641  0.00  0.00     0.142 A 
ATOM     32  C   UNL d   1     -56.296-102.650 -40.421  0.00  0.00     0.107 A 
ENDBRANCH  26  27
ENDBRANCH  25  26
ENDBRANCH   2  25
TORSDOF 6
ENDMDL
