MODEL 1
REMARK VINA RESULT:      -4.5      0.000      0.000
REMARK  1 active torsions:
REMARK  status: ('A' for Active; 'I' for Inactive)
REMARK       I    between atoms: N_2  and  C_1 
REMARK    1  A    between atoms: C_4  and  N_2 
ROOT
ATOM      1  C   UNL d   1     -41.169-122.624 -53.735  0.00  0.00     0.101 A 
ATOM      2  C   UNL d   1     -41.153-122.167 -53.049  0.00  0.00     0.031 A 
ATOM      3  C   UNL d   1     -41.166-122.537 -52.305  0.00  0.00     0.059 A 
ATOM      4 CL   UNL d   1     -41.149-122.080 -51.619  0.00  0.00    -0.082 Cl
ATOM      5  C   UNL d   1     -41.212-123.816 -52.939  0.00  0.00     0.002 A 
ATOM      6  C   UNL d   1     -41.199-123.452 -53.678  0.00  0.00     0.020 A 
ATOM      7  C   UNL d   1     -41.196-123.359 -52.253  0.00  0.00     0.011 A 
ENDROOT
BRANCH   1   8
ATOM      8  N   UNL d   1     -41.156-122.263 -54.476  0.00  0.00    -0.056 NA
ATOM      9  C   UNL d   1     -41.854-122.162 -54.901  0.00  0.00     0.787 C 
ATOM     10  N   UNL d   1     -41.843-121.802 -55.641  0.00  0.00     0.064 N 
ATOM     11  N   UNL d   1     -42.566-122.426 -54.579  0.00  0.00     0.064 N 
ENDBRANCH   1   8
TORSDOF 1
ENDMDL
MODEL 2
REMARK VINA RESULT:      -4.3      1.834      2.532
REMARK  1 active torsions:
REMARK  status: ('A' for Active; 'I' for Inactive)
REMARK       I    between atoms: N_2  and  C_1 
REMARK    1  A    between atoms: C_4  and  N_2 
ROOT
ATOM      1  C   UNL d   1     -41.369-122.319 -53.583  0.00  0.00     0.101 A 
ATOM      2  C   UNL d   1     -41.856-121.934 -54.125  0.00  0.00     0.031 A 
ATOM      3  C   UNL d   1     -42.098-122.328 -54.816  0.00  0.00     0.059 A 
ATOM      4 CL   UNL d   1     -42.586-121.942 -55.358  0.00  0.00    -0.082 Cl
ATOM      5  C   UNL d   1     -41.364-123.486 -54.416  0.00  0.00     0.002 A 
ATOM      6  C   UNL d   1     -41.123-123.098 -53.731  0.00  0.00     0.020 A 
ATOM      7  C   UNL d   1     -41.852-123.101 -54.958  0.00  0.00     0.011 A 
ENDROOT
BRANCH   1   8
ATOM      8  N   UNL d   1     -41.125-121.934 -52.895  0.00  0.00    -0.056 NA
ATOM      9  C   UNL d   1     -41.364-122.209 -52.158  0.00  0.00     0.787 C 
ATOM     10  N   UNL d   1     -41.123-121.827 -51.470  0.00  0.00     0.064 N 
ATOM     11  N   UNL d   1     -41.850-122.874 -52.112  0.00  0.00     0.064 N 
ENDBRANCH   1   8
TORSDOF 1
ENDMDL
MODEL 3
REMARK VINA RESULT:      -3.6      2.842      3.648
REMARK  1 active torsions:
REMARK  status: ('A' for Active; 'I' for Inactive)
REMARK       I    between atoms: N_2  and  C_1 
REMARK    1  A    between atoms: C_4  and  N_2 
ROOT
ATOM      1  C   UNL d   1     -41.160-122.963 -50.964  0.00  0.00     0.101 A 
ATOM      2  C   UNL d   1     -41.151-123.511 -51.580  0.00  0.00     0.031 A 
ATOM      3  C   UNL d   1     -41.143-123.246 -52.368  0.00  0.00     0.059 A 
ATOM      4 CL   UNL d   1     -41.134-123.793 -52.985  0.00  0.00    -0.082 Cl
ATOM      5  C   UNL d   1     -41.153-121.891 -51.916  0.00  0.00     0.002 A 
ATOM      6  C   UNL d   1     -41.161-122.150 -51.134  0.00  0.00     0.020 A 
ATOM      7  C   UNL d   1     -41.144-122.438 -52.533  0.00  0.00     0.011 A 
ENDROOT
BRANCH   1   8
ATOM      8  N   UNL d   1     -41.168-123.219 -50.180  0.00  0.00    -0.056 NA
ATOM      9  C   UNL d   1     -41.833-123.099 -49.711  0.00  0.00     0.787 C 
ATOM     10  N   UNL d   1     -41.843-123.354 -48.928  0.00  0.00     0.064 N 
ATOM     11  N   UNL d   1     -42.492-122.721 -50.031  0.00  0.00     0.064 N 
ENDBRANCH   1   8
TORSDOF 1
ENDMDL
MODEL 4
REMARK VINA RESULT:      -3.6      2.584      3.219
REMARK  1 active torsions:
REMARK  status: ('A' for Active; 'I' for Inactive)
REMARK       I    between atoms: N_2  and  C_1 
REMARK    1  A    between atoms: C_4  and  N_2 
ROOT
ATOM      1  C   UNL d   1     -41.796-123.094 -50.722  0.00  0.00     0.101 A 
ATOM      2  C   UNL d   1     -42.416-122.831 -50.246  0.00  0.00     0.031 A 
ATOM      3  C   UNL d   1     -42.388-122.955 -49.425  0.00  0.00     0.059 A 
ATOM      4 CL   UNL d   1     -43.009-122.692 -48.950  0.00  0.00    -0.082 Cl
ATOM      5  C   UNL d   1     -41.123-123.604 -49.563  0.00  0.00     0.002 A 
ATOM      6  C   UNL d   1     -41.147-123.482 -50.377  0.00  0.00     0.020 A 
ATOM      7  C   UNL d   1     -41.743-123.341 -49.087  0.00  0.00     0.011 A 
ENDROOT
BRANCH   1   8
ATOM      8  N   UNL d   1     -41.817-122.974 -51.538  0.00  0.00    -0.056 NA
ATOM      9  C   UNL d   1     -41.481-122.298 -51.867  0.00  0.00     0.787 C 
ATOM     10  N   UNL d   1     -41.501-122.176 -52.680  0.00  0.00     0.064 N 
ATOM     11  N   UNL d   1     -41.123-121.742 -51.373  0.00  0.00     0.064 N 
ENDBRANCH   1   8
TORSDOF 1
ENDMDL
MODEL 5
REMARK VINA RESULT:      -3.4      1.037      1.575
REMARK  1 active torsions:
REMARK  status: ('A' for Active; 'I' for Inactive)
REMARK       I    between atoms: N_2  and  C_1 
REMARK    1  A    between atoms: C_4  and  N_2 
ROOT
ATOM      1  C   UNL d   1     -41.163-122.750 -52.603  0.00  0.00     0.101 A 
ATOM      2  C   UNL d   1     -41.131-123.367 -52.056  0.00  0.00     0.031 A 
ATOM      3  C   UNL d   1     -41.170-123.200 -51.243  0.00  0.00     0.059 A 
ATOM      4 CL   UNL d   1     -41.138-123.817 -50.696  0.00  0.00    -0.082 Cl
ATOM      5  C   UNL d   1     -41.271-121.804 -51.530  0.00  0.00     0.002 A 
ATOM      6  C   UNL d   1     -41.233-121.967 -52.337  0.00  0.00     0.020 A 
ATOM      7  C   UNL d   1     -41.239-122.421 -50.983  0.00  0.00     0.011 A 
ENDROOT
BRANCH   1   8
ATOM      8  N   UNL d   1     -41.126-122.909 -53.411  0.00  0.00    -0.056 NA
ATOM      9  C   UNL d   1     -41.684-122.588 -53.924  0.00  0.00     0.787 C 
ATOM     10  N   UNL d   1     -41.649-122.745 -54.731  0.00  0.00     0.064 N 
ATOM     11  N   UNL d   1     -42.282-122.107 -53.621  0.00  0.00     0.064 N 
ENDBRANCH   1   8
TORSDOF 1
ENDMDL
MODEL 6
REMARK VINA RESULT:      -3.4      3.090      3.807
REMARK  1 active torsions:
REMARK  status: ('A' for Active; 'I' for Inactive)
REMARK       I    between atoms: N_2  and  C_1 
REMARK    1  A    between atoms: C_4  and  N_2 
ROOT
ATOM      1  C   UNL d   1     -41.518-122.847 -50.410  0.00  0.00     0.101 A 
ATOM      2  C   UNL d   1     -41.503-122.248 -50.976  0.00  0.00     0.031 A 
ATOM      3  C   UNL d   1     -41.307-122.428 -51.763  0.00  0.00     0.059 A 
ATOM      4 CL   UNL d   1     -41.292-121.828 -52.329  0.00  0.00    -0.082 Cl
ATOM      5  C   UNL d   1     -41.145-123.803 -51.411  0.00  0.00     0.002 A 
ATOM      6  C   UNL d   1     -41.338-123.627 -50.630  0.00  0.00     0.020 A 
ATOM      7  C   UNL d   1     -41.130-123.203 -51.978  0.00  0.00     0.011 A 
ENDROOT
BRANCH   1   8
ATOM      8  N   UNL d   1     -41.711-122.675 -49.626  0.00  0.00    -0.056 NA
ATOM      9  C   UNL d   1     -42.456-122.865 -49.331  0.00  0.00     0.787 C 
ATOM     10  N   UNL d   1     -42.651-122.694 -48.550  0.00  0.00     0.064 N 
ATOM     11  N   UNL d   1     -43.007-123.228 -49.825  0.00  0.00     0.064 N 
ENDBRANCH   1   8
TORSDOF 1
ENDMDL
