MODEL 1
REMARK VINA RESULT:      32.0      0.000      0.000
REMARK  10 active torsions:
REMARK  status: ('A' for Active; 'I' for Inactive)
REMARK    1  A    between atoms: C_14  and  N_1 
REMARK    2  A    between atoms: N_9  and  C_2 
REMARK    3  A    between atoms: C_6  and  C_5 
REMARK    4  A    between atoms: C_7  and  C_6 
REMARK       I    between atoms: N_8  and  C_7 
REMARK    5  A    between atoms: C_10  and  N_8 
REMARK    6  A    between atoms: C_16  and  N_9 
REMARK    7  A    between atoms: O_15  and  C_13 
REMARK    8  A    between atoms: C_19  and  O_15 
REMARK    9  A    between atoms: C_21  and  C_19 
REMARK   10  A    between atoms: C_22  and  C_21 
ROOT
ATOM      1  C   UNL d   1      13.704  12.182  -2.492  0.00  0.00     0.280 C 
ATOM      2  N   UNL d   1      13.100  12.519  -2.938  0.00  0.00    -0.206 NA
ATOM      3  O   UNL d   1      14.349  11.835  -2.865  0.00  0.00    -0.265 OA
ENDROOT
BRANCH   1   4
ATOM      4  C   UNL d   1      13.655  12.198  -1.668  0.00  0.00     0.074 C 
BRANCH   4   5
ATOM      5  C   UNL d   1      14.187  12.644  -1.226  0.00  0.00     0.093 A 
ATOM      6  C   UNL d   1      14.973  12.452  -1.074  0.00  0.00     0.272 A 
ATOM      7  N   UNL d   1      15.296  13.050  -0.612  0.00  0.00    -0.252 N 
ATOM      8  O   UNL d   1      15.367  11.781  -1.339  0.00  0.00    -0.266 OA
ATOM      9  C   UNL d   1      14.712  13.611  -0.476  0.00  0.00     0.182 A 
ATOM     10  S   UNL d   1      14.018  13.364  -0.856  0.00  0.00    -0.045 SA
BRANCH   7  11
ATOM     11  C   UNL d   1      16.069  13.085  -0.330  0.00  0.00     0.085 C 
ATOM     12  C   UNL d   1      16.420  12.403  -0.016  0.00  0.00     0.021 C 
ENDBRANCH   7  11
BRANCH   9  13
ATOM     13  N   UNL d   1      14.795  14.306  -0.037  0.00  0.00    -0.221 NA
BRANCH  13  14
ATOM     14  C   UNL d   1      14.760  15.034  -0.413  0.00  0.00     0.101 C 
ATOM     15  C   UNL d   1      15.181  15.674  -0.118  0.00  0.00     0.022 C 
ENDBRANCH  13  14
ENDBRANCH   9  13
ENDBRANCH   4   5
ENDBRANCH   1   4
BRANCH   2  16
ATOM     16  C   UNL d   1      13.140  12.508  -3.759  0.00  0.00     0.107 A 
ATOM     17  C   UNL d   1      13.217  13.221  -4.182  0.00  0.00     0.118 A 
ATOM     18  C   UNL d   1      13.256  13.208  -5.007  0.00  0.00     0.026 A 
ATOM     19  C   UNL d   1      13.218  12.485  -5.404  0.00  0.00     0.002 A 
ATOM     20  C   UNL d   1      13.142  11.779  -4.985  0.00  0.00     0.002 A 
ATOM     21  C   UNL d   1      13.103  11.790  -4.165  0.00  0.00     0.021 A 
BRANCH  17  22
ATOM     22  O   UNL d   1      13.253  13.937  -3.780  0.00  0.00    -0.304 OA
BRANCH  22  23
ATOM     23  C   UNL d   1      13.244  14.643  -4.202  0.00  0.00     0.123 C 
BRANCH  23  24
ATOM     24  C   UNL d   1      13.914  15.109  -4.241  0.00  0.00     0.027 C 
BRANCH  24  25
ATOM     25  C   UNL d   1      13.854  15.939  -4.243  0.00  0.00     0.002 C 
ATOM     26  C   UNL d   1      14.070  16.358  -4.920  0.00  0.00     0.000 C 
ENDBRANCH  24  25
ENDBRANCH  23  24
ENDBRANCH  22  23
ENDBRANCH  17  22
ENDBRANCH   2  16
TORSDOF 10
ENDMDL
MODEL 2
REMARK VINA RESULT:      32.0      1.281      4.071
REMARK  10 active torsions:
REMARK  status: ('A' for Active; 'I' for Inactive)
REMARK    1  A    between atoms: C_14  and  N_1 
REMARK    2  A    between atoms: N_9  and  C_2 
REMARK    3  A    between atoms: C_6  and  C_5 
REMARK    4  A    between atoms: C_7  and  C_6 
REMARK       I    between atoms: N_8  and  C_7 
REMARK    5  A    between atoms: C_10  and  N_8 
REMARK    6  A    between atoms: C_16  and  N_9 
REMARK    7  A    between atoms: O_15  and  C_13 
REMARK    8  A    between atoms: C_19  and  O_15 
REMARK    9  A    between atoms: C_21  and  C_19 
REMARK   10  A    between atoms: C_22  and  C_21 
ROOT
ATOM      1  C   UNL d   1      13.622  12.579  -2.168  0.00  0.00     0.280 C 
ATOM      2  N   UNL d   1      13.811  13.029  -1.505  0.00  0.00    -0.206 NA
ATOM      3  O   UNL d   1      14.052  11.901  -2.342  0.00  0.00    -0.265 OA
ENDROOT
BRANCH   1   4
ATOM      4  C   UNL d   1      12.998  12.817  -2.653  0.00  0.00     0.074 C 
BRANCH   4   5
ATOM      5  C   UNL d   1      13.139  13.073  -3.422  0.00  0.00     0.093 A 
ATOM      6  C   UNL d   1      13.184  12.596  -4.091  0.00  0.00     0.272 A 
ATOM      7  N   UNL d   1      13.333  13.081  -4.739  0.00  0.00    -0.252 N 
ATOM      8  O   UNL d   1      13.095  11.780  -4.111  0.00  0.00    -0.266 OA
ATOM      9  C   UNL d   1      13.380  13.856  -4.471  0.00  0.00     0.182 A 
ATOM     10  S   UNL d   1      13.261  13.858  -3.652  0.00  0.00    -0.045 SA
BRANCH   7  11
ATOM     11  C   UNL d   1      13.420  12.838  -5.520  0.00  0.00     0.085 C 
ATOM     12  C   UNL d   1      13.651  12.058  -5.682  0.00  0.00     0.021 C 
ENDBRANCH   7  11
BRANCH   9  13
ATOM     13  N   UNL d   1      13.523  14.525  -4.936  0.00  0.00    -0.221 NA
BRANCH  13  14
ATOM     14  C   UNL d   1      13.867  15.189  -4.600  0.00  0.00     0.101 C 
ATOM     15  C   UNL d   1      14.306  15.707  -5.062  0.00  0.00     0.022 C 
ENDBRANCH  13  14
ENDBRANCH   9  13
ENDBRANCH   4   5
ENDBRANCH   1   4
BRANCH   2  16
ATOM     16  C   UNL d   1      14.431  12.801  -1.016  0.00  0.00     0.107 A 
ATOM     17  C   UNL d   1      14.784  13.355  -0.505  0.00  0.00     0.118 A 
ATOM     18  C   UNL d   1      15.407  13.123  -0.014  0.00  0.00     0.026 A 
ATOM     19  C   UNL d   1      15.673  12.342  -0.036  0.00  0.00     0.002 A 
ATOM     20  C   UNL d   1      15.324  11.794  -0.542  0.00  0.00     0.002 A 
ATOM     21  C   UNL d   1      14.704  12.022  -1.031  0.00  0.00     0.021 A 
BRANCH  17  22
ATOM     22  O   UNL d   1      14.515  14.131  -0.489  0.00  0.00    -0.304 OA
BRANCH  22  23
ATOM     23  C   UNL d   1      14.980  14.719  -0.149  0.00  0.00     0.123 C 
BRANCH  23  24
ATOM     24  C   UNL d   1      15.235  15.353  -0.597  0.00  0.00     0.027 C 
BRANCH  24  25
ATOM     25  C   UNL d   1      14.876  16.099  -0.518  0.00  0.00     0.002 C 
ATOM     26  C   UNL d   1      14.977  16.661  -1.112  0.00  0.00     0.000 C 
ENDBRANCH  24  25
ENDBRANCH  23  24
ENDBRANCH  22  23
ENDBRANCH  17  22
ENDBRANCH   2  16
TORSDOF 10
ENDMDL
