MODEL 1
REMARK VINA RESULT:      60.8      0.000      0.000
REMARK  3 active torsions:
REMARK  status: ('A' for Active; 'I' for Inactive)
REMARK    1  A    between atoms: N_9  and  C_7 
REMARK       I    between atoms: C_10  and  N_9 
REMARK    2  A    between atoms: C_13  and  C_10 
REMARK    3  A    between atoms: O_23  and  C_18 
ROOT
ATOM      1  C   UNL d   1      13.484  12.971  -3.509  0.00  0.00     0.081 A 
ATOM      2  C   UNL d   1      13.287  12.182  -3.409  0.00  0.00     0.301 A 
ATOM      3  C   UNL d   1      13.935  13.374  -2.952  0.00  0.00     0.090 A 
ATOM      4  O   UNL d   1      13.549  11.782  -2.728  0.00  0.00    -0.273 OA
ATOM      5  N   UNL d   1      14.128  14.171  -3.063  0.00  0.00    -0.226 NA
ATOM      6  C   UNL d   1      14.193  12.974  -2.277  0.00  0.00     0.041 A 
ATOM      7  C   UNL d   1      13.862  14.564  -3.747  0.00  0.00     0.166 A 
ATOM      8  C   UNL d   1      13.222  13.369  -4.189  0.00  0.00     0.010 A 
ATOM      9  C   UNL d   1      14.001  12.176  -2.162  0.00  0.00     0.105 A 
ATOM     10  C   UNL d   1      13.410  14.165  -4.308  0.00  0.00     0.039 A 
ATOM     11  O   UNL d   1      12.832  11.780  -3.973  0.00  0.00    -0.259 OA
ATOM     12  C   UNL d   1      14.646  13.372  -1.712  0.00  0.00     0.004 A 
ATOM     13  C   UNL d   1      12.770  12.961  -4.746  0.00  0.00     0.000 C 
ATOM     14  C   UNL d   1      14.256  11.780  -1.496  0.00  0.00     0.025 A 
ATOM     15  C   UNL d   1      14.900  12.968  -1.042  0.00  0.00     0.000 A 
ATOM     16  C   UNL d   1      14.705  12.171  -0.934  0.00  0.00     0.002 A 
ENDROOT
BRANCH   7  17
ATOM     17  N   UNL d   1      14.055  15.369  -3.863  0.00  0.00    -0.189 NA
ATOM     18  C   UNL d   1      14.400  15.607  -4.571  0.00  0.00     0.281 C 
ATOM     19  O   UNL d   1      14.556  15.049  -5.167  0.00  0.00    -0.265 OA
BRANCH  18  20
ATOM     20  C   UNL d   1      14.590  16.390  -4.688  0.00  0.00     0.058 A 
ATOM     21  C   UNL d   1      15.057  16.798  -4.129  0.00  0.00     0.007 A 
ATOM     22  C   UNL d   1      15.250  17.593  -4.247  0.00  0.00     0.024 A 
ATOM     23  C   UNL d   1      14.966  17.966  -4.933  0.00  0.00     0.094 A 
ATOM     24  C   UNL d   1      14.508  17.567  -5.483  0.00  0.00     0.024 A 
ATOM     25  C   UNL d   1      14.323  16.779  -5.355  0.00  0.00     0.007 A 
BRANCH  23  26
ATOM     26  O   UNL d   1      15.155  18.769  -5.064  0.00  0.00    -0.328 OA
ATOM     27  C   UNL d   1      14.577  19.315  -5.290  0.00  0.00     0.181 C 
ENDBRANCH  23  26
ENDBRANCH  18  20
ENDBRANCH   7  17
TORSDOF 3
ENDMDL
