MODEL 1
REMARK VINA RESULT:      29.0      0.000      0.000
REMARK  4 active torsions:
REMARK  status: ('A' for Active; 'I' for Inactive)
REMARK    1  A    between atoms: C_6  and  C_1 
REMARK    2  A    between atoms: C_4  and  C_8 
REMARK    3  A    between atoms: O_18  and  C_6 
REMARK    4  A    between atoms: C_19  and  O_18 
ROOT
ATOM      1  C   UNL d   1     -55.965 -99.133 -44.073  0.00  0.00     0.121 A 
ATOM      2  C   UNL d   1     -57.302 -99.024 -44.553  0.00  0.00     0.057 A 
ATOM      3  C   UNL d   1     -56.499 -99.149 -44.694  0.00  0.00     0.204 A 
ATOM      4  C   UNL d   1     -57.834 -99.042 -45.182  0.00  0.00     0.009 A 
ATOM      5  N   UNL d   1     -57.035 -98.864 -43.156  0.00  0.00    -0.244 NA
ATOM      6  C   UNL d   1     -58.636 -98.918 -45.044  0.00  0.00     0.072 A 
ATOM      7  C   UNL d   1     -56.231 -98.989 -43.297  0.00  0.00     0.107 A 
ATOM      8  C   UNL d   1     -57.573 -98.881 -43.786  0.00  0.00     0.085 A 
ATOM      9  C   UNL d   1     -58.907 -98.775 -44.278  0.00  0.00     0.005 A 
ATOM     10  C   UNL d   1     -58.376 -98.757 -43.650  0.00  0.00     0.019 A 
ATOM     11  O   UNL d   1     -56.232 -99.292 -45.462  0.00  0.00    -0.286 OA
ENDROOT
BRANCH   1  12
ATOM     12  C   UNL d   1     -55.163 -99.257 -44.210  0.00  0.00     0.305 C 
ATOM     13  O   UNL d   1     -54.748 -98.755 -44.716  0.00  0.00    -0.259 OA
BRANCH  12  14
ATOM     14  O   UNL d   1     -54.767 -99.885 -43.843  0.00  0.00    -0.271 OA
BRANCH  14  15
ATOM     15  C   UNL d   1     -54.850-100.651 -44.138  0.00  0.00     0.126 C 
ATOM     16  C   UNL d   1     -54.721-101.297 -43.639  0.00  0.00     0.029 C 
ENDBRANCH  14  15
ENDBRANCH  12  14
ENDBRANCH   1  12
BRANCH   6  17
ATOM     17  C   UNL d   1     -59.167 -98.936 -45.673  0.00  0.00     0.419 C 
ATOM     18  F   UNL d   1     -58.910 -98.757 -46.437  0.00  0.00    -0.166 F 
ATOM     19  F   UNL d   1     -59.958 -99.135 -45.540  0.00  0.00    -0.166 F 
ATOM     20  F   UNL d   1     -59.427 -99.116 -44.911  0.00  0.00    -0.166 F 
ENDBRANCH   6  17
TORSDOF 4
ENDMDL
MODEL 2
REMARK VINA RESULT:      29.1      2.494      3.931
REMARK  4 active torsions:
REMARK  status: ('A' for Active; 'I' for Inactive)
REMARK    1  A    between atoms: C_6  and  C_1 
REMARK    2  A    between atoms: C_4  and  C_8 
REMARK    3  A    between atoms: O_18  and  C_6 
REMARK    4  A    between atoms: C_19  and  O_18 
ROOT
ATOM      1  C   UNL d   1     -57.711 -99.197 -44.613  0.00  0.00     0.121 A 
ATOM      2  C   UNL d   1     -56.511 -99.920 -44.349  0.00  0.00     0.057 A 
ATOM      3  C   UNL d   1     -57.308 -99.774 -44.193  0.00  0.00     0.204 A 
ATOM      4  C   UNL d   1     -56.113-100.501 -43.923  0.00  0.00     0.009 A 
ATOM      5  N   UNL d   1     -56.519 -98.903 -45.356  0.00  0.00    -0.244 NA
ATOM      6  C   UNL d   1     -55.318-100.649 -44.076  0.00  0.00     0.072 A 
ATOM      7  C   UNL d   1     -57.317 -98.756 -45.200  0.00  0.00     0.107 A 
ATOM      8  C   UNL d   1     -56.114 -99.487 -44.929  0.00  0.00     0.085 A 
ATOM      9  C   UNL d   1     -54.921-100.217 -44.656  0.00  0.00     0.005 A 
ATOM     10  C   UNL d   1     -55.319 -99.637 -45.082  0.00  0.00     0.019 A 
ATOM     11  O   UNL d   1     -57.702-100.208 -43.612  0.00  0.00    -0.286 OA
ENDROOT
BRANCH   1  12
ATOM     12  C   UNL d   1     -58.505 -99.048 -44.460  0.00  0.00     0.305 C 
ATOM     13  O   UNL d   1     -59.028 -98.912 -45.084  0.00  0.00    -0.259 OA
BRANCH  12  14
ATOM     14  O   UNL d   1     -58.787 -99.034 -43.681  0.00  0.00    -0.271 OA
BRANCH  14  15
ATOM     15  C   UNL d   1     -59.581 -98.864 -43.536  0.00  0.00     0.126 C 
ATOM     16  C   UNL d   1     -59.839 -98.757 -42.758  0.00  0.00     0.029 C 
ENDBRANCH  14  15
ENDBRANCH  12  14
ENDBRANCH   1  12
BRANCH   6  17
ATOM     17  C   UNL d   1     -54.920-101.231 -43.650  0.00  0.00     0.419 C 
ATOM     18  F   UNL d   1     -54.723-101.102 -42.859  0.00  0.00    -0.166 F 
ATOM     19  F   UNL d   1     -54.717-101.944 -44.014  0.00  0.00    -0.166 F 
ATOM     20  F   UNL d   1     -55.115-101.364 -44.440  0.00  0.00    -0.166 F 
ENDBRANCH   6  17
TORSDOF 4
ENDMDL
