MODEL 1
REMARK VINA RESULT:      12.8      0.000      0.000
REMARK  6 active torsions:
REMARK  status: ('A' for Active; 'I' for Inactive)
REMARK    1  A    between atoms: C_2  and  S_1 
REMARK    2  A    between atoms: N_8  and  S_1 
REMARK    3  A    between atoms: C_13  and  N_8 
REMARK    4  A    between atoms: N_9  and  C_14 
REMARK    5  A    between atoms: O_15  and  C_10 
REMARK    6  A    between atoms: C_14  and  C_13 
ROOT
ATOM      1  C   UNL d   1      46.053 -17.939  43.578  0.00  0.00     0.105 A 
ATOM      2  C   UNL d   1      46.232 -18.686  43.855  0.00  0.00     0.014 A 
ATOM      3  C   UNL d   1      46.428 -19.289  43.328  0.00  0.00     0.023 A 
ATOM      4  C   UNL d   1      46.067 -17.786  42.764  0.00  0.00     0.015 A 
ATOM      5  C   UNL d   1      46.445 -19.145  42.525  0.00  0.00     0.094 A 
ATOM      6  C   UNL d   1      46.264 -18.389  42.237  0.00  0.00     0.025 A 
ATOM      7  C   UNL d   1      46.217 -18.835  44.666  0.00  0.00     0.001 A 
ATOM      8  C   UNL d   1      46.609 -20.042  43.612  0.00  0.00     0.002 A 
ATOM      9  C   UNL d   1      46.397 -19.589  44.950  0.00  0.00     0.000 A 
ATOM     10  C   UNL d   1      46.594 -20.192  44.423  0.00  0.00     0.000 A 
ENDROOT
BRANCH   1  11
ATOM     11  S   UNL d   1      45.857 -17.335  44.105  0.00  0.00     0.285 S 
ATOM     12  O   UNL d   1      45.050 -17.454  43.941  0.00  0.00    -0.198 OA
ATOM     13  O   UNL d   1      46.647 -17.219  44.266  0.00  0.00    -0.198 OA
BRANCH  11  14
ATOM     14  N   UNL d   1      45.660 -16.732  44.633  0.00  0.00    -0.155 NA
BRANCH  14  15
ATOM     15  C   UNL d   1      45.786 -15.950  44.431  0.00  0.00     0.131 C 
BRANCH  15  16
ATOM     16  C   UNL d   1      45.240 -15.371  44.648  0.00  0.00     0.102 C 
BRANCH  16  17
ATOM     17  N   UNL d   1      45.426 -14.573  44.552  0.00  0.00    -0.298 N 
ATOM     18  C   UNL d   1      46.156 -14.285  44.806  0.00  0.00     0.107 A 
ATOM     19  C   UNL d   1      46.345 -13.484  44.710  0.00  0.00     0.142 A 
ATOM     20  O   UNL d   1      45.800 -12.973  44.359  0.00  0.00    -0.300 OA
ATOM     21  C   UNL d   1      45.067 -13.264  44.104  0.00  0.00     0.142 A 
ATOM     22  C   UNL d   1      44.881 -14.063  44.201  0.00  0.00     0.107 A 
ENDBRANCH  16  17
ENDBRANCH  15  16
ENDBRANCH  14  15
ENDBRANCH  11  14
ENDBRANCH   1  11
BRANCH   5  23
ATOM     23  O   UNL d   1      46.640 -19.745  41.991  0.00  0.00    -0.328 OA
ATOM     24  C   UNL d   1      46.239 -19.816  41.276  0.00  0.00     0.181 C 
ENDBRANCH   5  23
TORSDOF 6
ENDMDL
