MODEL 1
REMARK VINA RESULT:      54.0      0.000      0.000
REMARK  2 active torsions:
REMARK  status: ('A' for Active; 'I' for Inactive)
REMARK    1  A    between atoms: C_5  and  C_1 
REMARK       I    between atoms: N_7  and  C_5 
REMARK    2  A    between atoms: C_9  and  N_7 
ROOT
ATOM      1  C   UNL d   1     -52.004  25.397  33.563  0.00  0.00     0.161 A 
ATOM      2  C   UNL d   1     -52.400  24.713  33.690  0.00  0.00     0.072 A 
ATOM      3  O   UNL d   1     -51.154  25.389  33.429  0.00  0.00    -0.302 OA
ATOM      4  C   UNL d   1     -52.013  23.993  33.697  0.00  0.00     0.200 A 
ATOM      5  C   UNL d   1     -51.191  23.960  33.570  0.00  0.00     0.062 A 
ATOM      6  C   UNL d   1     -50.782  24.647  33.440  0.00  0.00     0.103 A 
ATOM      7  O   UNL d   1     -52.458  23.299  33.832  0.00  0.00    -0.286 OA
ATOM      8  C   UNL d   1     -50.783  23.230  33.574  0.00  0.00     0.005 A 
ATOM      9  C   UNL d   1     -49.945  24.613  33.312  0.00  0.00     0.025 A 
ATOM     10  C   UNL d   1     -49.964  23.215  33.446  0.00  0.00     0.000 A 
ATOM     11  C   UNL d   1     -49.558  23.893  33.318  0.00  0.00     0.002 A 
ENDROOT
BRANCH   1  12
ATOM     12  C   UNL d   1     -52.452  26.129  33.565  0.00  0.00     0.302 C 
ATOM     13  N   UNL d   1     -52.084  26.847  33.734  0.00  0.00    -0.206 NA
ATOM     14  O   UNL d   1     -53.269  26.097  33.392  0.00  0.00    -0.263 OA
BRANCH  13  15
ATOM     15  C   UNL d   1     -51.281  26.855  33.901  0.00  0.00     0.085 A 
ATOM     16  C   UNL d   1     -51.026  26.941  34.681  0.00  0.00     0.018 A 
ATOM     17  C   UNL d   1     -50.232  26.952  34.865  0.00  0.00     0.002 A 
ATOM     18  C   UNL d   1     -51.602  27.020  35.302  0.00  0.00     0.002 C 
ATOM     19  C   UNL d   1     -49.679  26.876  34.265  0.00  0.00     0.000 A 
ATOM     20  C   UNL d   1     -49.927  26.790  33.482  0.00  0.00     0.002 A 
ATOM     21  C   UNL d   1     -48.852  26.885  34.439  0.00  0.00     0.000 C 
ATOM     22  C   UNL d   1     -50.729  26.781  33.315  0.00  0.00     0.019 A 
ENDBRANCH  13  15
ENDBRANCH   1  12
TORSDOF 2
ENDMDL
