MODEL 1
REMARK VINA RESULT:      36.7      0.000      0.000
REMARK  2 active torsions:
REMARK  status: ('A' for Active; 'I' for Inactive)
REMARK    1  A    between atoms: N_2  and  S_1 
REMARK    2  A    between atoms: C_4  and  S_1 
ROOT
ATOM      1  S   UNL d   1      13.835  12.859  -2.881  0.00  0.00     0.273 S 
ATOM      2  O   UNL d   1      14.186  12.210  -2.515  0.00  0.00    -0.200 OA
ATOM      3  O   UNL d   1      13.876  13.601  -2.524  0.00  0.00    -0.200 OA
ENDROOT
BRANCH   1   4
ATOM      4  N   UNL d   1      13.445  12.765  -3.603  0.00  0.00    -0.212 N 
ATOM      5  C   UNL d   1      13.191  12.008  -3.838  0.00  0.00     0.193 A 
ATOM      6  N   UNL d   1      12.797  11.914  -4.566  0.00  0.00    -0.223 NA
ATOM      7  C   UNL d   1      12.916  13.324  -4.813  0.00  0.00     0.100 A 
ATOM      8  C   UNL d   1      13.306  13.429  -4.095  0.00  0.00     0.094 A 
ATOM      9  C   UNL d   1      12.779  13.988  -5.302  0.00  0.00     0.021 A 
ATOM     10  C   UNL d   1      13.560  14.175  -3.857  0.00  0.00     0.020 A 
ATOM     11  C   UNL d   1      13.425  14.832  -4.341  0.00  0.00     0.002 A 
ATOM     12  C   UNL d   1      13.034  14.738  -5.065  0.00  0.00     0.002 A 
ENDBRANCH   1   4
BRANCH   1  13
ATOM     13  C   UNL d   1      14.223  12.939  -2.168  0.00  0.00     0.104 A 
ATOM     14  C   UNL d   1      14.809  12.395  -1.959  0.00  0.00     0.012 A 
ATOM     15  C   UNL d   1      15.203  12.467  -1.247  0.00  0.00     0.001 A 
ATOM     16  C   UNL d   1      14.992  11.780  -2.474  0.00  0.00     0.001 C 
ATOM     17  C   UNL d   1      15.016  13.088  -0.730  0.00  0.00     0.000 A 
ATOM     18  C   UNL d   1      14.431  13.634  -0.936  0.00  0.00     0.001 A 
ATOM     19  C   UNL d   1      15.410  13.162  -0.015  0.00  0.00     0.000 C 
ATOM     20  C   UNL d   1      14.039  13.553  -1.657  0.00  0.00     0.013 A 
ENDBRANCH   1  13
TORSDOF 2
ENDMDL
MODEL 2
REMARK VINA RESULT:      37.7      2.120      3.171
REMARK  2 active torsions:
REMARK  status: ('A' for Active; 'I' for Inactive)
REMARK    1  A    between atoms: N_2  and  S_1 
REMARK    2  A    between atoms: C_4  and  S_1 
ROOT
ATOM      1  S   UNL d   1      14.832  13.917  -0.747  0.00  0.00     0.273 S 
ATOM      2  O   UNL d   1      14.770  14.305  -0.023  0.00  0.00    -0.200 OA
ATOM      3  O   UNL d   1      15.130  14.320  -1.401  0.00  0.00    -0.200 OA
ENDROOT
BRANCH   1   4
ATOM      4  N   UNL d   1      14.597  13.129  -0.814  0.00  0.00    -0.212 N 
ATOM      5  C   UNL d   1      14.688  12.615  -0.165  0.00  0.00     0.193 A 
ATOM      6  N   UNL d   1      14.452  11.819  -0.234  0.00  0.00    -0.223 NA
ATOM      7  C   UNL d   1      14.038  12.058  -1.589  0.00  0.00     0.100 A 
ATOM      8  C   UNL d   1      14.269  12.848  -1.533  0.00  0.00     0.094 A 
ATOM      9  C   UNL d   1      13.711  11.781  -2.306  0.00  0.00     0.021 A 
ATOM     10  C   UNL d   1      14.182  13.361  -2.170  0.00  0.00     0.020 A 
ATOM     11  C   UNL d   1      13.858  13.086  -2.880  0.00  0.00     0.002 A 
ATOM     12  C   UNL d   1      13.623  12.295  -2.948  0.00  0.00     0.002 A 
ENDBRANCH   1   4
BRANCH   1  13
ATOM     13  C   UNL d   1      15.061  14.696  -0.667  0.00  0.00     0.104 A 
ATOM     14  C   UNL d   1      15.778  14.876  -0.298  0.00  0.00     0.012 A 
ATOM     15  C   UNL d   1      16.015  15.653  -0.214  0.00  0.00     0.001 A 
ATOM     16  C   UNL d   1      16.251  14.265  -0.016  0.00  0.00     0.001 C 
ATOM     17  C   UNL d   1      15.535  16.267  -0.500  0.00  0.00     0.000 A 
ATOM     18  C   UNL d   1      14.817  16.090  -0.869  0.00  0.00     0.001 A 
ATOM     19  C   UNL d   1      15.771  17.047  -0.416  0.00  0.00     0.000 C 
ATOM     20  C   UNL d   1      14.586  15.303  -0.950  0.00  0.00     0.013 A 
ENDBRANCH   1  13
TORSDOF 2
ENDMDL
