MODEL 1
REMARK VINA RESULT:       5.0      0.000      0.000
REMARK  5 active torsions:
REMARK  status: ('A' for Active; 'I' for Inactive)
REMARK    1  A    between atoms: C_2  and  C_1 
REMARK    2  A    between atoms: O_6  and  C_1 
REMARK    3  A    between atoms: C_11  and  O_6 
REMARK    4  A    between atoms: C_12  and  C_11 
REMARK    5  A    between atoms: C_13  and  C_12 
ROOT
ATOM      1  C   UNL d   1      46.379 -18.785  43.456  0.00  0.00     0.064 A 
ATOM      2  C   UNL d   1      46.389 -18.486  42.685  0.00  0.00     0.009 A 
ATOM      3  C   UNL d   1      46.459 -19.598  43.577  0.00  0.00     0.009 A 
ATOM      4  C   UNL d   1      46.556 -19.800  42.156  0.00  0.00     0.196 A 
ATOM      5  C   UNL d   1      46.477 -18.987  42.035  0.00  0.00     0.042 A 
ATOM      6  C   UNL d   1      46.547 -20.096  42.924  0.00  0.00     0.042 A 
ATOM      7  O   UNL d   1      46.647 -20.330  41.517  0.00  0.00    -0.287 OA
ENDROOT
BRANCH   1   8
ATOM      8  C   UNL d   1      46.290 -18.271  44.100  0.00  0.00     0.300 C 
ATOM      9  O   UNL d   1      46.310 -18.562  44.872  0.00  0.00    -0.259 OA
BRANCH   8  10
ATOM     10  O   UNL d   1      46.181 -17.467  43.957  0.00  0.00    -0.271 OA
BRANCH  10  11
ATOM     11  C   UNL d   1      45.810 -17.006  44.534  0.00  0.00     0.126 C 
BRANCH  11  12
ATOM     12  C   UNL d   1      45.896 -16.184  44.506  0.00  0.00     0.027 C 
BRANCH  12  13
ATOM     13  C   UNL d   1      45.400 -15.708  44.951  0.00  0.00     0.002 C 
ATOM     14  C   UNL d   1      45.304 -14.913  44.755  0.00  0.00     0.000 C 
ENDBRANCH  12  13
ENDBRANCH  11  12
ENDBRANCH  10  11
ENDBRANCH   8  10
ENDBRANCH   1   8
TORSDOF 5
ENDMDL
MODEL 2
REMARK VINA RESULT:       5.6      1.974      4.916
REMARK  5 active torsions:
REMARK  status: ('A' for Active; 'I' for Inactive)
REMARK    1  A    between atoms: C_2  and  C_1 
REMARK    2  A    between atoms: O_6  and  C_1 
REMARK    3  A    between atoms: C_11  and  O_6 
REMARK    4  A    between atoms: C_12  and  C_11 
REMARK    5  A    between atoms: C_13  and  C_12 
ROOT
ATOM      1  C   UNL d   1      45.449 -14.512  44.459  0.00  0.00     0.064 A 
ATOM      2  C   UNL d   1      45.068 -14.082  43.865  0.00  0.00     0.009 A 
ATOM      3  C   UNL d   1      45.988 -14.129  44.954  0.00  0.00     0.009 A 
ATOM      4  C   UNL d   1      45.755 -12.895  44.253  0.00  0.00     0.196 A 
ATOM      5  C   UNL d   1      45.216 -13.278  43.758  0.00  0.00     0.042 A 
ATOM      6  C   UNL d   1      46.135 -13.324  44.845  0.00  0.00     0.042 A 
ATOM      7  O   UNL d   1      45.925 -12.081  44.168  0.00  0.00    -0.287 OA
ENDROOT
BRANCH   1   8
ATOM      8  C   UNL d   1      45.291 -15.320  44.556  0.00  0.00     0.300 C 
ATOM      9  O   UNL d   1      44.613 -15.568  44.955  0.00  0.00    -0.259 OA
BRANCH   8  10
ATOM     10  O   UNL d   1      45.822 -15.870  44.248  0.00  0.00    -0.271 OA
BRANCH  10  11
ATOM     11  C   UNL d   1      45.625 -16.672  44.275  0.00  0.00     0.126 C 
BRANCH  11  12
ATOM     12  C   UNL d   1      46.124 -17.219  43.906  0.00  0.00     0.027 C 
BRANCH  12  13
ATOM     13  C   UNL d   1      46.169 -17.986  44.192  0.00  0.00     0.002 C 
ATOM     14  C   UNL d   1      46.572 -18.563  43.763  0.00  0.00     0.000 C 
ENDBRANCH  12  13
ENDBRANCH  11  12
ENDBRANCH  10  11
ENDBRANCH   8  10
ENDBRANCH   1   8
TORSDOF 5
ENDMDL
MODEL 3
REMARK VINA RESULT:       6.0      3.357      4.973
REMARK  5 active torsions:
REMARK  status: ('A' for Active; 'I' for Inactive)
REMARK    1  A    between atoms: C_2  and  C_1 
REMARK    2  A    between atoms: O_6  and  C_1 
REMARK    3  A    between atoms: C_11  and  O_6 
REMARK    4  A    between atoms: C_12  and  C_11 
REMARK    5  A    between atoms: C_13  and  C_12 
ROOT
ATOM      1  C   UNL d   1      45.601 -14.013  44.604  0.00  0.00     0.064 A 
ATOM      2  C   UNL d   1      46.255 -14.489  44.434  0.00  0.00     0.009 A 
ATOM      3  C   UNL d   1      44.901 -14.364  44.867  0.00  0.00     0.009 A 
ATOM      4  C   UNL d   1      45.520 -15.660  44.785  0.00  0.00     0.196 A 
ATOM      5  C   UNL d   1      46.220 -15.309  44.522  0.00  0.00     0.042 A 
ATOM      6  C   UNL d   1      44.870 -15.184  44.955  0.00  0.00     0.042 A 
ATOM      7  O   UNL d   1      45.457 -16.487  44.884  0.00  0.00    -0.287 OA
ENDROOT
BRANCH   1   8
ATOM      8  C   UNL d   1      45.649 -13.191  44.511  0.00  0.00     0.300 C 
ATOM      9  O   UNL d   1      46.274 -12.768  44.845  0.00  0.00    -0.259 OA
BRANCH   8  10
ATOM     10  O   UNL d   1      45.063 -12.803  44.079  0.00  0.00    -0.271 OA
BRANCH  10  11
ATOM     11  C   UNL d   1      45.283 -12.192  43.568  0.00  0.00     0.126 C 
BRANCH  11  12
ATOM     12  C   UNL d   1      44.854 -12.080  42.871  0.00  0.00     0.027 C 
BRANCH  12  13
ATOM     13  C   UNL d   1      45.227 -12.159  42.145  0.00  0.00     0.002 C 
ATOM     14  C   UNL d   1      44.791 -12.098  41.448  0.00  0.00     0.000 C 
ENDBRANCH  12  13
ENDBRANCH  11  12
ENDBRANCH  10  11
ENDBRANCH   8  10
ENDBRANCH   1   8
TORSDOF 5
ENDMDL
