MODEL 1
REMARK VINA RESULT:      19.2      0.000      0.000
REMARK  1 active torsions:
REMARK  status: ('A' for Active; 'I' for Inactive)
REMARK    1  A    between atoms: N_3  and  C_1 
ROOT
ATOM      1  C   UNL d   1      45.921 -17.183  44.302  0.00  0.00     0.110 A 
ATOM      2  C   UNL d   1      45.948 -17.457  43.513  0.00  0.00     0.212 A 
ATOM      3  C   UNL d   1      46.181 -18.233  43.360  0.00  0.00     0.046 A 
ATOM      4  C   UNL d   1      46.127 -17.692  44.924  0.00  0.00     0.056 A 
ATOM      5  S   UNL d   1      46.361 -18.475  44.756  0.00  0.00    -0.085 SA
ATOM      6  C   UNL d   1      46.387 -18.740  43.979  0.00  0.00     0.033 A 
ATOM      7  C   UNL d   1      46.210 -18.508  42.583  0.00  0.00     0.004 A 
ATOM      8  O   UNL d   1      45.744 -16.955  42.895  0.00  0.00    -0.285 OA
ATOM      9  C   UNL d   1      46.618 -19.515  43.818  0.00  0.00     0.007 A 
ATOM     10  C   UNL d   1      46.439 -19.273  42.423  0.00  0.00     0.000 A 
ATOM     11  C   UNL d   1      46.647 -19.787  43.050  0.00  0.00     0.001 A 
ATOM     12  C   UNL d   1      46.469 -19.552  41.651  0.00  0.00     0.000 C 
ENDROOT
BRANCH   1  13
ATOM     13  N   UNL d   1      45.688 -16.405  44.465  0.00  0.00    -0.301 N 
ATOM     14  C   UNL d   1      46.193 -15.786  44.307  0.00  0.00     0.080 A 
ATOM     15  C   UNL d   1      45.965 -15.006  44.468  0.00  0.00     0.018 A 
ATOM     16  C   UNL d   1      46.473 -14.383  44.309  0.00  0.00     0.002 A 
ATOM     17  C   UNL d   1      45.223 -14.858  44.790  0.00  0.00     0.003 A 
ATOM     18  C   UNL d   1      46.244 -13.606  44.471  0.00  0.00     0.000 A 
ATOM     19  C   UNL d   1      45.499 -13.458  44.794  0.00  0.00     0.000 A 
ATOM     20  C   UNL d   1      44.986 -14.087  44.954  0.00  0.00     0.000 A 
ATOM     21  C   UNL d   1      44.699 -15.489  44.955  0.00  0.00     0.019 A 
ATOM     22  C   UNL d   1      44.940 -16.257  44.789  0.00  0.00     0.080 A 
ENDBRANCH   1  13
TORSDOF 1
ENDMDL
MODEL 2
REMARK VINA RESULT:      22.1      0.966      4.384
REMARK  1 active torsions:
REMARK  status: ('A' for Active; 'I' for Inactive)
REMARK    1  A    between atoms: N_3  and  C_1 
ROOT
ATOM      1  C   UNL d   1      45.462 -16.269  44.400  0.00  0.00     0.110 A 
ATOM      2  C   UNL d   1      45.910 -15.586  44.224  0.00  0.00     0.212 A 
ATOM      3  C   UNL d   1      45.608 -14.841  44.411  0.00  0.00     0.046 A 
ATOM      4  C   UNL d   1      44.718 -16.193  44.761  0.00  0.00     0.056 A 
ATOM      5  S   UNL d   1      44.424 -15.434  44.945  0.00  0.00    -0.085 SA
ATOM      6  C   UNL d   1      44.868 -14.766  44.770  0.00  0.00     0.033 A 
ATOM      7  C   UNL d   1      46.047 -14.165  44.239  0.00  0.00     0.004 A 
ATOM      8  O   UNL d   1      46.647 -15.658  43.867  0.00  0.00    -0.285 OA
ATOM      9  C   UNL d   1      44.572 -14.019  44.954  0.00  0.00     0.007 A 
ATOM     10  C   UNL d   1      45.757 -13.426  44.420  0.00  0.00     0.000 A 
ATOM     11  C   UNL d   1      45.007 -13.349  44.784  0.00  0.00     0.001 A 
ATOM     12  C   UNL d   1      46.189 -12.749  44.252  0.00  0.00     0.000 C 
ENDROOT
BRANCH   1  13
ATOM     13  N   UNL d   1      45.757 -17.019  44.216  0.00  0.00    -0.301 N 
ATOM     14  C   UNL d   1      45.758 -17.280  43.445  0.00  0.00     0.080 A 
ATOM     15  C   UNL d   1      46.053 -18.032  43.255  0.00  0.00     0.018 A 
ATOM     16  C   UNL d   1      46.054 -18.294  42.479  0.00  0.00     0.002 A 
ATOM     17  C   UNL d   1      46.345 -18.515  43.852  0.00  0.00     0.003 A 
ATOM     18  C   UNL d   1      46.348 -19.042  42.292  0.00  0.00     0.000 A 
ATOM     19  C   UNL d   1      46.642 -19.528  42.892  0.00  0.00     0.000 A 
ATOM     20  C   UNL d   1      46.640 -19.264  43.676  0.00  0.00     0.000 A 
ATOM     21  C   UNL d   1      46.347 -18.254  44.647  0.00  0.00     0.019 A 
ATOM     22  C   UNL d   1      46.051 -17.507  44.818  0.00  0.00     0.080 A 
ENDBRANCH   1  13
TORSDOF 1
ENDMDL
