MODEL 1
REMARK VINA RESULT:      -3.2      0.000      0.000
REMARK  3 active torsions:
REMARK  status: ('A' for Active; 'I' for Inactive)
REMARK    1  A    between atoms: N_2  and  S_1 
REMARK    2  A    between atoms: C_4  and  S_1 
REMARK       I    between atoms: C_8  and  N_10 
REMARK    3  A    between atoms: N_10  and  C_16 
ROOT
ATOM      1  S   UNL d   1      32.843  18.978 -23.027  0.00  0.00     0.271 S 
ATOM      2  O   UNL d   1      33.233  18.519 -22.466  0.00  0.00    -0.200 OA
ATOM      3  O   UNL d   1      32.452  19.440 -23.588  0.00  0.00    -0.200 OA
ENDROOT
BRANCH   1   4
ATOM      4  N   UNL d   1      32.747  18.312 -23.503  0.00  0.00    -0.229 N 
ATOM      5  C   UNL d   1      32.148  17.770 -23.327  0.00  0.00     0.092 A 
ATOM      6  C   UNL d   1      32.049  17.105 -23.799  0.00  0.00     0.018 A 
ATOM      7  C   UNL d   1      31.451  16.567 -23.622  0.00  0.00     0.002 A 
ATOM      8  C   UNL d   1      32.544  16.977 -24.447  0.00  0.00     0.003 A 
ATOM      9  C   UNL d   1      31.354  15.903 -24.095  0.00  0.00     0.000 A 
ATOM     10  C   UNL d   1      31.846  15.770 -24.742  0.00  0.00     0.000 A 
ATOM     11  C   UNL d   1      32.444  16.314 -24.916  0.00  0.00     0.000 A 
ATOM     12  C   UNL d   1      33.140  17.521 -24.617  0.00  0.00     0.020 A 
ATOM     13  C   UNL d   1      33.241  18.192 -24.142  0.00  0.00     0.092 A 
ENDBRANCH   1   4
BRANCH   1  14
ATOM     14  C   UNL d   1      32.942  19.642 -22.544  0.00  0.00     0.104 A 
ATOM     15  C   UNL d   1      32.904  19.556 -21.722  0.00  0.00     0.014 A 
ATOM     16  C   UNL d   1      33.004  20.222 -21.244  0.00  0.00     0.020 A 
ATOM     17  C   UNL d   1      33.140  20.962 -21.582  0.00  0.00     0.085 A 
ATOM     18  C   UNL d   1      33.175  21.033 -22.406  0.00  0.00     0.020 A 
ATOM     19  C   UNL d   1      33.077  20.373 -22.883  0.00  0.00     0.014 A 
BRANCH  17  20
ATOM     20  N   UNL d   1      33.238  21.617 -21.099  0.00  0.00    -0.208 NA
ATOM     21  C   UNL d   1      32.586  22.013 -20.794  0.00  0.00     0.279 C 
ATOM     22  O   UNL d   1      31.824  21.752 -20.972  0.00  0.00    -0.265 OA
ATOM     23  C   UNL d   1      32.685  22.672 -20.308  0.00  0.00     0.068 C 
ENDBRANCH  17  20
ENDBRANCH   1  14
TORSDOF 3
ENDMDL
MODEL 2
REMARK VINA RESULT:      -3.0      1.080      5.068
REMARK  3 active torsions:
REMARK  status: ('A' for Active; 'I' for Inactive)
REMARK    1  A    between atoms: N_2  and  S_1 
REMARK    2  A    between atoms: C_4  and  S_1 
REMARK       I    between atoms: C_8  and  N_10 
REMARK    3  A    between atoms: N_10  and  C_16 
ROOT
ATOM      1  S   UNL d   1      33.016  20.148 -22.148  0.00  0.00     0.271 S 
ATOM      2  O   UNL d   1      32.835  19.669 -21.504  0.00  0.00    -0.200 OA
ATOM      3  O   UNL d   1      33.196  20.626 -22.796  0.00  0.00    -0.200 OA
ENDROOT
BRANCH   1   4
ATOM      4  N   UNL d   1      33.006  20.811 -21.658  0.00  0.00    -0.229 N 
ATOM      5  C   UNL d   1      32.760  21.538 -21.964  0.00  0.00     0.092 A 
ATOM      6  C   UNL d   1      32.749  22.201 -21.479  0.00  0.00     0.018 A 
ATOM      7  C   UNL d   1      32.504  22.925 -21.786  0.00  0.00     0.002 A 
ATOM      8  C   UNL d   1      32.982  22.143 -20.690  0.00  0.00     0.003 A 
ATOM      9  C   UNL d   1      32.494  23.586 -21.300  0.00  0.00     0.000 A 
ATOM     10  C   UNL d   1      32.725  23.533 -20.511  0.00  0.00     0.000 A 
ATOM     11  C   UNL d   1      32.971  22.805 -20.208  0.00  0.00     0.000 A 
ATOM     12  C   UNL d   1      33.226  21.415 -20.391  0.00  0.00     0.020 A 
ATOM     13  C   UNL d   1      33.238  20.745 -20.878  0.00  0.00     0.092 A 
ENDBRANCH   1   4
BRANCH   1  14
ATOM     14  C   UNL d   1      33.023  19.480 -22.635  0.00  0.00     0.104 A 
ATOM     15  C   UNL d   1      33.235  18.746 -22.315  0.00  0.00     0.014 A 
ATOM     16  C   UNL d   1      33.241  18.081 -22.805  0.00  0.00     0.020 A 
ATOM     17  C   UNL d   1      33.039  18.148 -23.602  0.00  0.00     0.085 A 
ATOM     18  C   UNL d   1      32.829  18.888 -23.908  0.00  0.00     0.020 A 
ATOM     19  C   UNL d   1      32.823  19.550 -23.424  0.00  0.00     0.014 A 
BRANCH  17  20
ATOM     20  N   UNL d   1      33.048  17.483 -24.080  0.00  0.00    -0.208 NA
ATOM     21  C   UNL d   1      32.396  16.985 -24.116  0.00  0.00     0.279 C 
ATOM     22  O   UNL d   1      31.723  17.152 -23.668  0.00  0.00    -0.265 OA
ATOM     23  C   UNL d   1      32.405  16.314 -24.598  0.00  0.00     0.068 C 
ENDBRANCH  17  20
ENDBRANCH   1  14
TORSDOF 3
ENDMDL
MODEL 3
REMARK VINA RESULT:      -2.7      1.132      5.212
REMARK  3 active torsions:
REMARK  status: ('A' for Active; 'I' for Inactive)
REMARK    1  A    between atoms: N_2  and  S_1 
REMARK    2  A    between atoms: C_4  and  S_1 
REMARK       I    between atoms: C_8  and  N_10 
REMARK    3  A    between atoms: N_10  and  C_16 
ROOT
ATOM      1  S   UNL d   1      33.042  20.720 -22.170  0.00  0.00     0.271 S 
ATOM      2  O   UNL d   1      32.845  20.338 -21.468  0.00  0.00    -0.200 OA
ATOM      3  O   UNL d   1      33.240  21.100 -22.875  0.00  0.00    -0.200 OA
ENDROOT
BRANCH   1   4
ATOM      4  N   UNL d   1      32.991  21.448 -21.788  0.00  0.00    -0.229 N 
ATOM      5  C   UNL d   1      33.086  21.483 -20.967  0.00  0.00     0.092 A 
ATOM      6  C   UNL d   1      33.036  22.207 -20.582  0.00  0.00     0.018 A 
ATOM      7  C   UNL d   1      33.131  22.239 -19.765  0.00  0.00     0.002 A 
ATOM      8  C   UNL d   1      32.891  22.897 -21.010  0.00  0.00     0.003 A 
ATOM      9  C   UNL d   1      33.080  22.963 -19.381  0.00  0.00     0.000 A 
ATOM     10  C   UNL d   1      32.936  23.655 -19.804  0.00  0.00     0.000 A 
ATOM     11  C   UNL d   1      32.841  23.617 -20.624  0.00  0.00     0.000 A 
ATOM     12  C   UNL d   1      32.796  22.855 -21.828  0.00  0.00     0.020 A 
ATOM     13  C   UNL d   1      32.847  22.127 -22.218  0.00  0.00     0.092 A 
ENDBRANCH   1   4
BRANCH   1  14
ATOM     14  C   UNL d   1      33.092  19.986 -22.548  0.00  0.00     0.104 A 
ATOM     15  C   UNL d   1      33.167  19.956 -23.371  0.00  0.00     0.014 A 
ATOM     16  C   UNL d   1      33.216  19.220 -23.743  0.00  0.00     0.020 A 
ATOM     17  C   UNL d   1      33.191  18.525 -23.299  0.00  0.00     0.085 A 
ATOM     18  C   UNL d   1      33.116  18.570 -22.476  0.00  0.00     0.020 A 
ATOM     19  C   UNL d   1      33.067  19.300 -22.104  0.00  0.00     0.014 A 
BRANCH  17  20
ATOM     20  N   UNL d   1      33.241  17.800 -23.677  0.00  0.00    -0.208 NA
ATOM     21  C   UNL d   1      32.561  17.384 -23.875  0.00  0.00     0.279 C 
ATOM     22  O   UNL d   1      31.819  17.696 -23.694  0.00  0.00    -0.265 OA
ATOM     23  C   UNL d   1      32.611  16.654 -24.256  0.00  0.00     0.068 C 
ENDBRANCH  17  20
ENDBRANCH   1  14
TORSDOF 3
ENDMDL
MODEL 4
REMARK VINA RESULT:      -1.0      3.661      4.871
REMARK  3 active torsions:
REMARK  status: ('A' for Active; 'I' for Inactive)
REMARK    1  A    between atoms: N_2  and  S_1 
REMARK    2  A    between atoms: C_4  and  S_1 
REMARK       I    between atoms: C_8  and  N_10 
REMARK    3  A    between atoms: N_10  and  C_16 
ROOT
ATOM      1  S   UNL d   1      32.688  23.075 -21.028  0.00  0.00     0.271 S 
ATOM      2  O   UNL d   1      33.233  22.463 -20.954  0.00  0.00    -0.200 OA
ATOM      3  O   UNL d   1      32.142  23.689 -21.099  0.00  0.00    -0.200 OA
ENDROOT
BRANCH   1   4
ATOM      4  N   UNL d   1      32.707  22.992 -21.848  0.00  0.00    -0.229 N 
ATOM      5  C   UNL d   1      32.954  22.274 -22.177  0.00  0.00     0.092 A 
ATOM      6  C   UNL d   1      32.974  22.187 -22.993  0.00  0.00     0.018 A 
ATOM      7  C   UNL d   1      33.220  21.472 -23.319  0.00  0.00     0.002 A 
ATOM      8  C   UNL d   1      32.750  22.811 -23.484  0.00  0.00     0.003 A 
ATOM      9  C   UNL d   1      33.240  21.386 -24.135  0.00  0.00     0.000 A 
ATOM     10  C   UNL d   1      33.017  22.007 -24.630  0.00  0.00     0.000 A 
ATOM     11  C   UNL d   1      32.772  22.722 -24.298  0.00  0.00     0.000 A 
ATOM     12  C   UNL d   1      32.506  23.524 -23.150  0.00  0.00     0.020 A 
ATOM     13  C   UNL d   1      32.484  23.613 -22.327  0.00  0.00     0.092 A 
ENDBRANCH   1   4
BRANCH   1  14
ATOM     14  C   UNL d   1      32.674  23.153 -20.205  0.00  0.00     0.104 A 
ATOM     15  C   UNL d   1      33.241  23.626 -19.831  0.00  0.00     0.014 A 
ATOM     16  C   UNL d   1      33.222  23.700 -19.009  0.00  0.00     0.020 A 
ATOM     17  C   UNL d   1      32.646  23.308 -18.567  0.00  0.00     0.085 A 
ATOM     18  C   UNL d   1      32.085  22.838 -18.954  0.00  0.00     0.020 A 
ATOM     19  C   UNL d   1      32.102  22.763 -19.771  0.00  0.00     0.014 A 
BRANCH  17  20
ATOM     20  N   UNL d   1      32.636  23.388 -17.751  0.00  0.00    -0.208 NA
ATOM     21  C   UNL d   1      32.908  22.782 -17.268  0.00  0.00     0.279 C 
ATOM     22  O   UNL d   1      33.195  22.084 -17.603  0.00  0.00    -0.265 OA
ATOM     23  C   UNL d   1      32.897  22.863 -16.447  0.00  0.00     0.068 C 
ENDBRANCH  17  20
ENDBRANCH   1  14
TORSDOF 3
ENDMDL
