MODEL 1
REMARK VINA RESULT:      -0.2      0.000      0.000
REMARK  0 active torsions:
REMARK  status: ('A' for Active; 'I' for Inactive)
ROOT
ATOM      1  C   UNL d   1      23.389  12.166  -1.436  0.00  0.00     0.282 A 
ATOM      2  N   UNL d   1      23.707  11.856  -2.134  0.00  0.00    -0.189 NA
ATOM      3  N   UNL d   1      24.732  12.854  -2.104  0.00  0.00    -0.227 NA
ATOM      4  C   UNL d   1      23.742  12.816  -1.075  0.00  0.00     0.076 A 
ATOM      5  C   UNL d   1      24.378  12.200  -2.468  0.00  0.00     0.166 A 
ATOM      6  C   UNL d   1      24.413  13.160  -1.410  0.00  0.00     0.088 A 
ATOM      7  O   UNL d   1      22.718  11.822  -1.102  0.00  0.00    -0.265 OA
ATOM      8  C   UNL d   1      23.424  13.123  -0.381  0.00  0.00     0.006 A 
ATOM      9  C   UNL d   1      24.696  11.888  -3.169  0.00  0.00     0.042 C 
ATOM     10  C   UNL d   1      24.767  13.811  -1.049  0.00  0.00     0.019 A 
ATOM     11  C   UNL d   1      23.777  13.778  -0.014  0.00  0.00     0.000 A 
ATOM     12  C   UNL d   1      24.448  14.122  -0.349  0.00  0.00     0.002 A 
ENDROOT
TORSDOF 0
ENDMDL
