MODEL 1
REMARK VINA RESULT:      -4.8      0.000      0.000
REMARK  8 active torsions:
REMARK  status: ('A' for Active; 'I' for Inactive)
REMARK    1  A    between atoms: N_2  and  S_1 
REMARK    2  A    between atoms: C_6  and  S_1 
REMARK    3  A    between atoms: C_5  and  N_2 
REMARK    4  A    between atoms: C_4  and  C_3 
REMARK       I    between atoms: N_9  and  C_4 
REMARK    5  A    between atoms: C_14  and  N_9 
REMARK    6  A    between atoms: C_16  and  C_14 
REMARK    7  A    between atoms: O_20  and  C_15 
REMARK    8  A    between atoms: C_23  and  O_20 
ROOT
ATOM      1  C   UNL d   1     -39.345  15.200  17.187  0.00  0.00     0.076 A 
ATOM      2  C   UNL d   1     -39.263  15.145  18.012  0.00  0.00     0.098 A 
ATOM      3  C   UNL d   1     -40.090  15.297  16.851  0.00  0.00     0.006 A 
ATOM      4  C   UNL d   1     -39.935  15.188  18.496  0.00  0.00     0.020 A 
ATOM      5  C   UNL d   1     -40.758  15.340  17.333  0.00  0.00     0.000 A 
ATOM      6  C   UNL d   1     -40.681  15.286  18.155  0.00  0.00     0.002 A 
ENDROOT
BRANCH   2   7
ATOM      7  N   UNL d   1     -38.517  15.047  18.350  0.00  0.00    -0.158 NA
BRANCH   7   8
ATOM      8  S   UNL d   1     -38.445  14.755  19.117  0.00  0.00     0.285 S 
ATOM      9  O   UNL d   1     -38.615  13.998  18.848  0.00  0.00    -0.198 OA
ATOM     10  O   UNL d   1     -38.274  15.521  19.385  0.00  0.00    -0.198 OA
BRANCH   8  11
ATOM     11  C   UNL d   1     -38.374  14.461  19.883  0.00  0.00     0.105 A 
ATOM     12  C   UNL d   1     -38.545  14.943  20.530  0.00  0.00     0.015 A 
ATOM     13  C   UNL d   1     -38.473  14.647  21.295  0.00  0.00     0.025 A 
ATOM     14  C   UNL d   1     -38.229  13.868  21.415  0.00  0.00     0.100 A 
ATOM     15  C   UNL d   1     -38.057  13.384  20.763  0.00  0.00     0.025 A 
ATOM     16  C   UNL d   1     -38.130  13.683  20.002  0.00  0.00     0.015 A 
BRANCH  14  17
ATOM     17  O   UNL d   1     -38.157  13.572  22.179  0.00  0.00    -0.305 OA
BRANCH  17  18
ATOM     18  C   UNL d   1     -38.798  13.607  22.699  0.00  0.00     0.123 C 
ATOM     19  C   UNL d   1     -38.789  13.160  23.392  0.00  0.00     0.029 C 
ENDBRANCH  17  18
ENDBRANCH  14  17
ENDBRANCH   8  11
ENDBRANCH   7   8
ENDBRANCH   2   7
BRANCH   1  20
ATOM     20  C   UNL d   1     -38.677  15.156  16.703  0.00  0.00     0.281 C 
ATOM     21  N   UNL d   1     -38.618  14.564  16.130  0.00  0.00    -0.204 NA
ATOM     22  O   UNL d   1     -38.068  15.706  16.794  0.00  0.00    -0.265 OA
BRANCH  21  23
ATOM     23  C   UNL d   1     -37.948  14.525  15.650  0.00  0.00     0.127 C 
BRANCH  23  24
ATOM     24  C   UNL d   1     -37.946  14.038  14.984  0.00  0.00     0.119 A 
ATOM     25  O   UNL d   1     -37.941  13.217  14.990  0.00  0.00    -0.304 OA
ATOM     26  C   UNL d   1     -37.941  12.956  14.207  0.00  0.00     0.123 A 
ATOM     27  C   UNL d   1     -37.946  13.622  13.719  0.00  0.00     0.029 A 
ATOM     28  C   UNL d   1     -37.949  14.291  14.201  0.00  0.00     0.028 A 
ENDBRANCH  23  24
ENDBRANCH  21  23
ENDBRANCH   1  20
TORSDOF 8
ENDMDL
MODEL 2
REMARK VINA RESULT:      -4.7      8.621     10.411
REMARK  8 active torsions:
REMARK  status: ('A' for Active; 'I' for Inactive)
REMARK    1  A    between atoms: N_2  and  S_1 
REMARK    2  A    between atoms: C_6  and  S_1 
REMARK    3  A    between atoms: C_5  and  N_2 
REMARK    4  A    between atoms: C_4  and  C_3 
REMARK       I    between atoms: N_9  and  C_4 
REMARK    5  A    between atoms: C_14  and  N_9 
REMARK    6  A    between atoms: C_16  and  C_14 
REMARK    7  A    between atoms: O_20  and  C_15 
REMARK    8  A    between atoms: C_23  and  O_20 
ROOT
ATOM      1  C   UNL d   1     -48.279  12.335  22.892  0.00  0.00     0.076 A 
ATOM      2  C   UNL d   1     -47.450  12.385  22.922  0.00  0.00     0.098 A 
ATOM      3  C   UNL d   1     -48.670  11.712  23.263  0.00  0.00     0.006 A 
ATOM      4  C   UNL d   1     -47.017  11.805  23.327  0.00  0.00     0.020 A 
ATOM      5  C   UNL d   1     -48.238  11.135  23.666  0.00  0.00     0.000 A 
ATOM      6  C   UNL d   1     -47.413  11.182  23.698  0.00  0.00     0.002 A 
ENDROOT
BRANCH   2   7
ATOM      7  N   UNL d   1     -47.058  13.008  22.551  0.00  0.00    -0.158 NA
BRANCH   7   8
ATOM      8  S   UNL d   1     -46.255  12.946  22.376  0.00  0.00     0.285 S 
ATOM      9  O   UNL d   1     -46.068  13.285  23.100  0.00  0.00    -0.198 OA
ATOM     10  O   UNL d   1     -46.448  12.603  21.646  0.00  0.00    -0.198 OA
BRANCH   8  11
ATOM     11  C   UNL d   1     -45.451  12.885  22.203  0.00  0.00     0.105 A 
ATOM     12  C   UNL d   1     -45.025  12.222  22.444  0.00  0.00     0.015 A 
ATOM     13  C   UNL d   1     -44.222  12.163  22.270  0.00  0.00     0.025 A 
ATOM     14  C   UNL d   1     -43.844  12.768  21.856  0.00  0.00     0.100 A 
ATOM     15  C   UNL d   1     -44.275  13.435  21.614  0.00  0.00     0.025 A 
ATOM     16  C   UNL d   1     -45.075  13.490  21.789  0.00  0.00     0.015 A 
BRANCH  14  17
ATOM     17  O   UNL d   1     -43.042  12.710  21.682  0.00  0.00    -0.305 OA
BRANCH  17  18
ATOM     18  C   UNL d   1     -42.704  13.211  21.119  0.00  0.00     0.123 C 
ATOM     19  C   UNL d   1     -41.969  13.558  21.266  0.00  0.00     0.029 C 
ENDBRANCH  17  18
ENDBRANCH  14  17
ENDBRANCH   8  11
ENDBRANCH   7   8
ENDBRANCH   2   7
BRANCH   1  20
ATOM     20  C   UNL d   1     -48.712  12.912  22.490  0.00  0.00     0.281 C 
ATOM     21  N   UNL d   1     -48.956  13.596  22.883  0.00  0.00    -0.204 NA
ATOM     22  O   UNL d   1     -48.899  12.803  21.693  0.00  0.00    -0.265 OA
BRANCH  21  23
ATOM     23  C   UNL d   1     -49.389  14.169  22.475  0.00  0.00     0.127 C 
BRANCH  23  24
ATOM     24  C   UNL d   1     -49.650  14.845  22.870  0.00  0.00     0.119 A 
ATOM     25  O   UNL d   1     -49.243  15.246  23.459  0.00  0.00    -0.304 OA
ATOM     26  C   UNL d   1     -49.704  15.887  23.698  0.00  0.00     0.123 A 
ATOM     27  C   UNL d   1     -50.399  15.877  23.252  0.00  0.00     0.029 A 
ATOM     28  C   UNL d   1     -50.365  15.232  22.740  0.00  0.00     0.028 A 
ENDBRANCH  23  24
ENDBRANCH  21  23
ENDBRANCH   1  20
TORSDOF 8
ENDMDL
MODEL 3
REMARK VINA RESULT:      -4.3      8.805     10.514
REMARK  8 active torsions:
REMARK  status: ('A' for Active; 'I' for Inactive)
REMARK    1  A    between atoms: N_2  and  S_1 
REMARK    2  A    between atoms: C_6  and  S_1 
REMARK    3  A    between atoms: C_5  and  N_2 
REMARK    4  A    between atoms: C_4  and  C_3 
REMARK       I    between atoms: N_9  and  C_4 
REMARK    5  A    between atoms: C_14  and  N_9 
REMARK    6  A    between atoms: C_16  and  C_14 
REMARK    7  A    between atoms: O_20  and  C_15 
REMARK    8  A    between atoms: C_23  and  O_20 
ROOT
ATOM      1  C   UNL d   1     -48.295  12.469  23.429  0.00  0.00     0.076 A 
ATOM      2  C   UNL d   1     -47.476  12.404  23.306  0.00  0.00     0.098 A 
ATOM      3  C   UNL d   1     -48.739  11.802  23.618  0.00  0.00     0.006 A 
ATOM      4  C   UNL d   1     -47.107  11.664  23.373  0.00  0.00     0.020 A 
ATOM      5  C   UNL d   1     -48.371  11.067  23.685  0.00  0.00     0.000 A 
ATOM      6  C   UNL d   1     -47.556  10.998  23.563  0.00  0.00     0.002 A 
ENDROOT
BRANCH   2   7
ATOM      7  N   UNL d   1     -47.030  13.071  23.117  0.00  0.00    -0.158 NA
BRANCH   7   8
ATOM      8  S   UNL d   1     -46.276  12.988  22.795  0.00  0.00     0.285 S 
ATOM      9  O   UNL d   1     -45.956  12.934  23.549  0.00  0.00    -0.198 OA
ATOM     10  O   UNL d   1     -46.603  13.043  22.035  0.00  0.00    -0.198 OA
BRANCH   8  11
ATOM     11  C   UNL d   1     -45.521  12.904  22.475  0.00  0.00     0.105 A 
ATOM     12  C   UNL d   1     -45.202  13.502  22.005  0.00  0.00     0.015 A 
ATOM     13  C   UNL d   1     -44.447  13.417  21.687  0.00  0.00     0.025 A 
ATOM     14  C   UNL d   1     -44.010  12.734  21.837  0.00  0.00     0.100 A 
ATOM     15  C   UNL d   1     -44.333  12.133  22.311  0.00  0.00     0.025 A 
ATOM     16  C   UNL d   1     -45.086  12.221  22.626  0.00  0.00     0.015 A 
BRANCH  14  17
ATOM     17  O   UNL d   1     -43.257  12.648  21.520  0.00  0.00    -0.305 OA
BRANCH  17  18
ATOM     18  C   UNL d   1     -42.885  13.290  21.155  0.00  0.00     0.123 C 
ATOM     19  C   UNL d   1     -42.065  13.294  21.066  0.00  0.00     0.029 C 
ENDBRANCH  17  18
ENDBRANCH  14  17
ENDBRANCH   8  11
ENDBRANCH   7   8
ENDBRANCH   2   7
BRANCH   1  20
ATOM     20  C   UNL d   1     -48.664  13.205  23.363  0.00  0.00     0.281 C 
ATOM     21  N   UNL d   1     -49.393  13.269  22.981  0.00  0.00    -0.204 NA
ATOM     22  O   UNL d   1     -48.302  13.876  23.679  0.00  0.00    -0.265 OA
BRANCH  21  23
ATOM     23  C   UNL d   1     -49.758  14.008  22.917  0.00  0.00     0.127 C 
BRANCH  23  24
ATOM     24  C   UNL d   1     -50.273  14.160  22.291  0.00  0.00     0.119 A 
ATOM     25  O   UNL d   1     -50.573  14.895  22.083  0.00  0.00    -0.304 OA
ATOM     26  C   UNL d   1     -51.064  14.795  21.428  0.00  0.00     0.123 A 
ATOM     27  C   UNL d   1     -51.064  13.992  21.233  0.00  0.00     0.029 A 
ATOM     28  C   UNL d   1     -50.575  13.600  21.768  0.00  0.00     0.028 A 
ENDBRANCH  23  24
ENDBRANCH  21  23
ENDBRANCH   1  20
TORSDOF 8
ENDMDL
MODEL 4
REMARK VINA RESULT:      -3.1      8.314     10.020
REMARK  8 active torsions:
REMARK  status: ('A' for Active; 'I' for Inactive)
REMARK    1  A    between atoms: N_2  and  S_1 
REMARK    2  A    between atoms: C_6  and  S_1 
REMARK    3  A    between atoms: C_5  and  N_2 
REMARK    4  A    between atoms: C_4  and  C_3 
REMARK       I    between atoms: N_9  and  C_4 
REMARK    5  A    between atoms: C_14  and  N_9 
REMARK    6  A    between atoms: C_16  and  C_14 
REMARK    7  A    between atoms: O_20  and  C_15 
REMARK    8  A    between atoms: C_23  and  O_20 
ROOT
ATOM      1  C   UNL d   1     -47.453  13.513  22.951  0.00  0.00     0.076 A 
ATOM      2  C   UNL d   1     -46.674  13.534  22.661  0.00  0.00     0.098 A 
ATOM      3  C   UNL d   1     -47.872  14.213  23.063  0.00  0.00     0.006 A 
ATOM      4  C   UNL d   1     -46.321  14.264  22.485  0.00  0.00     0.020 A 
ATOM      5  C   UNL d   1     -47.519  14.938  22.887  0.00  0.00     0.000 A 
ATOM      6  C   UNL d   1     -46.745  14.963  22.599  0.00  0.00     0.002 A 
ENDROOT
BRANCH   2   7
ATOM      7  N   UNL d   1     -46.253  12.835  22.548  0.00  0.00    -0.158 NA
BRANCH   7   8
ATOM      8  S   UNL d   1     -45.473  12.858  22.284  0.00  0.00     0.285 S 
ATOM      9  O   UNL d   1     -45.733  12.843  21.506  0.00  0.00    -0.198 OA
ATOM     10  O   UNL d   1     -45.215  12.874  23.072  0.00  0.00    -0.198 OA
BRANCH   8  11
ATOM     11  C   UNL d   1     -44.694  12.882  22.018  0.00  0.00     0.105 A 
ATOM     12  C   UNL d   1     -44.413  13.546  21.617  0.00  0.00     0.015 A 
ATOM     13  C   UNL d   1     -43.634  13.568  21.351  0.00  0.00     0.025 A 
ATOM     14  C   UNL d   1     -43.134  12.926  21.485  0.00  0.00     0.100 A 
ATOM     15  C   UNL d   1     -43.418  12.258  21.889  0.00  0.00     0.025 A 
ATOM     16  C   UNL d   1     -44.196  12.240  22.152  0.00  0.00     0.015 A 
BRANCH  14  17
ATOM     17  O   UNL d   1     -42.356  12.946  21.220  0.00  0.00    -0.305 OA
BRANCH  17  18
ATOM     18  C   UNL d   1     -42.039  13.649  20.922  0.00  0.00     0.123 C 
ATOM     19  C   UNL d   1     -41.229  13.702  20.770  0.00  0.00     0.029 C 
ENDBRANCH  17  18
ENDBRANCH  14  17
ENDBRANCH   8  11
ENDBRANCH   7   8
ENDBRANCH   2   7
BRANCH   1  20
ATOM     20  C   UNL d   1     -47.806  12.787  23.127  0.00  0.00     0.281 C 
ATOM     21  N   UNL d   1     -48.601  12.658  22.941  0.00  0.00    -0.204 NA
ATOM     22  O   UNL d   1     -47.364  12.192  23.489  0.00  0.00    -0.265 OA
BRANCH  21  23
ATOM     23  C   UNL d   1     -48.949  11.931  23.120  0.00  0.00     0.127 C 
BRANCH  23  24
ATOM     24  C   UNL d   1     -49.761  11.887  23.257  0.00  0.00     0.119 A 
ATOM     25  O   UNL d   1     -50.144  11.308  23.696  0.00  0.00    -0.304 OA
ATOM     26  C   UNL d   1     -50.952  11.475  23.691  0.00  0.00     0.123 A 
ATOM     27  C   UNL d   1     -51.064  12.161  23.245  0.00  0.00     0.029 A 
ATOM     28  C   UNL d   1     -50.327  12.415  22.977  0.00  0.00     0.028 A 
ENDBRANCH  23  24
ENDBRANCH  21  23
ENDBRANCH   1  20
TORSDOF 8
ENDMDL
MODEL 5
REMARK VINA RESULT:      -3.1      9.163     10.954
REMARK  8 active torsions:
REMARK  status: ('A' for Active; 'I' for Inactive)
REMARK    1  A    between atoms: N_2  and  S_1 
REMARK    2  A    between atoms: C_6  and  S_1 
REMARK    3  A    between atoms: C_5  and  N_2 
REMARK    4  A    between atoms: C_4  and  C_3 
REMARK       I    between atoms: N_9  and  C_4 
REMARK    5  A    between atoms: C_14  and  N_9 
REMARK    6  A    between atoms: C_16  and  C_14 
REMARK    7  A    between atoms: O_20  and  C_15 
REMARK    8  A    between atoms: C_23  and  O_20 
ROOT
ATOM      1  C   UNL d   1     -48.725  12.731  21.862  0.00  0.00     0.076 A 
ATOM      2  C   UNL d   1     -47.941  12.512  22.029  0.00  0.00     0.098 A 
ATOM      3  C   UNL d   1     -48.981  12.791  21.082  0.00  0.00     0.006 A 
ATOM      4  C   UNL d   1     -47.417  12.353  21.406  0.00  0.00     0.020 A 
ATOM      5  C   UNL d   1     -48.459  12.633  20.463  0.00  0.00     0.000 A 
ATOM      6  C   UNL d   1     -47.678  12.414  20.624  0.00  0.00     0.002 A 
ENDROOT
BRANCH   2   7
ATOM      7  N   UNL d   1     -47.684  12.451  22.809  0.00  0.00    -0.158 NA
BRANCH   7   8
ATOM      8  S   UNL d   1     -46.965  12.088  22.981  0.00  0.00     0.285 S 
ATOM      9  O   UNL d   1     -46.574  12.802  22.872  0.00  0.00    -0.198 OA
ATOM     10  O   UNL d   1     -47.362  11.368  23.091  0.00  0.00    -0.198 OA
BRANCH   8  11
ATOM     11  C   UNL d   1     -46.244  11.727  23.153  0.00  0.00     0.105 A 
ATOM     12  C   UNL d   1     -45.536  12.106  22.967  0.00  0.00     0.015 A 
ATOM     13  C   UNL d   1     -44.817  11.744  23.139  0.00  0.00     0.025 A 
ATOM     14  C   UNL d   1     -44.804  11.001  23.498  0.00  0.00     0.100 A 
ATOM     15  C   UNL d   1     -45.518  10.621  23.685  0.00  0.00     0.025 A 
ATOM     16  C   UNL d   1     -46.233  10.985  23.512  0.00  0.00     0.015 A 
BRANCH  14  17
ATOM     17  O   UNL d   1     -44.086  10.639  23.671  0.00  0.00    -0.305 OA
BRANCH  17  18
ATOM     18  C   UNL d   1     -43.483  10.625  23.106  0.00  0.00     0.123 C 
ATOM     19  C   UNL d   1     -43.024   9.946  23.013  0.00  0.00     0.029 C 
ENDBRANCH  17  18
ENDBRANCH  14  17
ENDBRANCH   8  11
ENDBRANCH   7   8
ENDBRANCH   2   7
BRANCH   1  20
ATOM     20  C   UNL d   1     -49.249  12.890  22.481  0.00  0.00     0.281 C 
ATOM     21  N   UNL d   1     -49.540  13.655  22.591  0.00  0.00    -0.204 NA
ATOM     22  O   UNL d   1     -49.480  12.282  22.989  0.00  0.00    -0.265 OA
BRANCH  21  23
ATOM     23  C   UNL d   1     -50.063  13.808  23.212  0.00  0.00     0.127 C 
BRANCH  23  24
ATOM     24  C   UNL d   1     -50.292  14.583  23.376  0.00  0.00     0.119 A 
ATOM     25  O   UNL d   1     -49.791  15.198  23.586  0.00  0.00    -0.304 OA
ATOM     26  C   UNL d   1     -50.250  15.875  23.698  0.00  0.00     0.123 A 
ATOM     27  C   UNL d   1     -51.037  15.671  23.556  0.00  0.00     0.029 A 
ATOM     28  C   UNL d   1     -51.063  14.872  23.356  0.00  0.00     0.028 A 
ENDBRANCH  23  24
ENDBRANCH  21  23
ENDBRANCH   1  20
TORSDOF 8
ENDMDL
MODEL 6
REMARK VINA RESULT:      -2.4      9.193     10.592
REMARK  8 active torsions:
REMARK  status: ('A' for Active; 'I' for Inactive)
REMARK    1  A    between atoms: N_2  and  S_1 
REMARK    2  A    between atoms: C_6  and  S_1 
REMARK    3  A    between atoms: C_5  and  N_2 
REMARK    4  A    between atoms: C_4  and  C_3 
REMARK       I    between atoms: N_9  and  C_4 
REMARK    5  A    between atoms: C_14  and  N_9 
REMARK    6  A    between atoms: C_16  and  C_14 
REMARK    7  A    between atoms: O_20  and  C_15 
REMARK    8  A    between atoms: C_23  and  O_20 
ROOT
ATOM      1  C   UNL d   1     -47.682  14.632  22.724  0.00  0.00     0.076 A 
ATOM      2  C   UNL d   1     -47.167  14.028  22.970  0.00  0.00     0.098 A 
ATOM      3  C   UNL d   1     -47.384  15.304  22.353  0.00  0.00     0.006 A 
ATOM      4  C   UNL d   1     -46.351  14.104  22.841  0.00  0.00     0.020 A 
ATOM      5  C   UNL d   1     -46.572  15.379  22.225  0.00  0.00     0.000 A 
ATOM      6  C   UNL d   1     -46.056  14.780  22.469  0.00  0.00     0.002 A 
ENDROOT
BRANCH   2   7
ATOM      7  N   UNL d   1     -47.464  13.355  23.342  0.00  0.00    -0.158 NA
BRANCH   7   8
ATOM      8  S   UNL d   1     -46.997  12.680  23.411  0.00  0.00     0.285 S 
ATOM      9  O   UNL d   1     -46.375  13.135  23.694  0.00  0.00    -0.198 OA
ATOM     10  O   UNL d   1     -47.627  12.223  23.125  0.00  0.00    -0.198 OA
BRANCH   8  11
ATOM     11  C   UNL d   1     -46.527  12.006  23.482  0.00  0.00     0.105 A 
ATOM     12  C   UNL d   1     -46.876  11.260  23.514  0.00  0.00     0.015 A 
ATOM     13  C   UNL d   1     -46.405  10.588  23.585  0.00  0.00     0.025 A 
ATOM     14  C   UNL d   1     -45.585  10.661  23.623  0.00  0.00     0.100 A 
ATOM     15  C   UNL d   1     -45.235  11.413  23.591  0.00  0.00     0.025 A 
ATOM     16  C   UNL d   1     -45.708  12.081  23.521  0.00  0.00     0.015 A 
BRANCH  14  17
ATOM     17  O   UNL d   1     -45.114   9.990  23.694  0.00  0.00    -0.305 OA
BRANCH  17  18
ATOM     18  C   UNL d   1     -44.298  10.044  23.574  0.00  0.00     0.123 C 
ATOM     19  C   UNL d   1     -43.888   9.404  23.252  0.00  0.00     0.029 C 
ENDBRANCH  17  18
ENDBRANCH  14  17
ENDBRANCH   8  11
ENDBRANCH   7   8
ENDBRANCH   2   7
BRANCH   1  20
ATOM     20  C   UNL d   1     -48.494  14.558  22.852  0.00  0.00     0.281 C 
ATOM     21  N   UNL d   1     -49.015  14.543  22.211  0.00  0.00    -0.204 NA
ATOM     22  O   UNL d   1     -48.785  14.499  23.622  0.00  0.00    -0.265 OA
BRANCH  21  23
ATOM     23  C   UNL d   1     -49.826  14.468  22.344  0.00  0.00     0.127 C 
BRANCH  23  24
ATOM     24  C   UNL d   1     -50.293  14.040  21.816  0.00  0.00     0.119 A 
ATOM     25  O   UNL d   1     -50.477  14.262  21.047  0.00  0.00    -0.304 OA
ATOM     26  C   UNL d   1     -50.954  13.674  20.719  0.00  0.00     0.123 A 
ATOM     27  C   UNL d   1     -51.064  13.089  21.292  0.00  0.00     0.029 A 
ATOM     28  C   UNL d   1     -50.654  13.316  21.970  0.00  0.00     0.028 A 
ENDBRANCH  23  24
ENDBRANCH  21  23
ENDBRANCH   1  20
TORSDOF 8
ENDMDL
MODEL 7
REMARK VINA RESULT:      -1.9      7.238      9.075
REMARK  8 active torsions:
REMARK  status: ('A' for Active; 'I' for Inactive)
REMARK    1  A    between atoms: N_2  and  S_1 
REMARK    2  A    between atoms: C_6  and  S_1 
REMARK    3  A    between atoms: C_5  and  N_2 
REMARK    4  A    between atoms: C_4  and  C_3 
REMARK       I    between atoms: N_9  and  C_4 
REMARK    5  A    between atoms: C_14  and  N_9 
REMARK    6  A    between atoms: C_16  and  C_14 
REMARK    7  A    between atoms: O_20  and  C_15 
REMARK    8  A    between atoms: C_23  and  O_20 
ROOT
ATOM      1  C   UNL d   1     -46.268  12.395  23.009  0.00  0.00     0.076 A 
ATOM      2  C   UNL d   1     -45.535  12.414  22.618  0.00  0.00     0.098 A 
ATOM      3  C   UNL d   1     -46.436  11.794  23.546  0.00  0.00     0.006 A 
ATOM      4  C   UNL d   1     -44.972  11.824  22.772  0.00  0.00     0.020 A 
ATOM      5  C   UNL d   1     -45.875  11.208  23.698  0.00  0.00     0.000 A 
ATOM      6  C   UNL d   1     -45.144  11.223  23.311  0.00  0.00     0.002 A 
ENDROOT
BRANCH   2   7
ATOM      7  N   UNL d   1     -45.365  13.015  22.080  0.00  0.00    -0.158 NA
BRANCH   7   8
ATOM      8  S   UNL d   1     -44.600  13.106  21.788  0.00  0.00     0.285 S 
ATOM      9  O   UNL d   1     -44.491  13.761  22.270  0.00  0.00    -0.198 OA
ATOM     10  O   UNL d   1     -44.715  12.444  21.302  0.00  0.00    -0.198 OA
BRANCH   8  11
ATOM     11  C   UNL d   1     -43.835  13.200  21.497  0.00  0.00     0.105 A 
ATOM     12  C   UNL d   1     -43.575  12.743  20.862  0.00  0.00     0.015 A 
ATOM     13  C   UNL d   1     -42.809  12.838  20.572  0.00  0.00     0.025 A 
ATOM     14  C   UNL d   1     -42.303  13.389  20.918  0.00  0.00     0.100 A 
ATOM     15  C   UNL d   1     -42.567  13.848  21.558  0.00  0.00     0.025 A 
ATOM     16  C   UNL d   1     -43.330  13.751  21.843  0.00  0.00     0.015 A 
BRANCH  14  17
ATOM     17  O   UNL d   1     -41.539  13.485  20.630  0.00  0.00    -0.305 OA
BRANCH  17  18
ATOM     18  C   UNL d   1     -41.239  14.243  20.495  0.00  0.00     0.123 C 
ATOM     19  C   UNL d   1     -40.489  14.335  20.165  0.00  0.00     0.029 C 
ENDBRANCH  17  18
ENDBRANCH  14  17
ENDBRANCH   8  11
ENDBRANCH   7   8
ENDBRANCH   2   7
BRANCH   1  20
ATOM     20  C   UNL d   1     -46.830  12.982  22.857  0.00  0.00     0.281 C 
ATOM     21  N   UNL d   1     -47.543  12.786  22.489  0.00  0.00    -0.204 NA
ATOM     22  O   UNL d   1     -46.676  13.763  23.075  0.00  0.00    -0.265 OA
BRANCH  21  23
ATOM     23  C   UNL d   1     -48.101  13.376  22.340  0.00  0.00     0.127 C 
BRANCH  23  24
ATOM     24  C   UNL d   1     -48.842  13.175  22.039  0.00  0.00     0.119 A 
ATOM     25  O   UNL d   1     -49.563  13.468  22.301  0.00  0.00    -0.304 OA
ATOM     26  C   UNL d   1     -50.159  13.121  21.848  0.00  0.00     0.123 A 
ATOM     27  C   UNL d   1     -49.800  12.613  21.305  0.00  0.00     0.029 A 
ATOM     28  C   UNL d   1     -48.985  12.647  21.424  0.00  0.00     0.028 A 
ENDBRANCH  23  24
ENDBRANCH  21  23
ENDBRANCH   1  20
TORSDOF 8
ENDMDL
