MODEL 1
REMARK VINA RESULT:      -2.5      0.000      0.000
REMARK  3 active torsions:
REMARK  status: ('A' for Active; 'I' for Inactive)
REMARK    1  A    between atoms: C_4  and  C_1 
REMARK    2  A    between atoms: C_5  and  C_6 
REMARK       I    between atoms: C_6  and  N_7 
REMARK    3  A    between atoms: N_7  and  C_8 
ROOT
ATOM      1  C   UNL d   1      59.026   0.097  29.946  0.00  0.00     0.042 A 
ATOM      2  C   UNL d   1      59.021  -0.572  29.468  0.00  0.00     0.087 A 
ATOM      3  C   UNL d   1      59.605   0.682  29.842  0.00  0.00     0.004 A 
ATOM      4  C   UNL d   1      59.592  -0.663  28.884  0.00  0.00     0.019 A 
ATOM      5  C   UNL d   1      60.175   0.583  29.253  0.00  0.00     0.000 A 
ATOM      6  C   UNL d   1      60.166  -0.090  28.776  0.00  0.00     0.002 A 
ENDROOT
BRANCH   1   7
ATOM      7  C   UNL d   1      58.456   0.195  30.535  0.00  0.00     0.112 A 
ATOM      8  N   UNL d   1      57.644   0.124  30.506  0.00  0.00    -0.238 NA
ATOM      9  C   UNL d   1      57.352   0.285  31.261  0.00  0.00     0.088 A 
ATOM     10  C   UNL d   1      56.579   0.299  31.566  0.00  0.00     0.020 A 
ATOM     11  C   UNL d   1      57.990   0.456  31.749  0.00  0.00     0.049 A 
ATOM     12  C   UNL d   1      56.453   0.482  32.356  0.00  0.00     0.002 A 
ATOM     13  C   UNL d   1      57.093   0.654  32.851  0.00  0.00     0.001 A 
ATOM     14  C   UNL d   1      57.866   0.641  32.546  0.00  0.00     0.008 A 
ATOM     15  S   UNL d   1      58.672   0.399  31.297  0.00  0.00    -0.066 SA
ENDBRANCH   1   7
BRANCH   2  16
ATOM     16  N   UNL d   1      58.439  -1.151  29.579  0.00  0.00    -0.206 NA
ATOM     17  C   UNL d   1      58.645  -1.959  29.537  0.00  0.00     0.304 C 
ATOM     18  O   UNL d   1      58.067  -2.534  29.647  0.00  0.00    -0.263 OA
BRANCH  17  19
ATOM     19  C   UNL d   1      59.424  -2.184  29.385  0.00  0.00     0.182 A 
ATOM     20  O   UNL d   1      59.937  -2.353  30.009  0.00  0.00    -0.296 OA
ATOM     21  C   UNL d   1      60.716  -2.579  29.856  0.00  0.00     0.150 A 
ATOM     22  C   UNL d   1      60.982  -2.636  29.080  0.00  0.00     0.149 A 
ATOM     23  O   UNL d   1      60.468  -2.467  28.455  0.00  0.00    -0.299 OA
ATOM     24  C   UNL d   1      59.689  -2.241  28.608  0.00  0.00     0.152 A 
ENDBRANCH  17  19
ENDBRANCH   2  16
TORSDOF 3
ENDMDL
MODEL 2
REMARK VINA RESULT:      -2.3      1.287      1.945
REMARK  3 active torsions:
REMARK  status: ('A' for Active; 'I' for Inactive)
REMARK    1  A    between atoms: C_4  and  C_1 
REMARK    2  A    between atoms: C_5  and  C_6 
REMARK       I    between atoms: C_6  and  N_7 
REMARK    3  A    between atoms: N_7  and  C_8 
ROOT
ATOM      1  C   UNL d   1      58.495   0.305  31.600  0.00  0.00     0.042 A 
ATOM      2  C   UNL d   1      58.597   0.314  30.785  0.00  0.00     0.087 A 
ATOM      3  C   UNL d   1      59.130   0.485  32.104  0.00  0.00     0.004 A 
ATOM      4  C   UNL d   1      59.329   0.502  30.465  0.00  0.00     0.019 A 
ATOM      5  C   UNL d   1      59.863   0.674  31.775  0.00  0.00     0.000 A 
ATOM      6  C   UNL d   1      59.960   0.681  30.955  0.00  0.00     0.002 A 
ENDROOT
BRANCH   1   7
ATOM      7  C   UNL d   1      57.762   0.116  31.930  0.00  0.00     0.112 A 
ATOM      8  N   UNL d   1      57.349  -0.587  31.940  0.00  0.00    -0.238 NA
ATOM      9  C   UNL d   1      56.643  -0.456  32.348  0.00  0.00     0.088 A 
ATOM     10  C   UNL d   1      56.008  -0.959  32.534  0.00  0.00     0.020 A 
ATOM     11  C   UNL d   1      56.629   0.330  32.585  0.00  0.00     0.049 A 
ATOM     12  C   UNL d   1      55.365  -0.670  32.955  0.00  0.00     0.002 A 
ATOM     13  C   UNL d   1      55.347   0.122  33.196  0.00  0.00     0.001 A 
ATOM     14  C   UNL d   1      55.982   0.624  33.010  0.00  0.00     0.008 A 
ATOM     15  S   UNL d   1      57.322   0.682  32.325  0.00  0.00    -0.066 SA
ENDBRANCH   1   7
BRANCH   2  16
ATOM     16  N   UNL d   1      57.958   0.132  30.290  0.00  0.00    -0.206 NA
ATOM     17  C   UNL d   1      58.098  -0.192  29.534  0.00  0.00     0.304 C 
ATOM     18  O   UNL d   1      57.463  -0.373  29.043  0.00  0.00    -0.263 OA
BRANCH  17  19
ATOM     19  C   UNL d   1      58.869  -0.334  29.277  0.00  0.00     0.182 A 
ATOM     20  O   UNL d   1      59.230  -1.061  29.426  0.00  0.00    -0.296 OA
ATOM     21  C   UNL d   1      60.001  -1.202  29.168  0.00  0.00     0.150 A 
ATOM     22  C   UNL d   1      60.411  -0.617  28.761  0.00  0.00     0.149 A 
ATOM     23  O   UNL d   1      60.049   0.111  28.612  0.00  0.00    -0.299 OA
ATOM     24  C   UNL d   1      59.278   0.252  28.870  0.00  0.00     0.152 A 
ENDBRANCH  17  19
ENDBRANCH   2  16
TORSDOF 3
ENDMDL
MODEL 3
REMARK VINA RESULT:      -0.3      2.261      4.623
REMARK  3 active torsions:
REMARK  status: ('A' for Active; 'I' for Inactive)
REMARK    1  A    between atoms: C_4  and  C_1 
REMARK    2  A    between atoms: C_5  and  C_6 
REMARK       I    between atoms: C_6  and  N_7 
REMARK    3  A    between atoms: N_7  and  C_8 
ROOT
ATOM      1  C   UNL d   1      57.864   0.101  32.101  0.00  0.00     0.042 A 
ATOM      2  C   UNL d   1      57.226  -0.264  32.468  0.00  0.00     0.087 A 
ATOM      3  C   UNL d   1      58.383   0.578  32.539  0.00  0.00     0.004 A 
ATOM      4  C   UNL d   1      57.099  -0.157  33.273  0.00  0.00     0.019 A 
ATOM      5  C   UNL d   1      58.249   0.681  33.347  0.00  0.00     0.000 A 
ATOM      6  C   UNL d   1      57.607   0.312  33.711  0.00  0.00     0.002 A 
ENDROOT
BRANCH   1   7
ATOM      7  C   UNL d   1      57.997  -0.002  31.293  0.00  0.00     0.112 A 
ATOM      8  N   UNL d   1      58.311  -0.632  30.882  0.00  0.00    -0.238 NA
ATOM      9  C   UNL d   1      58.315  -0.432  30.081  0.00  0.00     0.088 A 
ATOM     10  C   UNL d   1      58.566  -0.846  29.406  0.00  0.00     0.020 A 
ATOM     11  C   UNL d   1      58.002   0.324  30.007  0.00  0.00     0.049 A 
ATOM     12  C   UNL d   1      58.502  -0.500  28.664  0.00  0.00     0.002 A 
ATOM     13  C   UNL d   1      58.187   0.261  28.586  0.00  0.00     0.001 A 
ATOM     14  C   UNL d   1      57.936   0.675  29.261  0.00  0.00     0.008 A 
ATOM     15  S   UNL d   1      57.807   0.588  30.758  0.00  0.00    -0.066 SA
ENDBRANCH   1   7
BRANCH   2  16
ATOM     16  N   UNL d   1      56.713  -0.738  32.023  0.00  0.00    -0.206 NA
ATOM     17  C   UNL d   1      55.920  -0.831  32.265  0.00  0.00     0.304 C 
ATOM     18  O   UNL d   1      55.410  -1.303  31.822  0.00  0.00    -0.263 OA
BRANCH  17  19
ATOM     19  C   UNL d   1      55.643  -0.454  32.944  0.00  0.00     0.182 A 
ATOM     20  O   UNL d   1      55.319   0.304  32.896  0.00  0.00    -0.296 OA
ATOM     21  C   UNL d   1      55.042   0.681  33.575  0.00  0.00     0.150 A 
ATOM     22  C   UNL d   1      55.088   0.301  34.303  0.00  0.00     0.149 A 
ATOM     23  O   UNL d   1      55.412  -0.458  34.351  0.00  0.00    -0.299 OA
ATOM     24  C   UNL d   1      55.689  -0.834  33.671  0.00  0.00     0.152 A 
ENDBRANCH  17  19
ENDBRANCH   2  16
TORSDOF 3
ENDMDL
