MODEL 1
REMARK VINA RESULT:      52.0      0.000      0.000
REMARK  6 active torsions:
REMARK  status: ('A' for Active; 'I' for Inactive)
REMARK    1  A    between atoms: N_3  and  C_1 
REMARK    2  A    between atoms: C_5  and  C_2 
REMARK    3  A    between atoms: C_7  and  C_5 
REMARK    4  A    between atoms: C_8  and  C_5 
REMARK    5  A    between atoms: O_15  and  C_7 
REMARK    6  A    between atoms: C_19  and  O_15 
ROOT
ATOM      1  C   UNL d   1      14.823  14.155  -1.041  0.00  0.00     0.166 A 
ATOM      2  C   UNL d   1      14.577  14.277  -1.819  0.00  0.00     0.122 A 
ATOM      3  N   UNL d   1      15.134  14.782  -0.596  0.00  0.00    -0.225 NA
ATOM      4  N   UNL d   1      14.643  15.031  -2.152  0.00  0.00    -0.241 NA
ATOM      5  C   UNL d   1      15.196  15.533  -0.937  0.00  0.00     0.101 A 
ATOM      6  C   UNL d   1      14.952  15.655  -1.711  0.00  0.00     0.099 A 
ATOM      7  C   UNL d   1      15.503  16.150  -0.497  0.00  0.00     0.021 A 
ATOM      8  C   UNL d   1      15.016  16.406  -2.048  0.00  0.00     0.021 A 
ATOM      9  C   UNL d   1      15.323  17.026  -1.609  0.00  0.00     0.002 A 
ATOM     10  C   UNL d   1      15.569  16.904  -0.831  0.00  0.00     0.002 A 
ENDROOT
BRANCH   2  11
ATOM     11  C   UNL d   1      14.265  13.650  -2.264  0.00  0.00     0.105 C 
BRANCH  11  12
ATOM     12  C   UNL d   1      13.670  13.792  -2.817  0.00  0.00     0.303 C 
ATOM     13  O   UNL d   1      13.352  14.547  -2.892  0.00  0.00    -0.259 OA
BRANCH  12  14
ATOM     14  O   UNL d   1      13.394  13.180  -3.290  0.00  0.00    -0.273 OA
BRANCH  14  15
ATOM     15  C   UNL d   1      13.293  12.852  -4.036  0.00  0.00     0.103 A 
ATOM     16  C   UNL d   1      13.531  13.278  -4.701  0.00  0.00     0.025 A 
ATOM     17  C   UNL d   1      13.431  12.951  -5.449  0.00  0.00     0.002 A 
ATOM     18  C   UNL d   1      13.097  12.210  -5.530  0.00  0.00     0.000 A 
ATOM     19  C   UNL d   1      12.861  11.789  -4.872  0.00  0.00     0.002 A 
ATOM     20  C   UNL d   1      12.959  12.111  -4.115  0.00  0.00     0.025 A 
ENDBRANCH  14  15
ENDBRANCH  12  14
ENDBRANCH  11  12
BRANCH  11  21
ATOM     21  C   UNL d   1      14.550  12.877  -2.156  0.00  0.00     0.129 C 
ATOM     22  N   UNL d   1      15.302  12.532  -2.627  0.00  0.00    -0.146 N 
ENDBRANCH  11  21
ENDBRANCH   2  11
BRANCH   1  23
ATOM     23  N   UNL d   1      14.760  13.404  -0.700  0.00  0.00    -0.284 N 
ATOM     24  C   UNL d   1      14.012  13.088  -0.526  0.00  0.00     0.106 A 
ATOM     25  C   UNL d   1      13.957  12.340  -0.187  0.00  0.00     0.118 A 
ATOM     26  C   UNL d   1      13.209  12.027  -0.015  0.00  0.00     0.028 C 
ATOM     27  O   UNL d   1      14.633  11.900  -0.019  0.00  0.00    -0.304 OA
ATOM     28  C   UNL d   1      15.380  12.216  -0.193  0.00  0.00     0.118 A 
ATOM     29  C   UNL d   1      15.451  12.971  -0.535  0.00  0.00     0.106 A 
ATOM     30  C   UNL d   1      16.071  11.784  -0.027  0.00  0.00     0.028 C 
ENDBRANCH   1  23
TORSDOF 6
ENDMDL
