MODEL 1
REMARK VINA RESULT:      -5.2      0.000      0.000
REMARK  4 active torsions:
REMARK  status: ('A' for Active; 'I' for Inactive)
REMARK       I    between atoms: C_3  and  N_1 
REMARK    1  A    between atoms: C_5  and  N_2 
REMARK    2  A    between atoms: C_4  and  C_3 
REMARK    3  A    between atoms: C_7  and  C_4 
REMARK    4  A    between atoms: C_13  and  C_7 
ROOT
ATOM      1  N   UNL d   1     -41.447-122.158 -51.505  0.00  0.00    -0.269 N 
ATOM      2  N   UNL d   1     -41.658-122.816 -50.001  0.00  0.00    -0.301 N 
ATOM      3  C   UNL d   1     -41.339-121.823 -52.246  0.00  0.00     0.265 C 
ATOM      4  C   UNL d   1     -41.333-121.691 -50.820  0.00  0.00     0.102 A 
ATOM      5  C   UNL d   1     -41.665-122.948 -51.424  0.00  0.00     0.102 A 
ATOM      6  C   UNL d   1     -41.440-122.022 -50.068  0.00  0.00     0.100 A 
ATOM      7  C   UNL d   1     -41.772-123.282 -50.677  0.00  0.00     0.100 A 
ATOM      8  O   UNL d   1     -41.123-121.038 -52.325  0.00  0.00    -0.267 OA
ENDROOT
BRANCH   3   9
ATOM      9  C   UNL d   1     -41.451-122.284 -52.925  0.00  0.00     0.061 C 
BRANCH   9  10
ATOM     10  C   UNL d   1     -41.152-122.032 -53.654  0.00  0.00     0.005 C 
BRANCH  10  11
ATOM     11  C   UNL d   1     -41.617-122.086 -54.328  0.00  0.00     0.000 A 
ATOM     12  C   UNL d   1     -41.407-122.613 -54.921  0.00  0.00     0.002 A 
ATOM     13  C   UNL d   1     -41.870-122.671 -55.601  0.00  0.00     0.030 A 
ATOM     14  C   UNL d   1     -42.545-122.195 -55.679  0.00  0.00     0.140 A 
ATOM     15  C   UNL d   1     -42.745-121.673 -55.080  0.00  0.00     0.030 A 
ATOM     16  F   UNL d   1     -43.008-122.254 -56.359  0.00  0.00    -0.204 F 
ATOM     17  C   UNL d   1     -42.280-121.620 -54.406  0.00  0.00     0.002 A 
ENDBRANCH  10  11
ENDBRANCH   9  10
ENDBRANCH   3   9
BRANCH   2  18
ATOM     18  C   UNL d   1     -41.766-123.150 -49.252  0.00  0.00     0.065 A 
ATOM     19  C   UNL d   1     -42.517-123.155 -48.908  0.00  0.00     0.029 A 
ATOM     20  C   UNL d   1     -42.629-123.487 -48.162  0.00  0.00     0.059 A 
ATOM     21 CL   UNL d   1     -43.380-123.492 -47.819  0.00  0.00    -0.082 Cl
ATOM     22  C   UNL d   1     -41.987-123.817 -47.755  0.00  0.00     0.011 A 
ATOM     23  C   UNL d   1     -41.236-123.808 -48.106  0.00  0.00     0.002 A 
ATOM     24  C   UNL d   1     -41.124-123.475 -48.855  0.00  0.00     0.018 A 
ENDBRANCH   2  18
TORSDOF 4
ENDMDL
MODEL 2
REMARK VINA RESULT:      -4.9      2.698      5.654
REMARK  4 active torsions:
REMARK  status: ('A' for Active; 'I' for Inactive)
REMARK       I    between atoms: C_3  and  N_1 
REMARK    1  A    between atoms: C_5  and  N_2 
REMARK    2  A    between atoms: C_4  and  C_3 
REMARK    3  A    between atoms: C_7  and  C_4 
REMARK    4  A    between atoms: C_13  and  C_7 
ROOT
ATOM      1  N   UNL d   1     -41.467-122.409 -51.424  0.00  0.00    -0.269 N 
ATOM      2  N   UNL d   1     -41.516-122.575 -53.070  0.00  0.00    -0.301 N 
ATOM      3  C   UNL d   1     -41.439-122.317 -50.610  0.00  0.00     0.265 C 
ATOM      4  C   UNL d   1     -41.170-121.803 -51.919  0.00  0.00     0.102 A 
ATOM      5  C   UNL d   1     -41.784-123.089 -51.763  0.00  0.00     0.102 A 
ATOM      6  C   UNL d   1     -41.195-121.888 -52.742  0.00  0.00     0.100 A 
ATOM      7  C   UNL d   1     -41.812-123.178 -52.583  0.00  0.00     0.100 A 
ATOM      8  O   UNL d   1     -41.123-121.640 -50.273  0.00  0.00    -0.267 OA
ENDROOT
BRANCH   3   9
ATOM      9  C   UNL d   1     -41.733-122.916 -50.118  0.00  0.00     0.061 C 
BRANCH   9  10
ATOM     10  C   UNL d   1     -41.373-123.072 -49.390  0.00  0.00     0.005 C 
BRANCH  10  11
ATOM     11  C   UNL d   1     -41.833-123.259 -48.737  0.00  0.00     0.000 A 
ATOM     12  C   UNL d   1     -41.559-123.075 -47.985  0.00  0.00     0.002 A 
ATOM     13  C   UNL d   1     -42.016-123.260 -47.325  0.00  0.00     0.030 A 
ATOM     14  C   UNL d   1     -42.751-123.632 -47.427  0.00  0.00     0.140 A 
ATOM     15  C   UNL d   1     -43.014-123.811 -48.182  0.00  0.00     0.030 A 
ATOM     16  F   UNL d   1     -43.209-123.817 -46.766  0.00  0.00    -0.204 F 
ATOM     17  C   UNL d   1     -42.554-123.624 -48.835  0.00  0.00     0.002 A 
ENDBRANCH  10  11
ENDBRANCH   9  10
ENDBRANCH   3   9
BRANCH   2  18
ATOM     18  C   UNL d   1     -41.543-122.664 -53.892  0.00  0.00     0.065 A 
ATOM     19  C   UNL d   1     -41.982-122.133 -54.348  0.00  0.00     0.029 A 
ATOM     20  C   UNL d   1     -42.011-122.218 -55.168  0.00  0.00     0.059 A 
ATOM     21 CL   UNL d   1     -42.451-121.687 -55.623  0.00  0.00    -0.082 Cl
ATOM     22  C   UNL d   1     -41.601-122.836 -55.535  0.00  0.00     0.011 A 
ATOM     23  C   UNL d   1     -41.162-123.366 -55.071  0.00  0.00     0.002 A 
ATOM     24  C   UNL d   1     -41.133-123.280 -54.248  0.00  0.00     0.018 A 
ENDBRANCH   2  18
TORSDOF 4
ENDMDL
