MODEL 1
REMARK VINA RESULT:      86.7      0.000      0.000
REMARK  8 active torsions:
REMARK  status: ('A' for Active; 'I' for Inactive)
REMARK    1  A    between atoms: C_6  and  N_1 
REMARK    2  A    between atoms: S_10  and  C_2 
REMARK    3  A    between atoms: C_12  and  C_3 
REMARK    4  A    between atoms: C_7  and  C_8 
REMARK    5  A    between atoms: C_21  and  S_10 
REMARK    6  A    between atoms: O_15  and  C_12 
REMARK    7  A    between atoms: C_13  and  C_21 
REMARK    8  A    between atoms: C_16  and  O_15 
ROOT
ATOM      1  N   UNL d   1     -49.990  27.372  35.476  0.00  0.00    -0.268 N 
ATOM      2  C   UNL d   1     -50.295  27.153  36.255  0.00  0.00     0.198 A 
ATOM      3  C   UNL d   1     -49.294  27.873  35.591  0.00  0.00     0.196 A 
ATOM      4  N   UNL d   1     -49.783  27.522  36.858  0.00  0.00    -0.122 NA
ATOM      5  N   UNL d   1     -49.168  27.965  36.437  0.00  0.00    -0.126 NA
ENDROOT
BRANCH   3   6
ATOM      6  C   UNL d   1     -48.811  28.220  34.960  0.00  0.00     0.162 C 
BRANCH   6   7
ATOM      7  O   UNL d   1     -48.658  29.074  34.957  0.00  0.00    -0.300 OA
BRANCH   7   8
ATOM      8  C   UNL d   1     -48.001  29.515  35.189  0.00  0.00     0.118 A 
ATOM      9  C   UNL d   1     -47.953  30.309  34.979  0.00  0.00     0.104 A 
ATOM     10  N   UNL d   1     -48.558  30.662  34.541  0.00  0.00    -0.242 NA
ATOM     11  C   UNL d   1     -47.292  30.758  35.211  0.00  0.00     0.020 A 
ATOM     12  C   UNL d   1     -48.498  31.461  34.336  0.00  0.00     0.099 A 
ATOM     13  C   UNL d   1     -47.846  31.894  34.567  0.00  0.00     0.021 A 
ATOM     14  C   UNL d   1     -47.248  31.545  35.001  0.00  0.00     0.003 A 
ATOM     15  C   UNL d   1     -46.695  30.409  35.645  0.00  0.00     0.002 A 
ATOM     16  C   UNL d   1     -46.743  29.614  35.854  0.00  0.00     0.002 A 
ATOM     17  C   UNL d   1     -47.406  29.162  35.623  0.00  0.00     0.026 A 
ENDBRANCH   7   8
ENDBRANCH   6   7
ENDBRANCH   3   6
BRANCH   1  18
ATOM     18  C   UNL d   1     -50.306  27.144  34.753  0.00  0.00     0.067 A 
ATOM     19  C   UNL d   1     -50.239  26.368  34.505  0.00  0.00     0.021 A 
ATOM     20  C   UNL d   1     -50.549  26.135  33.789  0.00  0.00     0.073 A 
ATOM     21  C   UNL d   1     -50.936  26.688  33.308  0.00  0.00     0.004 A 
ATOM     22  C   UNL d   1     -51.001  27.471  33.561  0.00  0.00     0.001 A 
ATOM     23  C   UNL d   1     -50.690  27.696  34.276  0.00  0.00     0.018 A 
BRANCH  20  24
ATOM     24  C   UNL d   1     -50.481  25.342  33.537  0.00  0.00     0.419 C 
ATOM     25  F   UNL d   1     -50.420  24.615  33.306  0.00  0.00    -0.166 F 
ATOM     26  F   UNL d   1     -49.763  24.876  33.337  0.00  0.00    -0.166 F 
ATOM     27  F   UNL d   1     -51.113  24.746  33.399  0.00  0.00    -0.166 F 
ENDBRANCH  20  24
ENDBRANCH   1  18
BRANCH   2  28
ATOM     28  S   UNL d   1     -50.982  26.659  36.408  0.00  0.00    -0.064 SA
BRANCH  28  29
ATOM     29  C   UNL d   1     -51.086  26.270  37.174  0.00  0.00     0.162 C 
BRANCH  29  30
ATOM     30  C   UNL d   1     -51.787  26.416  37.649  0.00  0.00     0.197 C 
ATOM     31  O   UNL d   1     -51.756  26.987  38.301  0.00  0.00    -0.647 OA
ATOM     32  O   UNL d   1     -52.520  25.995  37.478  0.00  0.00    -0.647 OA
ENDBRANCH  29  30
ENDBRANCH  28  29
ENDBRANCH   2  28
TORSDOF 8
ENDMDL
MODEL 2
REMARK VINA RESULT:      86.9      2.207      2.890
REMARK  8 active torsions:
REMARK  status: ('A' for Active; 'I' for Inactive)
REMARK    1  A    between atoms: C_6  and  N_1 
REMARK    2  A    between atoms: S_10  and  C_2 
REMARK    3  A    between atoms: C_12  and  C_3 
REMARK    4  A    between atoms: C_7  and  C_8 
REMARK    5  A    between atoms: C_21  and  S_10 
REMARK    6  A    between atoms: O_15  and  C_12 
REMARK    7  A    between atoms: C_13  and  C_21 
REMARK    8  A    between atoms: C_16  and  O_15 
ROOT
ATOM      1  N   UNL d   1     -50.200  26.770  34.635  0.00  0.00    -0.268 N 
ATOM      2  C   UNL d   1     -50.247  26.251  33.945  0.00  0.00     0.198 A 
ATOM      3  C   UNL d   1     -49.503  27.275  34.545  0.00  0.00     0.196 A 
ATOM      4  N   UNL d   1     -49.573  26.436  33.423  0.00  0.00    -0.122 NA
ATOM      5  N   UNL d   1     -49.120  27.070  33.803  0.00  0.00    -0.126 NA
ENDROOT
BRANCH   3   6
ATOM      6  C   UNL d   1     -49.241  27.881  35.107  0.00  0.00     0.162 C 
BRANCH   6   7
ATOM      7  O   UNL d   1     -48.702  28.507  34.843  0.00  0.00    -0.300 OA
BRANCH   7   8
ATOM      8  C   UNL d   1     -48.168  28.981  35.252  0.00  0.00     0.118 A 
ATOM      9  C   UNL d   1     -48.084  29.773  35.042  0.00  0.00     0.104 A 
ATOM     10  N   UNL d   1     -48.534  30.090  34.426  0.00  0.00    -0.242 NA
ATOM     11  C   UNL d   1     -47.546  30.255  35.453  0.00  0.00     0.020 A 
ATOM     12  C   UNL d   1     -48.442  30.886  34.224  0.00  0.00     0.099 A 
ATOM     13  C   UNL d   1     -47.911  31.352  34.632  0.00  0.00     0.021 A 
ATOM     14  C   UNL d   1     -47.466  31.039  35.242  0.00  0.00     0.003 A 
ATOM     15  C   UNL d   1     -47.102  29.941  36.063  0.00  0.00     0.002 A 
ATOM     16  C   UNL d   1     -47.185  29.150  36.273  0.00  0.00     0.002 A 
ATOM     17  C   UNL d   1     -47.725  28.664  35.862  0.00  0.00     0.026 A 
ENDBRANCH   7   8
ENDBRANCH   6   7
ENDBRANCH   3   6
BRANCH   1  18
ATOM     18  C   UNL d   1     -50.725  26.783  35.266  0.00  0.00     0.067 A 
ATOM     19  C   UNL d   1     -50.442  26.751  36.033  0.00  0.00     0.021 A 
ATOM     20  C   UNL d   1     -50.956  26.764  36.664  0.00  0.00     0.073 A 
ATOM     21  C   UNL d   1     -51.773  26.808  36.530  0.00  0.00     0.004 A 
ATOM     22  C   UNL d   1     -52.056  26.840  35.754  0.00  0.00     0.001 A 
ATOM     23  C   UNL d   1     -51.537  26.828  35.130  0.00  0.00     0.018 A 
BRANCH  20  24
ATOM     24  C   UNL d   1     -50.666  26.731  37.446  0.00  0.00     0.419 C 
ATOM     25  F   UNL d   1     -50.401  26.700  38.164  0.00  0.00    -0.166 F 
ATOM     26  F   UNL d   1     -50.102  27.263  37.859  0.00  0.00    -0.166 F 
ATOM     27  F   UNL d   1     -50.846  26.151  38.083  0.00  0.00    -0.166 F 
ENDBRANCH  20  24
ENDBRANCH   1  18
BRANCH   2  28
ATOM     28  S   UNL d   1     -50.852  25.658  33.801  0.00  0.00    -0.064 SA
BRANCH  28  29
ATOM     29  C   UNL d   1     -50.686  24.966  33.308  0.00  0.00     0.162 C 
BRANCH  29  30
ATOM     30  C   UNL d   1     -51.211  24.286  33.312  0.00  0.00     0.197 C 
ATOM     31  O   UNL d   1     -50.880  23.484  33.322  0.00  0.00    -0.647 OA
ATOM     32  O   UNL d   1     -52.065  24.401  33.308  0.00  0.00    -0.647 OA
ENDBRANCH  29  30
ENDBRANCH  28  29
ENDBRANCH   2  28
TORSDOF 8
ENDMDL
MODEL 3
REMARK VINA RESULT:      87.6      3.950      5.625
REMARK  8 active torsions:
REMARK  status: ('A' for Active; 'I' for Inactive)
REMARK    1  A    between atoms: C_6  and  N_1 
REMARK    2  A    between atoms: S_10  and  C_2 
REMARK    3  A    between atoms: C_12  and  C_3 
REMARK    4  A    between atoms: C_7  and  C_8 
REMARK    5  A    between atoms: C_21  and  S_10 
REMARK    6  A    between atoms: O_15  and  C_12 
REMARK    7  A    between atoms: C_13  and  C_21 
REMARK    8  A    between atoms: C_16  and  O_15 
ROOT
ATOM      1  N   UNL d   1     -51.780  26.299  37.215  0.00  0.00    -0.268 N 
ATOM      2  C   UNL d   1     -51.210  26.848  37.565  0.00  0.00     0.198 A 
ATOM      3  C   UNL d   1     -51.597  26.222  36.373  0.00  0.00     0.196 A 
ATOM      4  N   UNL d   1     -50.669  27.113  36.932  0.00  0.00    -0.122 NA
ATOM      5  N   UNL d   1     -50.918  26.720  36.200  0.00  0.00    -0.126 NA
ENDROOT
BRANCH   3   6
ATOM      6  C   UNL d   1     -52.027  25.728  35.805  0.00  0.00     0.162 C 
BRANCH   6   7
ATOM      7  O   UNL d   1     -51.858  25.801  34.958  0.00  0.00    -0.300 OA
BRANCH   7   8
ATOM      8  C   UNL d   1     -51.559  25.265  34.408  0.00  0.00     0.118 A 
ATOM      9  C   UNL d   1     -52.039  24.656  34.133  0.00  0.00     0.104 A 
ATOM     10  N   UNL d   1     -52.815  24.582  34.405  0.00  0.00    -0.242 NA
ATOM     11  C   UNL d   1     -51.740  24.114  33.579  0.00  0.00     0.020 A 
ATOM     12  C   UNL d   1     -53.288  23.966  34.122  0.00  0.00     0.099 A 
ATOM     13  C   UNL d   1     -52.987  23.437  33.578  0.00  0.00     0.021 A 
ATOM     14  C   UNL d   1     -52.219  23.510  33.308  0.00  0.00     0.003 A 
ATOM     15  C   UNL d   1     -50.972  24.187  33.310  0.00  0.00     0.002 A 
ATOM     16  C   UNL d   1     -50.492  24.796  33.585  0.00  0.00     0.002 A 
ATOM     17  C   UNL d   1     -50.790  25.343  34.142  0.00  0.00     0.026 A 
ENDBRANCH   7   8
ENDBRANCH   6   7
ENDBRANCH   3   6
BRANCH   1  18
ATOM     18  C   UNL d   1     -52.388  25.918  37.613  0.00  0.00     0.067 A 
ATOM     19  C   UNL d   1     -52.218  25.307  38.128  0.00  0.00     0.021 A 
ATOM     20  C   UNL d   1     -52.817  24.923  38.527  0.00  0.00     0.073 A 
ATOM     21  C   UNL d   1     -53.604  25.154  38.408  0.00  0.00     0.004 A 
ATOM     22  C   UNL d   1     -53.772  25.771  37.886  0.00  0.00     0.001 A 
ATOM     23  C   UNL d   1     -53.171  26.148  37.493  0.00  0.00     0.018 A 
BRANCH  20  24
ATOM     24  C   UNL d   1     -52.642  24.299  39.053  0.00  0.00     0.419 C 
ATOM     25  F   UNL d   1     -52.481  23.726  39.534  0.00  0.00    -0.166 F 
ATOM     26  F   UNL d   1     -52.685  24.275  39.930  0.00  0.00    -0.166 F 
ATOM     27  F   UNL d   1     -52.363  23.483  38.876  0.00  0.00    -0.166 F 
ENDBRANCH  20  24
ENDBRANCH   1  18
BRANCH   2  28
ATOM     28  S   UNL d   1     -51.182  27.089  38.389  0.00  0.00    -0.064 SA
BRANCH  28  29
ATOM     29  C   UNL d   1     -50.711  27.772  38.635  0.00  0.00     0.162 C 
BRANCH  29  30
ATOM     30  C   UNL d   1     -50.883  28.183  39.370  0.00  0.00     0.197 C 
ATOM     31  O   UNL d   1     -50.407  28.022  40.077  0.00  0.00    -0.647 OA
ATOM     32  O   UNL d   1     -51.527  28.755  39.404  0.00  0.00    -0.647 OA
ENDBRANCH  29  30
ENDBRANCH  28  29
ENDBRANCH   2  28
TORSDOF 8
ENDMDL
