MODEL 1
REMARK VINA RESULT:      -5.9      0.000      0.000
REMARK  9 active torsions:
REMARK  status: ('A' for Active; 'I' for Inactive)
REMARK    1  A    between atoms: C_2  and  N_1 
REMARK    2  A    between atoms: C_4  and  C_2 
REMARK    3  A    between atoms: C_6  and  C_2 
REMARK    4  A    between atoms: C_8  and  N_3 
REMARK       I    between atoms: C_5  and  N_7 
REMARK    5  A    between atoms: O_17  and  C_5 
REMARK    6  A    between atoms: N_7  and  C_6 
REMARK    7  A    between atoms: C_22  and  O_17 
REMARK    8  A    between atoms: O_26  and  C_21 
REMARK    9  A    between atoms: C_25  and  C_22 
ROOT
ATOM      1  C   UNL d   1     -45.439  12.465  22.330  0.00  0.00     0.107 C 
ENDROOT
BRANCH   1   2
ATOM      2  N   UNL d   1     -46.096  12.965  22.438  0.00  0.00    -0.298 N 
ATOM      3  C   UNL d   1     -46.067  13.567  22.990  0.00  0.00     0.100 A 
ATOM      4  C   UNL d   1     -46.724  14.068  23.097  0.00  0.00     0.100 A 
ATOM      5  N   UNL d   1     -47.403  13.952  22.643  0.00  0.00    -0.301 N 
ATOM      6  C   UNL d   1     -47.421  13.337  22.084  0.00  0.00     0.100 A 
ATOM      7  C   UNL d   1     -46.775  12.850  21.984  0.00  0.00     0.100 A 
BRANCH   5   8
ATOM      8  C   UNL d   1     -48.046  14.432  22.740  0.00  0.00     0.064 A 
ATOM      9  C   UNL d   1     -48.058  15.185  22.402  0.00  0.00     0.020 A 
ATOM     10  C   UNL d   1     -48.717  15.672  22.503  0.00  0.00     0.026 A 
ATOM     11  C   UNL d   1     -49.363  15.407  22.943  0.00  0.00     0.094 A 
ATOM     12  C   UNL d   1     -49.350  14.654  23.281  0.00  0.00     0.026 A 
ATOM     13  C   UNL d   1     -48.692  14.171  23.177  0.00  0.00     0.020 A 
BRANCH  11  14
ATOM     14  O   UNL d   1     -50.030  15.904  23.045  0.00  0.00    -0.328 OA
ATOM     15  C   UNL d   1     -50.748  15.566  23.263  0.00  0.00     0.181 C 
ENDBRANCH  11  14
ENDBRANCH   5   8
ENDBRANCH   1   2
BRANCH   1  16
ATOM     16  C   UNL d   1     -45.329  11.819  22.855  0.00  0.00     0.118 A 
ATOM     17  O   UNL d   1     -44.663  11.538  23.259  0.00  0.00    -0.304 OA
ATOM     18  C   UNL d   1     -44.905  10.875  23.697  0.00  0.00     0.123 A 
ATOM     19  C   UNL d   1     -45.700  10.751  23.567  0.00  0.00     0.029 A 
ATOM     20  C   UNL d   1     -45.966  11.337  23.044  0.00  0.00     0.028 A 
ENDBRANCH   1  16
BRANCH   1  21
ATOM     21  C   UNL d   1     -44.898  12.591  21.723  0.00  0.00     0.124 C 
BRANCH  21  22
ATOM     22  N   UNL d   1     -44.228  13.077  21.860  0.00  0.00    -0.183 NA
ATOM     23  C   UNL d   1     -43.614  13.090  21.327  0.00  0.00     0.392 C 
ATOM     24  O   UNL d   1     -43.649  12.622  20.644  0.00  0.00    -0.236 OA
BRANCH  23  25
ATOM     25  O   UNL d   1     -42.960  13.571  21.468  0.00  0.00    -0.256 OA
BRANCH  25  26
ATOM     26  C   UNL d   1     -42.304  13.534  20.967  0.00  0.00     0.128 C 
BRANCH  26  27
ATOM     27  C   UNL d   1     -41.680  14.065  21.065  0.00  0.00     0.025 A 
ATOM     28  C   UNL d   1     -40.946  13.793  21.325  0.00  0.00     0.002 A 
ATOM     29  C   UNL d   1     -40.321  14.324  21.423  0.00  0.00     0.000 A 
ATOM     30  C   UNL d   1     -40.432  15.126  21.260  0.00  0.00     0.000 A 
ATOM     31  C   UNL d   1     -41.164  15.393  21.001  0.00  0.00     0.000 A 
ATOM     32  C   UNL d   1     -41.791  14.866  20.902  0.00  0.00     0.002 A 
ENDBRANCH  26  27
ENDBRANCH  25  26
ENDBRANCH  23  25
ENDBRANCH  21  22
ENDBRANCH   1  21
TORSDOF 9
ENDMDL
MODEL 2
REMARK VINA RESULT:      -4.3      3.720      8.362
REMARK  9 active torsions:
REMARK  status: ('A' for Active; 'I' for Inactive)
REMARK    1  A    between atoms: C_2  and  N_1 
REMARK    2  A    between atoms: C_4  and  C_2 
REMARK    3  A    between atoms: C_6  and  C_2 
REMARK    4  A    between atoms: C_8  and  N_3 
REMARK       I    between atoms: C_5  and  N_7 
REMARK    5  A    between atoms: O_17  and  C_5 
REMARK    6  A    between atoms: N_7  and  C_6 
REMARK    7  A    between atoms: C_22  and  O_17 
REMARK    8  A    between atoms: O_26  and  C_21 
REMARK    9  A    between atoms: C_25  and  C_22 
ROOT
ATOM      1  C   UNL d   1     -39.732  14.466  20.428  0.00  0.00     0.107 C 
ENDROOT
BRANCH   1   2
ATOM      2  N   UNL d   1     -39.488  14.427  19.633  0.00  0.00    -0.298 N 
ATOM      3  C   UNL d   1     -39.219  15.099  19.253  0.00  0.00     0.100 A 
ATOM      4  C   UNL d   1     -38.975  15.060  18.457  0.00  0.00     0.100 A 
ATOM      5  N   UNL d   1     -39.005  14.339  18.056  0.00  0.00    -0.301 N 
ATOM      6  C   UNL d   1     -39.280  13.663  18.453  0.00  0.00     0.100 A 
ATOM      7  C   UNL d   1     -39.518  13.707  19.232  0.00  0.00     0.100 A 
BRANCH   5   8
ATOM      8  C   UNL d   1     -38.770  14.291  17.285  0.00  0.00     0.064 A 
ATOM      9  C   UNL d   1     -39.112  14.779  16.714  0.00  0.00     0.020 A 
ATOM     10  C   UNL d   1     -38.869  14.726  15.927  0.00  0.00     0.026 A 
ATOM     11  C   UNL d   1     -38.283  14.186  15.711  0.00  0.00     0.094 A 
ATOM     12  C   UNL d   1     -37.941  13.699  16.282  0.00  0.00     0.026 A 
ATOM     13  C   UNL d   1     -38.186  13.754  17.066  0.00  0.00     0.020 A 
BRANCH  11  14
ATOM     14  O   UNL d   1     -38.038  14.135  14.911  0.00  0.00    -0.328 OA
ATOM     15  C   UNL d   1     -37.975  13.394  14.561  0.00  0.00     0.181 C 
ENDBRANCH  11  14
ENDBRANCH   5   8
ENDBRANCH   1   2
BRANCH   1  16
ATOM     16  C   UNL d   1     -39.162  14.360  21.035  0.00  0.00     0.118 A 
ATOM     17  O   UNL d   1     -38.744  13.695  21.295  0.00  0.00    -0.304 OA
ATOM     18  C   UNL d   1     -38.257  13.941  21.921  0.00  0.00     0.123 A 
ATOM     19  C   UNL d   1     -38.372  14.739  22.043  0.00  0.00     0.029 A 
ATOM     20  C   UNL d   1     -38.935  15.002  21.494  0.00  0.00     0.028 A 
ENDBRANCH   1  16
BRANCH   1  21
ATOM     21  C   UNL d   1     -40.517  14.607  20.629  0.00  0.00     0.124 C 
BRANCH  21  22
ATOM     22  N   UNL d   1     -40.985  13.980  20.934  0.00  0.00    -0.183 NA
ATOM     23  C   UNL d   1     -41.778  14.090  21.075  0.00  0.00     0.392 C 
ATOM     24  O   UNL d   1     -42.129  14.824  20.917  0.00  0.00    -0.236 OA
BRANCH  23  25
ATOM     25  O   UNL d   1     -42.230  13.469  21.375  0.00  0.00    -0.256 OA
BRANCH  25  26
ATOM     26  C   UNL d   1     -42.982  13.320  21.068  0.00  0.00     0.128 C 
BRANCH  26  27
ATOM     27  C   UNL d   1     -43.548  12.937  21.530  0.00  0.00     0.025 A 
ATOM     28  C   UNL d   1     -44.279  13.294  21.666  0.00  0.00     0.002 A 
ATOM     29  C   UNL d   1     -44.845  12.911  22.128  0.00  0.00     0.000 A 
ATOM     30  C   UNL d   1     -44.680  12.171  22.454  0.00  0.00     0.000 A 
ATOM     31  C   UNL d   1     -43.951  11.818  22.317  0.00  0.00     0.000 A 
ATOM     32  C   UNL d   1     -43.382  12.197  21.855  0.00  0.00     0.002 A 
ENDBRANCH  26  27
ENDBRANCH  25  26
ENDBRANCH  23  25
ENDBRANCH  21  22
ENDBRANCH   1  21
TORSDOF 9
ENDMDL
