MODEL 1
REMARK VINA RESULT:      -5.0      0.000      0.000
REMARK  1 active torsions:
REMARK  status: ('A' for Active; 'I' for Inactive)
REMARK    1  A    between atoms: C_10  and  N_3 
ROOT
ATOM      1  C   UNL d   1     -41.521-122.269 -52.208  0.00  0.00     0.166 A 
ATOM      2  C   UNL d   1     -41.339-123.053 -52.046  0.00  0.00     0.117 A 
ATOM      3  N   UNL d   1     -41.587-121.889 -51.473  0.00  0.00    -0.289 N 
ATOM      4  N   UNL d   1     -41.604-121.994 -52.988  0.00  0.00    -0.225 NA
ATOM      5  N   UNL d   1     -41.242-123.560 -52.693  0.00  0.00    -0.241 NA
ATOM      6  C   UNL d   1     -41.293-123.158 -51.245  0.00  0.00     0.037 A 
ATOM      7  C   UNL d   1     -41.448-122.433 -50.888  0.00  0.00     0.067 A 
ATOM      8  C   UNL d   1     -41.506-122.504 -53.607  0.00  0.00     0.101 A 
ATOM      9  C   UNL d   1     -41.322-123.297 -53.449  0.00  0.00     0.099 A 
ATOM     10  C   UNL d   1     -41.131-123.817 -50.777  0.00  0.00     0.003 A 
ATOM     11  C   UNL d   1     -41.441-122.367 -50.063  0.00  0.00     0.018 A 
ATOM     12  C   UNL d   1     -41.221-123.816 -54.070  0.00  0.00     0.021 A 
ATOM     13  C   UNL d   1     -41.584-122.249 -54.364  0.00  0.00     0.021 A 
ATOM     14  C   UNL d   1     -41.123-123.757 -49.954  0.00  0.00     0.000 A 
ATOM     15  C   UNL d   1     -41.277-123.031 -49.597  0.00  0.00     0.002 A 
ATOM     16  C   UNL d   1     -41.298-123.569 -54.863  0.00  0.00     0.002 A 
ATOM     17  C   UNL d   1     -41.478-122.792 -54.998  0.00  0.00     0.002 A 
ENDROOT
BRANCH   3  18
ATOM     18  C   UNL d   1     -41.761-121.108 -51.365  0.00  0.00     0.082 C 
ATOM     19  C   UNL d   1     -41.123-120.562 -51.283  0.00  0.00     0.021 C 
ENDBRANCH   3  18
TORSDOF 1
ENDMDL
MODEL 2
REMARK VINA RESULT:      -2.9      0.681      3.346
REMARK  1 active torsions:
REMARK  status: ('A' for Active; 'I' for Inactive)
REMARK    1  A    between atoms: C_10  and  N_3 
ROOT
ATOM      1  C   UNL d   1     -41.718-122.313 -52.703  0.00  0.00     0.166 A 
ATOM      2  C   UNL d   1     -41.425-123.065 -52.852  0.00  0.00     0.117 A 
ATOM      3  N   UNL d   1     -41.847-121.963 -53.443  0.00  0.00    -0.289 N 
ATOM      4  N   UNL d   1     -41.832-122.038 -51.927  0.00  0.00    -0.225 NA
ATOM      5  N   UNL d   1     -41.248-123.540 -52.197  0.00  0.00    -0.241 NA
ATOM      6  C   UNL d   1     -41.374-123.180 -53.652  0.00  0.00     0.037 A 
ATOM      7  C   UNL d   1     -41.636-122.492 -54.020  0.00  0.00     0.067 A 
ATOM      8  C   UNL d   1     -41.653-122.514 -51.300  0.00  0.00     0.101 A 
ATOM      9  C   UNL d   1     -41.357-123.275 -51.445  0.00  0.00     0.099 A 
ATOM     10  C   UNL d   1     -41.123-123.817 -54.109  0.00  0.00     0.003 A 
ATOM     11  C   UNL d   1     -41.648-122.443 -54.846  0.00  0.00     0.018 A 
ATOM     12  C   UNL d   1     -41.175-123.762 -50.816  0.00  0.00     0.021 A 
ATOM     13  C   UNL d   1     -41.759-122.258 -50.546  0.00  0.00     0.021 A 
ATOM     14  C   UNL d   1     -41.132-123.774 -54.933  0.00  0.00     0.000 A 
ATOM     15  C   UNL d   1     -41.395-123.086 -55.301  0.00  0.00     0.002 A 
ATOM     16  C   UNL d   1     -41.279-123.511 -50.027  0.00  0.00     0.002 A 
ATOM     17  C   UNL d   1     -41.569-122.766 -49.903  0.00  0.00     0.002 A 
ENDROOT
BRANCH   3  18
ATOM     18  C   UNL d   1     -42.134-121.218 -53.564  0.00  0.00     0.082 C 
ATOM     19  C   UNL d   1     -42.894-121.133 -53.920  0.00  0.00     0.021 C 
ENDBRANCH   3  18
TORSDOF 1
ENDMDL
MODEL 3
REMARK VINA RESULT:      -2.5      0.971      3.510
REMARK  1 active torsions:
REMARK  status: ('A' for Active; 'I' for Inactive)
REMARK    1  A    between atoms: C_10  and  N_3 
ROOT
ATOM      1  C   UNL d   1     -41.788-122.245 -50.923  0.00  0.00     0.166 A 
ATOM      2  C   UNL d   1     -41.627-123.037 -51.066  0.00  0.00     0.117 A 
ATOM      3  N   UNL d   1     -41.718-121.858 -51.654  0.00  0.00    -0.289 N 
ATOM      4  N   UNL d   1     -41.975-121.970 -50.162  0.00  0.00    -0.225 NA
ATOM      5  N   UNL d   1     -41.659-123.553 -50.420  0.00  0.00    -0.241 NA
ATOM      6  C   UNL d   1     -41.464-123.140 -51.852  0.00  0.00     0.037 A 
ATOM      7  C   UNL d   1     -41.521-122.406 -52.219  0.00  0.00     0.067 A 
ATOM      8  C   UNL d   1     -42.002-122.488 -49.542  0.00  0.00     0.101 A 
ATOM      9  C   UNL d   1     -41.840-123.289 -49.681  0.00  0.00     0.099 A 
ATOM     10  C   UNL d   1     -41.269-123.805 -52.299  0.00  0.00     0.003 A 
ATOM     11  C   UNL d   1     -41.383-122.336 -53.031  0.00  0.00     0.018 A 
ATOM     12  C   UNL d   1     -41.865-123.817 -49.059  0.00  0.00     0.021 A 
ATOM     13  C   UNL d   1     -42.182-122.233 -48.802  0.00  0.00     0.021 A 
ATOM     14  C   UNL d   1     -41.130-123.741 -53.110  0.00  0.00     0.000 A 
ATOM     15  C   UNL d   1     -41.187-123.006 -53.476  0.00  0.00     0.002 A 
ATOM     16  C   UNL d   1     -42.051-123.570 -48.284  0.00  0.00     0.002 A 
ATOM     17  C   UNL d   1     -42.205-122.784 -48.167  0.00  0.00     0.002 A 
ENDROOT
BRANCH   3  18
ATOM     18  C   UNL d   1     -41.830-121.068 -51.777  0.00  0.00     0.082 C 
ATOM     19  C   UNL d   1     -41.173-120.549 -51.674  0.00  0.00     0.021 C 
ENDBRANCH   3  18
TORSDOF 1
ENDMDL
