MODEL 1
REMARK VINA RESULT:      -1.5      0.000      0.000
REMARK  11 active torsions:
REMARK  status: ('A' for Active; 'I' for Inactive)
REMARK    1  A    between atoms: C_8  and  S_1 
REMARK    2  A    between atoms: N_19  and  S_1 
REMARK    3  A    between atoms: S_2  and  C_9 
REMARK    4  A    between atoms: N_20  and  S_2 
REMARK    5  A    between atoms: N_14  and  C_5 
REMARK    6  A    between atoms: C_24  and  N_19 
REMARK    7  A    between atoms: C_25  and  N_20 
REMARK    8  A    between atoms: C_29  and  C_24 
REMARK    9  A    between atoms: C_28  and  C_25 
REMARK   10  A    between atoms: O_26  and  C_29 
REMARK   11  A    between atoms: O_27  and  C_28 
ROOT
ATOM      1  C   UNL d   1      57.611  -0.556  31.030  0.00  0.00     0.021 A 
ATOM      2  C   UNL d   1      58.495  -0.833  30.186  0.00  0.00     0.021 A 
ATOM      3  C   UNL d   1      57.847  -1.094  30.456  0.00  0.00     0.111 A 
ATOM      4  C   UNL d   1      58.178   0.046  31.075  0.00  0.00     0.002 A 
ATOM      5  C   UNL d   1      58.769  -0.125  30.522  0.00  0.00     0.002 A 
ATOM      6  C   UNL d   1      56.862   0.087  32.054  0.00  0.00     0.105 A 
ATOM      7  C   UNL d   1      59.634  -0.874  29.336  0.00  0.00     0.105 A 
ATOM      8  C   UNL d   1      58.931  -1.205  29.593  0.00  0.00     0.015 A 
ATOM      9  C   UNL d   1      56.955  -0.532  31.521  0.00  0.00     0.015 A 
ATOM     10  C   UNL d   1      59.478   0.205  30.259  0.00  0.00     0.001 A 
ATOM     11  C   UNL d   1      58.086   0.668  31.609  0.00  0.00     0.001 A 
ATOM     12  C   UNL d   1      59.915  -0.165  29.666  0.00  0.00     0.013 A 
ATOM     13  C   UNL d   1      57.422   0.678  32.095  0.00  0.00     0.013 A 
ENDROOT
BRANCH   6  14
ATOM     14  S   UNL d   1      56.271   0.258  32.607  0.00  0.00     0.285 S 
ATOM     15  O   UNL d   1      56.696  -0.145  33.191  0.00  0.00    -0.198 OA
ATOM     16  O   UNL d   1      55.855   0.657  32.020  0.00  0.00    -0.198 OA
BRANCH  14  17
ATOM     17  N   UNL d   1      55.968   0.208  33.372  0.00  0.00    -0.155 NA
BRANCH  17  18
ATOM     18  C   UNL d   1      55.309   0.654  33.585  0.00  0.00     0.138 C 
BRANCH  18  19
ATOM     19  C   UNL d   1      54.941   0.541  34.321  0.00  0.00     0.138 C 
BRANCH  19  20
ATOM     20  O   UNL d   1      54.131   0.612  34.398  0.00  0.00    -0.325 OA
ATOM     21  C   UNL d   1      53.783   0.679  35.145  0.00  0.00     0.182 C 
ENDBRANCH  19  20
ENDBRANCH  18  19
ENDBRANCH  17  18
ENDBRANCH  14  17
ENDBRANCH   6  14
BRANCH   3  22
ATOM     22  N   UNL d   1      57.441  -1.779  30.234  0.00  0.00    -0.096 NA
ATOM     23  O   UNL d   1      57.576  -2.485  30.654  0.00  0.00    -0.061 OA
ENDBRANCH   3  22
BRANCH   7  24
ATOM     24  S   UNL d   1      60.224  -1.045  28.782  0.00  0.00     0.285 S 
ATOM     25  O   UNL d   1      60.164  -0.277  28.481  0.00  0.00    -0.198 OA
ATOM     26  O   UNL d   1      60.284  -1.813  29.083  0.00  0.00    -0.198 OA
BRANCH  24  27
ATOM     27  N   UNL d   1      60.764  -1.577  28.455  0.00  0.00    -0.155 NA
BRANCH  27  28
ATOM     28  C   UNL d   1      61.067  -2.189  28.918  0.00  0.00     0.138 C 
BRANCH  28  29
ATOM     29  C   UNL d   1      60.883  -2.972  28.733  0.00  0.00     0.138 C 
BRANCH  29  30
ATOM     30  O   UNL d   1      60.624  -3.492  29.330  0.00  0.00    -0.325 OA
ATOM     31  C   UNL d   1      61.126  -4.074  29.608  0.00  0.00     0.182 C 
ENDBRANCH  29  30
ENDBRANCH  28  29
ENDBRANCH  27  28
ENDBRANCH  24  27
ENDBRANCH   7  24
TORSDOF 11
ENDMDL
MODEL 2
REMARK VINA RESULT:      -0.9      1.162      6.025
REMARK  11 active torsions:
REMARK  status: ('A' for Active; 'I' for Inactive)
REMARK    1  A    between atoms: C_8  and  S_1 
REMARK    2  A    between atoms: N_19  and  S_1 
REMARK    3  A    between atoms: S_2  and  C_9 
REMARK    4  A    between atoms: N_20  and  S_2 
REMARK    5  A    between atoms: N_14  and  C_5 
REMARK    6  A    between atoms: C_24  and  N_19 
REMARK    7  A    between atoms: C_25  and  N_20 
REMARK    8  A    between atoms: C_29  and  C_24 
REMARK    9  A    between atoms: C_28  and  C_25 
REMARK   10  A    between atoms: O_26  and  C_29 
REMARK   11  A    between atoms: O_27  and  C_28 
ROOT
ATOM      1  C   UNL d   1      58.019  -0.762  30.490  0.00  0.00     0.021 A 
ATOM      2  C   UNL d   1      57.381  -0.214  31.419  0.00  0.00     0.021 A 
ATOM      3  C   UNL d   1      57.897  -0.060  30.898  0.00  0.00     0.111 A 
ATOM      4  C   UNL d   1      57.530  -1.346  30.817  0.00  0.00     0.002 A 
ATOM      5  C   UNL d   1      57.103  -0.996  31.433  0.00  0.00     0.002 A 
ATOM      6  C   UNL d   1      58.518  -1.717  29.561  0.00  0.00     0.105 A 
ATOM      7  C   UNL d   1      56.528   0.114  32.507  0.00  0.00     0.105 A 
ATOM      8  C   UNL d   1      57.092   0.339  31.958  0.00  0.00     0.015 A 
ATOM      9  C   UNL d   1      58.512  -0.952  29.862  0.00  0.00     0.015 A 
ATOM     10  C   UNL d   1      56.535  -1.217  31.989  0.00  0.00     0.001 A 
ATOM     11  C   UNL d   1      57.536  -2.113  30.517  0.00  0.00     0.001 A 
ATOM     12  C   UNL d   1      56.243  -0.666  32.528  0.00  0.00     0.013 A 
ATOM     13  C   UNL d   1      58.036  -2.288  29.886  0.00  0.00     0.013 A 
ENDROOT
BRANCH   6  14
ATOM     14  S   UNL d   1      58.946  -2.067  28.945  0.00  0.00     0.285 S 
ATOM     15  O   UNL d   1      59.656  -1.873  29.323  0.00  0.00    -0.198 OA
ATOM     16  O   UNL d   1      58.235  -2.256  28.577  0.00  0.00    -0.198 OA
BRANCH  14  17
ATOM     17  N   UNL d   1      59.663  -2.274  28.597  0.00  0.00    -0.155 NA
BRANCH  17  18
ATOM     18  C   UNL d   1      59.890  -3.065  28.559  0.00  0.00     0.138 C 
BRANCH  18  19
ATOM     19  C   UNL d   1      60.658  -3.296  28.774  0.00  0.00     0.138 C 
BRANCH  19  20
ATOM     20  O   UNL d   1      60.927  -4.052  28.618  0.00  0.00    -0.325 OA
ATOM     21  C   UNL d   1      60.835  -4.655  29.175  0.00  0.00     0.182 C 
ENDBRANCH  19  20
ENDBRANCH  18  19
ENDBRANCH  17  18
ENDBRANCH  14  17
ENDBRANCH   6  14
BRANCH   3  22
ATOM     22  N   UNL d   1      58.273   0.662  30.750  0.00  0.00    -0.096 NA
ATOM     23  O   UNL d   1      59.100   0.675  30.658  0.00  0.00    -0.061 OA
ENDBRANCH   3  22
BRANCH   7  24
ATOM     24  S   UNL d   1      56.101   0.464  33.123  0.00  0.00     0.285 S 
ATOM     25  O   UNL d   1      55.482   0.630  32.599  0.00  0.00    -0.198 OA
ATOM     26  O   UNL d   1      56.719   0.297  33.646  0.00  0.00    -0.198 OA
BRANCH  24  27
ATOM     27  N   UNL d   1      56.041   0.682  33.917  0.00  0.00    -0.155 NA
BRANCH  27  28
ATOM     28  C   UNL d   1      55.646   0.190  34.449  0.00  0.00     0.138 C 
BRANCH  28  29
ATOM     29  C   UNL d   1      55.098   0.511  34.975  0.00  0.00     0.138 C 
BRANCH  29  30
ATOM     30  O   UNL d   1      55.262   0.527  35.792  0.00  0.00    -0.325 OA
ATOM     31  C   UNL d   1      54.833   0.053  36.301  0.00  0.00     0.182 C 
ENDBRANCH  29  30
ENDBRANCH  28  29
ENDBRANCH  27  28
ENDBRANCH  24  27
ENDBRANCH   7  24
TORSDOF 11
ENDMDL
