MODEL 1
REMARK VINA RESULT:      -0.3      0.000      0.000
REMARK  4 active torsions:
REMARK  status: ('A' for Active; 'I' for Inactive)
REMARK    1  A    between atoms: C_3  and  C_1 
REMARK    2  A    between atoms: C_11  and  N_2 
REMARK    3  A    between atoms: C_12  and  C_11 
REMARK       I    between atoms: N_13  and  C_12 
REMARK    4  A    between atoms: C_16  and  N_13 
ROOT
ATOM      1  C   UNL d   1      33.042  21.029 -22.823  0.00  0.00     0.171 A 
ATOM      2  N   UNL d   1      32.969  21.845 -22.698  0.00  0.00    -0.284 N 
ATOM      3  N   UNL d   1      33.155  20.906 -23.634  0.00  0.00    -0.225 NA
ATOM      4  C   UNL d   1      33.037  22.219 -23.428  0.00  0.00     0.083 A 
ATOM      5  C   UNL d   1      33.151  21.640 -24.005  0.00  0.00     0.099 A 
ATOM      6  C   UNL d   1      33.008  23.037 -23.651  0.00  0.00     0.019 A 
ATOM      7  C   UNL d   1      33.239  21.870 -24.814  0.00  0.00     0.021 A 
ATOM      8  C   UNL d   1      33.095  23.230 -24.431  0.00  0.00     0.002 A 
ATOM      9  C   UNL d   1      33.209  22.652 -25.008  0.00  0.00     0.002 A 
ENDROOT
BRANCH   2  10
ATOM     10  C   UNL d   1      32.850  22.207 -21.968  0.00  0.00     0.145 C 
BRANCH  10  11
ATOM     11  C   UNL d   1      32.165  22.633 -21.842  0.00  0.00     0.297 C 
ATOM     12  N   UNL d   1      32.022  22.980 -21.105  0.00  0.00    -0.207 NA
ATOM     13  O   UNL d   1      31.601  22.726 -22.447  0.00  0.00    -0.264 OA
BRANCH  12  14
ATOM     14  C   UNL d   1      32.397  23.036 -20.376  0.00  0.00     0.085 A 
ATOM     15  C   UNL d   1      33.052  23.509 -20.195  0.00  0.00     0.019 A 
ATOM     16  C   UNL d   1      33.239  23.392 -19.405  0.00  0.00     0.002 A 
ATOM     17  C   UNL d   1      32.712  22.851 -19.081  0.00  0.00     0.002 A 
ATOM     18  C   UNL d   1      32.200  22.637 -19.678  0.00  0.00     0.019 A 
ENDBRANCH  12  14
ENDBRANCH  10  11
ENDBRANCH   2  10
BRANCH   1  19
ATOM     19  C   UNL d   1      33.008  20.438 -22.237  0.00  0.00     0.184 A 
ATOM     20  C   UNL d   1      32.747  19.663 -22.347  0.00  0.00     0.235 A 
ATOM     21  N   UNL d   1      32.807  19.268 -21.619  0.00  0.00    -0.081 NA
ATOM     22  N   UNL d   1      32.475  19.333 -23.051  0.00  0.00    -0.123 N 
ATOM     23  O   UNL d   1      33.105  19.801 -21.065  0.00  0.00    -0.104 OA
ATOM     24  N   UNL d   1      33.230  20.528 -21.446  0.00  0.00    -0.097 NA
ENDBRANCH   1  19
TORSDOF 4
ENDMDL
MODEL 2
REMARK VINA RESULT:       0.4      4.257      6.078
REMARK  4 active torsions:
REMARK  status: ('A' for Active; 'I' for Inactive)
REMARK    1  A    between atoms: C_3  and  C_1 
REMARK    2  A    between atoms: C_11  and  N_2 
REMARK    3  A    between atoms: C_12  and  C_11 
REMARK       I    between atoms: N_13  and  C_12 
REMARK    4  A    between atoms: C_16  and  N_13 
ROOT
ATOM      1  C   UNL d   1      30.997  16.073 -23.927  0.00  0.00     0.171 A 
ATOM      2  N   UNL d   1      30.675  16.832 -24.022  0.00  0.00    -0.284 N 
ATOM      3  N   UNL d   1      30.389  15.571 -23.673  0.00  0.00    -0.225 NA
ATOM      4  C   UNL d   1      29.877  16.793 -23.827  0.00  0.00     0.083 A 
ATOM      5  C   UNL d   1      29.700  16.016 -23.612  0.00  0.00     0.099 A 
ATOM      6  C   UNL d   1      29.267  17.382 -23.817  0.00  0.00     0.019 A 
ATOM      7  C   UNL d   1      28.911  15.816 -23.384  0.00  0.00     0.021 A 
ATOM      8  C   UNL d   1      28.520  17.166 -23.595  0.00  0.00     0.002 A 
ATOM      9  C   UNL d   1      28.344  16.389 -23.380  0.00  0.00     0.002 A 
ENDROOT
BRANCH   2  10
ATOM     10  C   UNL d   1      31.092  17.498 -24.268  0.00  0.00     0.145 C 
BRANCH  10  11
ATOM     11  C   UNL d   1      30.749  18.002 -24.812  0.00  0.00     0.297 C 
ATOM     12  N   UNL d   1      31.169  18.659 -25.089  0.00  0.00    -0.207 NA
ATOM     13  O   UNL d   1      29.979  17.866 -25.097  0.00  0.00    -0.264 OA
BRANCH  12  14
ATOM     14  C   UNL d   1      31.906  19.003 -24.975  0.00  0.00     0.085 A 
ATOM     15  C   UNL d   1      32.055  19.783 -24.742  0.00  0.00     0.019 A 
ATOM     16  C   UNL d   1      32.868  19.885 -24.698  0.00  0.00     0.002 A 
ATOM     17  C   UNL d   1      33.239  19.179 -24.900  0.00  0.00     0.002 A 
ATOM     18  C   UNL d   1      32.647  18.644 -25.068  0.00  0.00     0.019 A 
ENDBRANCH  12  14
ENDBRANCH  10  11
ENDBRANCH   2  10
BRANCH   1  19
ATOM     19  C   UNL d   1      31.790  15.855 -24.063  0.00  0.00     0.184 A 
ATOM     20  C   UNL d   1      32.391  15.843 -23.498  0.00  0.00     0.235 A 
ATOM     21  N   UNL d   1      33.087  15.593 -23.873  0.00  0.00    -0.081 NA
ATOM     22  N   UNL d   1      32.318  16.042 -22.702  0.00  0.00    -0.123 N 
ATOM     23  O   UNL d   1      32.912  15.453 -24.667  0.00  0.00    -0.104 OA
ATOM     24  N   UNL d   1      32.107  15.615 -24.787  0.00  0.00    -0.097 NA
ENDBRANCH   1  19
TORSDOF 4
ENDMDL
MODEL 3
REMARK VINA RESULT:       1.8      3.920      6.029
REMARK  4 active torsions:
REMARK  status: ('A' for Active; 'I' for Inactive)
REMARK    1  A    between atoms: C_3  and  C_1 
REMARK    2  A    between atoms: C_11  and  N_2 
REMARK    3  A    between atoms: C_12  and  C_11 
REMARK       I    between atoms: N_13  and  C_12 
REMARK    4  A    between atoms: C_16  and  N_13 
ROOT
ATOM      1  C   UNL d   1      29.829  17.277 -23.925  0.00  0.00     0.171 A 
ATOM      2  N   UNL d   1      30.655  17.275 -23.998  0.00  0.00    -0.284 N 
ATOM      3  N   UNL d   1      29.622  16.685 -23.383  0.00  0.00    -0.225 NA
ATOM      4  C   UNL d   1      30.950  16.686 -23.506  0.00  0.00     0.083 A 
ATOM      5  C   UNL d   1      30.314  16.322 -23.127  0.00  0.00     0.099 A 
ATOM      6  C   UNL d   1      31.742  16.424 -23.347  0.00  0.00     0.019 A 
ATOM      7  C   UNL d   1      30.458  15.691 -22.583  0.00  0.00     0.021 A 
ATOM      8  C   UNL d   1      31.853  15.818 -22.823  0.00  0.00     0.002 A 
ATOM      9  C   UNL d   1      31.217  15.455 -22.444  0.00  0.00     0.002 A 
ENDROOT
BRANCH   2  10
ATOM     10  C   UNL d   1      31.092  17.779 -24.482  0.00  0.00     0.145 C 
BRANCH  10  11
ATOM     11  C   UNL d   1      31.795  17.513 -24.800  0.00  0.00     0.297 C 
ATOM     12  N   UNL d   1      32.451  18.017 -24.834  0.00  0.00    -0.207 NA
ATOM     13  O   UNL d   1      31.868  16.738 -25.093  0.00  0.00    -0.264 OA
BRANCH  12  14
ATOM     14  C   UNL d   1      32.636  18.790 -24.625  0.00  0.00     0.085 A 
ATOM     15  C   UNL d   1      32.541  19.464 -25.096  0.00  0.00     0.019 A 
ATOM     16  C   UNL d   1      32.797  20.113 -24.665  0.00  0.00     0.002 A 
ATOM     17  C   UNL d   1      33.052  19.862 -23.925  0.00  0.00     0.002 A 
ATOM     18  C   UNL d   1      32.951  19.053 -23.906  0.00  0.00     0.019 A 
ENDBRANCH  12  14
ENDBRANCH  10  11
ENDBRANCH   2  10
BRANCH   1  19
ATOM     19  C   UNL d   1      29.302  17.784 -24.323  0.00  0.00     0.184 A 
ATOM     20  C   UNL d   1      28.614  17.553 -24.717  0.00  0.00     0.235 A 
ATOM     21  N   UNL d   1      28.261  18.234 -25.033  0.00  0.00    -0.081 NA
ATOM     22  N   UNL d   1      28.325  16.785 -24.788  0.00  0.00    -0.123 N 
ATOM     23  O   UNL d   1      28.732  18.881 -24.832  0.00  0.00    -0.104 OA
ATOM     24  N   UNL d   1      29.378  18.604 -24.392  0.00  0.00    -0.097 NA
ENDBRANCH   1  19
TORSDOF 4
ENDMDL
