MODEL 1
REMARK VINA RESULT:       6.3      0.000      0.000
REMARK  3 active torsions:
REMARK  status: ('A' for Active; 'I' for Inactive)
REMARK    1  A    between atoms: N_5  and  C_1 
REMARK    2  A    between atoms: N_8  and  N_5 
REMARK    3  A    between atoms: C_7  and  N_8 
ROOT
ATOM      1  C   UNL d   1      45.523 -13.260  44.317  0.00  0.00     0.162 A 
ATOM      2  C   UNL d   1      46.241 -13.047  44.658  0.00  0.00     0.299 A 
ATOM      3  N   UNL d   1      46.596 -13.732  44.954  0.00  0.00    -0.207 NA
ATOM      4  C   UNL d   1      45.429 -14.081  44.401  0.00  0.00     0.042 A 
ATOM      5  C   UNL d   1      46.092 -14.372  44.795  0.00  0.00     0.086 A 
ATOM      6  O   UNL d   1      46.554 -12.281  44.697  0.00  0.00    -0.263 OA
ATOM      7  C   UNL d   1      44.823 -14.594  44.167  0.00  0.00     0.003 A 
ATOM      8  C   UNL d   1      46.148 -15.177  44.954  0.00  0.00     0.019 A 
ATOM      9  C   UNL d   1      44.892 -15.396  44.333  0.00  0.00     0.000 A 
ATOM     10  C   UNL d   1      45.558 -15.688  44.729  0.00  0.00     0.002 A 
ENDROOT
BRANCH   1  11
ATOM     11  N   UNL d   1      44.982 -12.749  43.952  0.00  0.00    -0.141 NA
BRANCH  11  12
ATOM     12  N   UNL d   1      45.226 -12.292  43.299  0.00  0.00    -0.115 NA
BRANCH  12  13
ATOM     13  C   UNL d   1      44.716 -12.200  42.651  0.00  0.00     0.260 C 
ATOM     14  S   UNL d   1      45.023 -12.085  41.891  0.00  0.00    -0.034 SA
ATOM     15  N   UNL d   1      43.893 -12.224  42.772  0.00  0.00    -0.113 N 
ENDBRANCH  12  13
ENDBRANCH  11  12
ENDBRANCH   1  11
TORSDOF 3
ENDMDL
MODEL 2
REMARK VINA RESULT:       8.2      7.456      7.893
REMARK  3 active torsions:
REMARK  status: ('A' for Active; 'I' for Inactive)
REMARK    1  A    between atoms: N_5  and  C_1 
REMARK    2  A    between atoms: N_8  and  N_5 
REMARK    3  A    between atoms: C_7  and  N_8 
ROOT
ATOM      1  C   UNL d   1      44.475 -15.514  36.854  0.00  0.00     0.162 A 
ATOM      2  C   UNL d   1      44.721 -16.223  36.516  0.00  0.00     0.299 A 
ATOM      3  N   UNL d   1      45.537 -16.175  36.390  0.00  0.00    -0.207 NA
ATOM      4  C   UNL d   1      45.138 -15.022  36.939  0.00  0.00     0.042 A 
ATOM      5  C   UNL d   1      45.794 -15.431  36.652  0.00  0.00     0.086 A 
ATOM      6  O   UNL d   1      44.239 -16.871  36.335  0.00  0.00    -0.263 OA
ATOM      7  C   UNL d   1      45.223 -14.256  37.241  0.00  0.00     0.003 A 
ATOM      8  C   UNL d   1      46.534 -15.073  36.667  0.00  0.00     0.019 A 
ATOM      9  C   UNL d   1      45.968 -13.910  37.251  0.00  0.00     0.000 A 
ATOM     10  C   UNL d   1      46.627 -14.321  36.962  0.00  0.00     0.002 A 
ENDROOT
BRANCH   1  11
ATOM     11  N   UNL d   1      43.700 -15.319  37.074  0.00  0.00    -0.141 NA
BRANCH  11  12
ATOM     12  N   UNL d   1      43.067 -15.525  36.573  0.00  0.00    -0.115 NA
BRANCH  12  13
ATOM     13  C   UNL d   1      42.287 -15.442  36.844  0.00  0.00     0.260 C 
ATOM     14  S   UNL d   1      41.654 -15.694  36.375  0.00  0.00    -0.034 SA
ATOM     15  N   UNL d   1      42.149 -15.103  37.591  0.00  0.00    -0.113 N 
ENDBRANCH  12  13
ENDBRANCH  11  12
ENDBRANCH   1  11
TORSDOF 3
ENDMDL
