MODEL 1
REMARK VINA RESULT:      -6.6      0.000      0.000
REMARK  5 active torsions:
REMARK  status: ('A' for Active; 'I' for Inactive)
REMARK    1  A    between atoms: S_2  and  C_12 
REMARK    2  A    between atoms: N_7  and  S_2 
REMARK    3  A    between atoms: C_5  and  N_7 
REMARK    4  A    between atoms: O_26  and  C_22 
REMARK    5  A    between atoms: C_27  and  O_26 
ROOT
ATOM      1  S   UNL d   1     -47.674  12.827  23.250  0.00  0.00     0.287 S 
ATOM      2  O   UNL d   1     -47.838  12.028  23.090  0.00  0.00    -0.198 OA
ATOM      3  O   UNL d   1     -47.513  13.635  23.409  0.00  0.00    -0.198 OA
ENDROOT
BRANCH   1   4
ATOM      4  C   UNL d   1     -48.385  13.048  22.866  0.00  0.00     0.107 A 
ATOM      5  C   UNL d   1     -48.687  13.813  22.961  0.00  0.00     0.032 A 
ATOM      6  C   UNL d   1     -49.385  14.030  22.584  0.00  0.00     0.085 A 
ATOM      7  N   UNL d   1     -49.814  14.735  22.572  0.00  0.00    -0.256 N 
ATOM      8  C   UNL d   1     -49.787  13.483  22.107  0.00  0.00     0.085 A 
ATOM      9  C   UNL d   1     -50.476  14.618  22.089  0.00  0.00     0.339 A 
ATOM     10  C   UNL d   1     -49.624  15.428  22.965  0.00  0.00     0.104 C 
ATOM     11  N   UNL d   1     -50.461  13.858  21.806  0.00  0.00    -0.256 N 
ATOM     12  O   UNL d   1     -51.063  15.178  21.918  0.00  0.00    -0.245 OA
ATOM     13  C   UNL d   1     -51.016  13.515  21.307  0.00  0.00     0.104 C 
ATOM     14  C   UNL d   1     -49.478  12.720  22.017  0.00  0.00     0.020 A 
ATOM     15  C   UNL d   1     -48.780  12.504  22.394  0.00  0.00     0.015 A 
ENDBRANCH   1   4
BRANCH   1  16
ATOM     16  N   UNL d   1     -46.967  12.614  23.633  0.00  0.00    -0.132 NA
BRANCH  16  17
ATOM     17  C   UNL d   1     -46.260  12.577  23.212  0.00  0.00     0.206 A 
ATOM     18  N   UNL d   1     -45.723  11.970  23.355  0.00  0.00    -0.220 NA
ATOM     19  C   UNL d   1     -45.073  12.081  22.850  0.00  0.00     0.090 A 
ATOM     20  C   UNL d   1     -44.373  11.661  22.740  0.00  0.00     0.022 A 
ATOM     21  C   UNL d   1     -45.222  12.760  22.401  0.00  0.00     0.052 A 
ATOM     22  C   UNL d   1     -43.827  11.912  22.189  0.00  0.00     0.026 A 
ATOM     23  C   UNL d   1     -43.968  12.586  21.738  0.00  0.00     0.101 A 
ATOM     24  C   UNL d   1     -44.669  13.011  21.846  0.00  0.00     0.033 A 
ATOM     25  S   UNL d   1     -45.940  13.069  22.612  0.00  0.00    -0.046 SA
BRANCH  23  26
ATOM     26  O   UNL d   1     -43.417  12.844  21.179  0.00  0.00    -0.305 OA
BRANCH  26  27
ATOM     27  C   UNL d   1     -42.632  12.980  21.417  0.00  0.00     0.123 C 
ATOM     28  C   UNL d   1     -42.117  13.398  20.925  0.00  0.00     0.029 C 
ENDBRANCH  26  27
ENDBRANCH  23  26
ENDBRANCH  16  17
ENDBRANCH   1  16
TORSDOF 5
ENDMDL
MODEL 2
REMARK VINA RESULT:      -5.9      8.197      9.607
REMARK  5 active torsions:
REMARK  status: ('A' for Active; 'I' for Inactive)
REMARK    1  A    between atoms: S_2  and  C_12 
REMARK    2  A    between atoms: N_7  and  S_2 
REMARK    3  A    between atoms: C_5  and  N_7 
REMARK    4  A    between atoms: O_26  and  C_22 
REMARK    5  A    between atoms: C_27  and  O_26 
ROOT
ATOM      1  S   UNL d   1     -40.253  15.122  19.556  0.00  0.00     0.287 S 
ATOM      2  O   UNL d   1     -40.468  14.330  19.690  0.00  0.00    -0.198 OA
ATOM      3  O   UNL d   1     -40.034  15.922  19.426  0.00  0.00    -0.198 OA
ENDROOT
BRANCH   1   4
ATOM      4  C   UNL d   1     -39.923  15.161  20.325  0.00  0.00     0.107 A 
ATOM      5  C   UNL d   1     -39.469  14.532  20.614  0.00  0.00     0.032 A 
ATOM      6  C   UNL d   1     -39.146  14.570  21.369  0.00  0.00     0.085 A 
ATOM      7  N   UNL d   1     -38.680  14.044  21.801  0.00  0.00    -0.256 N 
ATOM      8  C   UNL d   1     -39.273  15.239  21.843  0.00  0.00     0.085 A 
ATOM      9  C   UNL d   1     -38.523  14.391  22.536  0.00  0.00     0.339 A 
ATOM     10  C   UNL d   1     -38.416  13.308  21.552  0.00  0.00     0.104 C 
ATOM     11  N   UNL d   1     -38.883  15.117  22.563  0.00  0.00    -0.256 N 
ATOM     12  O   UNL d   1     -38.075  14.060  23.149  0.00  0.00    -0.245 OA
ATOM     13  C   UNL d   1     -38.867  15.644  23.192  0.00  0.00     0.104 C 
ATOM     14  C   UNL d   1     -39.728  15.864  21.547  0.00  0.00     0.020 A 
ATOM     15  C   UNL d   1     -40.052  15.825  20.791  0.00  0.00     0.015 A 
ENDBRANCH   1   4
BRANCH   1  16
ATOM     16  N   UNL d   1     -40.578  15.091  18.791  0.00  0.00    -0.132 NA
BRANCH  16  17
ATOM     17  C   UNL d   1     -40.089  15.012  18.133  0.00  0.00     0.206 A 
ATOM     18  N   UNL d   1     -39.906  15.666  17.670  0.00  0.00    -0.220 NA
ATOM     19  C   UNL d   1     -39.409  15.413  17.056  0.00  0.00     0.090 A 
ATOM     20  C   UNL d   1     -39.050  15.808  16.428  0.00  0.00     0.022 A 
ATOM     21  C   UNL d   1     -39.292  14.600  17.153  0.00  0.00     0.052 A 
ATOM     22  C   UNL d   1     -38.579  15.400  15.902  0.00  0.00     0.026 A 
ATOM     23  C   UNL d   1     -38.458  14.590  15.991  0.00  0.00     0.101 A 
ATOM     24  C   UNL d   1     -38.816  14.190  16.620  0.00  0.00     0.033 A 
ATOM     25  S   UNL d   1     -39.700  14.345  17.804  0.00  0.00    -0.046 SA
BRANCH  23  26
ATOM     26  O   UNL d   1     -37.982  14.172  15.460  0.00  0.00    -0.305 OA
BRANCH  26  27
ATOM     27  C   UNL d   1     -38.342  13.679  14.896  0.00  0.00     0.123 C 
ATOM     28  C   UNL d   1     -37.940  13.482  14.203  0.00  0.00     0.029 C 
ENDBRANCH  26  27
ENDBRANCH  23  26
ENDBRANCH  16  17
ENDBRANCH   1  16
TORSDOF 5
ENDMDL
MODEL 3
REMARK VINA RESULT:      -5.0      1.527      2.193
REMARK  5 active torsions:
REMARK  status: ('A' for Active; 'I' for Inactive)
REMARK    1  A    between atoms: S_2  and  C_12 
REMARK    2  A    between atoms: N_7  and  S_2 
REMARK    3  A    between atoms: C_5  and  N_7 
REMARK    4  A    between atoms: O_26  and  C_22 
REMARK    5  A    between atoms: C_27  and  O_26 
ROOT
ATOM      1  S   UNL d   1     -47.169  14.059  22.423  0.00  0.00     0.287 S 
ATOM      2  O   UNL d   1     -47.340  13.672  21.708  0.00  0.00    -0.198 OA
ATOM      3  O   UNL d   1     -47.001  14.450  23.147  0.00  0.00    -0.198 OA
ENDROOT
BRANCH   1   4
ATOM      4  C   UNL d   1     -47.979  14.029  22.632  0.00  0.00     0.107 A 
ATOM      5  C   UNL d   1     -48.340  13.301  22.792  0.00  0.00     0.032 A 
ATOM      6  C   UNL d   1     -49.136  13.272  22.997  0.00  0.00     0.085 A 
ATOM      7  N   UNL d   1     -49.639  12.645  23.184  0.00  0.00    -0.256 N 
ATOM      8  C   UNL d   1     -49.580  13.971  23.043  0.00  0.00     0.085 A 
ATOM      9  C   UNL d   1     -50.387  12.961  23.344  0.00  0.00     0.339 A 
ATOM     10  C   UNL d   1     -49.439  11.850  23.208  0.00  0.00     0.104 C 
ATOM     11  N   UNL d   1     -50.352  13.767  23.259  0.00  0.00    -0.256 N 
ATOM     12  O   UNL d   1     -51.064  12.534  23.556  0.00  0.00    -0.245 OA
ATOM     13  C   UNL d   1     -50.973  14.293  23.366  0.00  0.00     0.104 C 
ATOM     14  C   UNL d   1     -49.212  14.695  22.882  0.00  0.00     0.020 A 
ATOM     15  C   UNL d   1     -48.415  14.724  22.677  0.00  0.00     0.015 A 
ENDBRANCH   1   4
BRANCH   1  16
ATOM     16  N   UNL d   1     -46.362  14.093  22.223  0.00  0.00    -0.132 NA
BRANCH  16  17
ATOM     17  C   UNL d   1     -45.859  13.469  22.415  0.00  0.00     0.206 A 
ATOM     18  N   UNL d   1     -45.162  13.353  21.994  0.00  0.00    -0.220 NA
ATOM     19  C   UNL d   1     -44.779  12.690  22.313  0.00  0.00     0.090 A 
ATOM     20  C   UNL d   1     -44.072  12.309  22.128  0.00  0.00     0.022 A 
ATOM     21  C   UNL d   1     -45.250  12.406  22.931  0.00  0.00     0.052 A 
ATOM     22  C   UNL d   1     -43.836  11.654  22.551  0.00  0.00     0.026 A 
ATOM     23  C   UNL d   1     -44.299  11.365  23.168  0.00  0.00     0.101 A 
ATOM     24  C   UNL d   1     -45.009  11.745  23.357  0.00  0.00     0.033 A 
ATOM     25  S   UNL d   1     -45.909  12.872  23.003  0.00  0.00    -0.046 SA
BRANCH  23  26
ATOM     26  O   UNL d   1     -44.064  10.701  23.600  0.00  0.00    -0.305 OA
BRANCH  26  27
ATOM     27  C   UNL d   1     -44.169   9.946  23.270  0.00  0.00     0.123 C 
ATOM     28  C   UNL d   1     -43.953   9.274  23.698  0.00  0.00     0.029 C 
ENDBRANCH  26  27
ENDBRANCH  23  26
ENDBRANCH  16  17
ENDBRANCH   1  16
TORSDOF 5
ENDMDL
MODEL 4
REMARK VINA RESULT:      -4.2      1.388      5.677
REMARK  5 active torsions:
REMARK  status: ('A' for Active; 'I' for Inactive)
REMARK    1  A    between atoms: S_2  and  C_12 
REMARK    2  A    between atoms: N_7  and  S_2 
REMARK    3  A    between atoms: C_5  and  N_7 
REMARK    4  A    between atoms: O_26  and  C_22 
REMARK    5  A    between atoms: C_27  and  O_26 
ROOT
ATOM      1  S   UNL d   1     -47.270  11.672  23.299  0.00  0.00     0.287 S 
ATOM      2  O   UNL d   1     -47.279  12.402  23.698  0.00  0.00    -0.198 OA
ATOM      3  O   UNL d   1     -47.257  10.937  22.896  0.00  0.00    -0.198 OA
ENDROOT
BRANCH   1   4
ATOM      4  C   UNL d   1     -46.484  11.818  23.053  0.00  0.00     0.107 A 
ATOM      5  C   UNL d   1     -45.880  11.289  23.257  0.00  0.00     0.032 A 
ATOM      6  C   UNL d   1     -45.108  11.432  23.015  0.00  0.00     0.085 A 
ATOM      7  N   UNL d   1     -44.403  11.017  23.129  0.00  0.00    -0.256 N 
ATOM      8  C   UNL d   1     -44.931  12.107  22.566  0.00  0.00     0.085 A 
ATOM      9  C   UNL d   1     -43.799  11.437  22.750  0.00  0.00     0.339 A 
ATOM     10  C   UNL d   1     -44.313  10.314  23.542  0.00  0.00     0.104 C 
ATOM     11  N   UNL d   1     -44.118  12.100  22.408  0.00  0.00    -0.256 N 
ATOM     12  O   UNL d   1     -42.999  11.225  22.721  0.00  0.00    -0.245 OA
ATOM     13  C   UNL d   1     -43.710  12.668  21.978  0.00  0.00     0.104 C 
ATOM     14  C   UNL d   1     -45.540  12.631  22.366  0.00  0.00     0.020 A 
ATOM     15  C   UNL d   1     -46.313  12.487  22.608  0.00  0.00     0.015 A 
ENDBRANCH   1   4
BRANCH   1  16
ATOM     16  N   UNL d   1     -48.052  11.521  23.541  0.00  0.00    -0.132 NA
BRANCH  16  17
ATOM     17  C   UNL d   1     -48.664  12.021  23.307  0.00  0.00     0.206 A 
ATOM     18  N   UNL d   1     -49.214  11.771  22.748  0.00  0.00    -0.220 NA
ATOM     19  C   UNL d   1     -49.755  12.389  22.629  0.00  0.00     0.090 A 
ATOM     20  C   UNL d   1     -50.417  12.466  22.145  0.00  0.00     0.022 A 
ATOM     21  C   UNL d   1     -49.528  13.014  23.120  0.00  0.00     0.052 A 
ATOM     22  C   UNL d   1     -50.849  13.158  22.149  0.00  0.00     0.026 A 
ATOM     23  C   UNL d   1     -50.630  13.785  22.635  0.00  0.00     0.101 A 
ATOM     24  C   UNL d   1     -49.966  13.711  23.122  0.00  0.00     0.033 A 
ATOM     25  S   UNL d   1     -48.867  12.803  23.537  0.00  0.00    -0.046 SA
BRANCH  23  26
ATOM     26  O   UNL d   1     -51.064  14.488  22.642  0.00  0.00    -0.305 OA
BRANCH  26  27
ATOM     27  C   UNL d   1     -50.982  15.008  23.286  0.00  0.00     0.123 C 
ATOM     28  C   UNL d   1     -51.004  15.823  23.164  0.00  0.00     0.029 C 
ENDBRANCH  26  27
ENDBRANCH  23  26
ENDBRANCH  16  17
ENDBRANCH   1  16
TORSDOF 5
ENDMDL
MODEL 5
REMARK VINA RESULT:      -3.9      2.662      6.935
REMARK  5 active torsions:
REMARK  status: ('A' for Active; 'I' for Inactive)
REMARK    1  A    between atoms: S_2  and  C_12 
REMARK    2  A    between atoms: N_7  and  S_2 
REMARK    3  A    between atoms: C_5  and  N_7 
REMARK    4  A    between atoms: O_26  and  C_22 
REMARK    5  A    between atoms: C_27  and  O_26 
ROOT
ATOM      1  S   UNL d   1     -42.492  12.981  21.287  0.00  0.00     0.287 S 
ATOM      2  O   UNL d   1     -42.336  12.986  22.104  0.00  0.00    -0.198 OA
ATOM      3  O   UNL d   1     -42.646  12.979  20.462  0.00  0.00    -0.198 OA
ENDROOT
BRANCH   1   4
ATOM      4  C   UNL d   1     -41.905  13.566  21.172  0.00  0.00     0.107 A 
ATOM      5  C   UNL d   1     -41.144  13.457  21.482  0.00  0.00     0.032 A 
ATOM      6  C   UNL d   1     -40.568  14.032  21.369  0.00  0.00     0.085 A 
ATOM      7  N   UNL d   1     -39.778  14.081  21.604  0.00  0.00    -0.256 N 
ATOM      8  C   UNL d   1     -40.745  14.723  20.945  0.00  0.00     0.085 A 
ATOM      9  C   UNL d   1     -39.476  14.799  21.325  0.00  0.00     0.339 A 
ATOM     10  C   UNL d   1     -39.363  13.522  22.037  0.00  0.00     0.104 C 
ATOM     11  N   UNL d   1     -40.063  15.190  20.924  0.00  0.00    -0.256 N 
ATOM     12  O   UNL d   1     -38.704  15.081  21.432  0.00  0.00    -0.245 OA
ATOM     13  C   UNL d   1     -39.996  15.922  20.559  0.00  0.00     0.104 C 
ATOM     14  C   UNL d   1     -41.508  14.824  20.638  0.00  0.00     0.020 A 
ATOM     15  C   UNL d   1     -42.085  14.248  20.752  0.00  0.00     0.015 A 
ENDBRANCH   1   4
BRANCH   1  16
ATOM     16  N   UNL d   1     -43.077  12.399  21.394  0.00  0.00    -0.132 NA
BRANCH  16  17
ATOM     17  C   UNL d   1     -43.809  12.599  21.716  0.00  0.00     0.206 A 
ATOM     18  N   UNL d   1     -44.174  12.100  22.259  0.00  0.00    -0.220 NA
ATOM     19  C   UNL d   1     -44.894  12.447  22.481  0.00  0.00     0.090 A 
ATOM     20  C   UNL d   1     -45.492  12.213  22.997  0.00  0.00     0.022 A 
ATOM     21  C   UNL d   1     -44.961  13.161  22.067  0.00  0.00     0.052 A 
ATOM     22  C   UNL d   1     -46.150  12.684  23.102  0.00  0.00     0.026 A 
ATOM     23  C   UNL d   1     -46.225  13.395  22.695  0.00  0.00     0.101 A 
ATOM     24  C   UNL d   1     -45.627  13.633  22.175  0.00  0.00     0.033 A 
ATOM     25  S   UNL d   1     -44.309  13.263  21.600  0.00  0.00    -0.046 SA
BRANCH  23  26
ATOM     26  O   UNL d   1     -46.890  13.875  22.798  0.00  0.00    -0.305 OA
BRANCH  26  27
ATOM     27  C   UNL d   1     -47.641  13.570  22.612  0.00  0.00     0.123 C 
ATOM     28  C   UNL d   1     -48.308  14.052  22.668  0.00  0.00     0.029 C 
ENDBRANCH  26  27
ENDBRANCH  23  26
ENDBRANCH  16  17
ENDBRANCH   1  16
TORSDOF 5
ENDMDL
