MODEL 1
REMARK VINA RESULT:     107.3      0.000      0.000
REMARK  7 active torsions:
REMARK  status: ('A' for Active; 'I' for Inactive)
REMARK    1  A    between atoms: S_10  and  C_3 
REMARK    2  A    between atoms: C_12  and  C_7 
REMARK    3  A    between atoms: C_19  and  S_10 
REMARK    4  A    between atoms: C_11  and  C_19 
REMARK       I    between atoms: N_14  and  C_11 
REMARK    5  A    between atoms: C_13  and  C_15 
REMARK    6  A    between atoms: C_15  and  N_14 
REMARK    7  A    between atoms: O_21  and  C_17 
ROOT
ATOM      1  N   UNL d   1      61.234  47.371  50.347  0.00  0.00    -0.186 N 
ATOM      2  N   UNL d   1      60.619  47.751  50.727  0.00  0.00    -0.162 NA
ATOM      3  C   UNL d   1      61.398  46.569  50.231  0.00  0.00     0.217 A 
ATOM      4  C   UNL d   1      61.838  47.801  49.989  0.00  0.00     0.187 A 
ATOM      5  N   UNL d   1      62.095  46.519  49.807  0.00  0.00    -0.120 NA
ATOM      6  N   UNL d   1      62.369  47.281  49.656  0.00  0.00    -0.127 NA
ATOM      7  C   UNL d   1      60.605  48.576  50.752  0.00  0.00     0.103 A 
ATOM      8  C   UNL d   1      61.821  48.630  50.016  0.00  0.00     0.042 A 
ATOM      9  C   UNL d   1      61.210  49.013  50.394  0.00  0.00     0.024 A 
ENDROOT
BRANCH   3  10
ATOM     10  S   UNL d   1      60.955  45.923  50.487  0.00  0.00    -0.041 SA
BRANCH  10  11
ATOM     11  C   UNL d   1      61.230  45.166  50.385  0.00  0.00     0.101 C 
BRANCH  11  12
ATOM     12  C   UNL d   1      60.801  44.533  50.663  0.00  0.00     0.286 C 
ATOM     13  N   UNL d   1      61.187  43.855  50.929  0.00  0.00    -0.206 NA
ATOM     14  O   UNL d   1      59.975  44.552  50.687  0.00  0.00    -0.265 OA
BRANCH  13  15
ATOM     15  C   UNL d   1      62.012  43.825  50.910  0.00  0.00     0.104 C 
BRANCH  15  16
ATOM     16  C   UNL d   1      62.393  43.107  50.767  0.00  0.00     0.042 A 
ATOM     17  C   UNL d   1      62.433  42.533  51.364  0.00  0.00     0.096 A 
ATOM     18  C   UNL d   1      62.814  41.812  51.225  0.00  0.00     0.024 A 
ATOM     19  C   UNL d   1      63.157  41.672  50.479  0.00  0.00     0.002 A 
ATOM     20  C   UNL d   1      63.114  42.247  49.890  0.00  0.00     0.000 A 
ATOM     21  C   UNL d   1      62.735  42.961  50.031  0.00  0.00     0.004 A 
BRANCH  17  22
ATOM     22  O   UNL d   1      62.093  42.672  52.102  0.00  0.00    -0.328 OA
ATOM     23  C   UNL d   1      62.120  42.098  52.683  0.00  0.00     0.181 C 
ENDBRANCH  17  22
ENDBRANCH  15  16
ENDBRANCH  13  15
ENDBRANCH  11  12
ENDBRANCH  10  11
ENDBRANCH   3  10
BRANCH   7  24
ATOM     24  C   UNL d   1      59.981  48.955  51.139  0.00  0.00     0.039 A 
ATOM     25  C   UNL d   1      60.019  49.118  51.930  0.00  0.00     0.101 A 
ATOM     26  N   UNL d   1      59.404  49.490  52.304  0.00  0.00    -0.242 NA
ATOM     27  C   UNL d   1      58.729  49.707  51.881  0.00  0.00     0.099 A 
ATOM     28  C   UNL d   1      58.690  49.542  51.077  0.00  0.00     0.021 A 
ATOM     29  C   UNL d   1      59.317  49.163  50.698  0.00  0.00     0.005 A 
ENDBRANCH   7  24
TORSDOF 7
ENDMDL
MODEL 2
REMARK VINA RESULT:     108.3      2.721      4.468
REMARK  7 active torsions:
REMARK  status: ('A' for Active; 'I' for Inactive)
REMARK    1  A    between atoms: S_10  and  C_3 
REMARK    2  A    between atoms: C_12  and  C_7 
REMARK    3  A    between atoms: C_19  and  S_10 
REMARK    4  A    between atoms: C_11  and  C_19 
REMARK       I    between atoms: N_14  and  C_11 
REMARK    5  A    between atoms: C_13  and  C_15 
REMARK    6  A    between atoms: C_15  and  N_14 
REMARK    7  A    between atoms: O_21  and  C_17 
ROOT
ATOM      1  N   UNL d   1      57.701  48.558  50.588  0.00  0.00    -0.186 N 
ATOM      2  N   UNL d   1      57.548  47.823  50.267  0.00  0.00    -0.162 NA
ATOM      3  C   UNL d   1      58.398  48.999  50.647  0.00  0.00     0.217 A 
ATOM      4  C   UNL d   1      57.100  49.000  50.935  0.00  0.00     0.187 A 
ATOM      5  N   UNL d   1      58.215  49.700  51.026  0.00  0.00    -0.120 NA
ATOM      6  N   UNL d   1      57.411  49.702  51.205  0.00  0.00    -0.127 NA
ATOM      7  C   UNL d   1      56.779  47.521  50.292  0.00  0.00     0.103 A 
ATOM      8  C   UNL d   1      56.328  48.694  50.959  0.00  0.00     0.042 A 
ATOM      9  C   UNL d   1      56.171  47.961  50.640  0.00  0.00     0.024 A 
ENDROOT
BRANCH   3  10
ATOM     10  S   UNL d   1      59.149  48.790  50.378  0.00  0.00    -0.041 SA
BRANCH  10  11
ATOM     11  C   UNL d   1      59.765  48.707  50.900  0.00  0.00     0.101 C 
BRANCH  11  12
ATOM     12  C   UNL d   1      60.521  48.912  50.678  0.00  0.00     0.286 C 
ATOM     13  N   UNL d   1      61.098  48.331  50.581  0.00  0.00    -0.206 NA
ATOM     14  O   UNL d   1      60.729  49.701  50.545  0.00  0.00    -0.265 OA
BRANCH  13  15
ATOM     15  C   UNL d   1      60.900  47.541  50.711  0.00  0.00     0.104 C 
BRANCH  15  16
ATOM     16  C   UNL d   1      61.304  46.945  50.306  0.00  0.00     0.042 A 
ATOM     17  C   UNL d   1      61.217  46.153  50.539  0.00  0.00     0.096 A 
ATOM     18  C   UNL d   1      61.619  45.553  50.137  0.00  0.00     0.024 A 
ATOM     19  C   UNL d   1      62.113  45.755  49.496  0.00  0.00     0.002 A 
ATOM     20  C   UNL d   1      62.195  46.544  49.271  0.00  0.00     0.000 A 
ATOM     21  C   UNL d   1      61.795  47.136  49.672  0.00  0.00     0.004 A 
BRANCH  17  22
ATOM     22  O   UNL d   1      60.728  45.954  51.172  0.00  0.00    -0.328 OA
ATOM     23  C   UNL d   1      60.471  45.185  51.269  0.00  0.00     0.181 C 
ENDBRANCH  17  22
ENDBRANCH  15  16
ENDBRANCH  13  15
ENDBRANCH  11  12
ENDBRANCH  10  11
ENDBRANCH   3  10
BRANCH   7  24
ATOM     24  C   UNL d   1      56.630  46.777  49.965  0.00  0.00     0.039 A 
ATOM     25  C   UNL d   1      56.655  46.110  50.421  0.00  0.00     0.101 A 
ATOM     26  N   UNL d   1      56.508  45.383  50.096  0.00  0.00    -0.242 NA
ATOM     27  C   UNL d   1      56.330  45.314  49.292  0.00  0.00     0.099 A 
ATOM     28  C   UNL d   1      56.304  45.991  48.828  0.00  0.00     0.021 A 
ATOM     29  C   UNL d   1      56.454  46.731  49.161  0.00  0.00     0.005 A 
ENDBRANCH   7  24
TORSDOF 7
ENDMDL
