MODEL 1
REMARK VINA RESULT:      -7.2      0.000      0.000
REMARK  0 active torsions:
REMARK  status: ('A' for Active; 'I' for Inactive)
ROOT
ATOM      1  N   UNL d   1     -47.195  11.515  23.674  0.00  0.00    -0.183 NA
ATOM      2  C   UNL d   1     -46.574  12.050  23.566  0.00  0.00     0.339 A 
ATOM      3  N   UNL d   1     -47.516  13.053  23.197  0.00  0.00    -0.201 NA
ATOM      4  C   UNL d   1     -46.734  12.812  23.330  0.00  0.00     0.337 A 
ATOM      5  C   UNL d   1     -47.974  11.750  23.543  0.00  0.00     0.184 A 
ATOM      6  C   UNL d   1     -48.133  12.513  23.306  0.00  0.00     0.121 A 
ATOM      7  N   UNL d   1     -48.593  11.215  23.650  0.00  0.00    -0.223 NA
ATOM      8  C   UNL d   1     -48.914  12.753  23.173  0.00  0.00     0.031 A 
ATOM      9  O   UNL d   1     -45.788  11.816  23.698  0.00  0.00    -0.260 OA
ATOM     10  O   UNL d   1     -46.109  13.354  23.221  0.00  0.00    -0.260 OA
ATOM     11  C   UNL d   1     -49.533  12.213  23.282  0.00  0.00     0.055 A 
ATOM     12  C   UNL d   1     -49.374  11.451  23.519  0.00  0.00     0.107 A 
ATOM     13 BR   UNL d   1     -50.314  12.442  23.153  0.00  0.00    -0.048 Br
ENDROOT
TORSDOF 0
ENDMDL
MODEL 2
REMARK VINA RESULT:      -7.1      0.606      1.331
REMARK  0 active torsions:
REMARK  status: ('A' for Active; 'I' for Inactive)
ROOT
ATOM      1  N   UNL d   1     -47.244  13.311  23.074  0.00  0.00    -0.183 NA
ATOM      2  C   UNL d   1     -46.515  12.947  23.210  0.00  0.00     0.339 A 
ATOM      3  N   UNL d   1     -47.193  11.778  23.661  0.00  0.00    -0.201 NA
ATOM      4  C   UNL d   1     -46.489  12.187  23.501  0.00  0.00     0.337 A 
ATOM      5  C   UNL d   1     -47.945  12.907  23.231  0.00  0.00     0.184 A 
ATOM      6  C   UNL d   1     -47.919  12.147  23.522  0.00  0.00     0.121 A 
ATOM      7  N   UNL d   1     -48.674  13.270  23.094  0.00  0.00    -0.223 NA
ATOM      8  C   UNL d   1     -48.622  11.738  23.681  0.00  0.00     0.031 A 
ATOM      9  O   UNL d   1     -45.806  13.351  23.053  0.00  0.00    -0.260 OA
ATOM     10  O   UNL d   1     -45.754  11.819  23.640  0.00  0.00    -0.260 OA
ATOM     11  C   UNL d   1     -49.351  12.107  23.543  0.00  0.00     0.055 A 
ATOM     12  C   UNL d   1     -49.376  12.866  23.252  0.00  0.00     0.107 A 
ATOM     13 BR   UNL d   1     -50.056  11.708  23.698  0.00  0.00    -0.048 Br
ENDROOT
TORSDOF 0
ENDMDL
MODEL 3
REMARK VINA RESULT:      -7.0      1.524      1.797
REMARK  0 active torsions:
REMARK  status: ('A' for Active; 'I' for Inactive)
ROOT
ATOM      1  N   UNL d   1     -47.312  12.762  23.327  0.00  0.00    -0.183 NA
ATOM      2  C   UNL d   1     -46.501  12.873  23.216  0.00  0.00     0.339 A 
ATOM      3  N   UNL d   1     -46.758  14.186  22.728  0.00  0.00    -0.201 NA
ATOM      4  C   UNL d   1     -46.226  13.579  22.919  0.00  0.00     0.337 A 
ATOM      5  C   UNL d   1     -47.843  13.363  23.139  0.00  0.00     0.184 A 
ATOM      6  C   UNL d   1     -47.568  14.069  22.841  0.00  0.00     0.121 A 
ATOM      7  N   UNL d   1     -48.653  13.251  23.250  0.00  0.00    -0.223 NA
ATOM      8  C   UNL d   1     -48.099  14.676  22.651  0.00  0.00     0.031 A 
ATOM      9  O   UNL d   1     -45.962  12.269  23.405  0.00  0.00    -0.260 OA
ATOM     10  O   UNL d   1     -45.408  13.694  22.805  0.00  0.00    -0.260 OA
ATOM     11  C   UNL d   1     -48.912  14.559  22.764  0.00  0.00     0.055 A 
ATOM     12  C   UNL d   1     -49.186  13.853  23.061  0.00  0.00     0.107 A 
ATOM     13 BR   UNL d   1     -49.448  15.156  22.578  0.00  0.00    -0.048 Br
ENDROOT
TORSDOF 0
ENDMDL
MODEL 4
REMARK VINA RESULT:      -6.8      2.131      2.725
REMARK  0 active torsions:
REMARK  status: ('A' for Active; 'I' for Inactive)
ROOT
ATOM      1  N   UNL d   1     -48.553  11.419  23.668  0.00  0.00    -0.183 NA
ATOM      2  C   UNL d   1     -49.355  11.526  23.499  0.00  0.00     0.339 A 
ATOM      3  N   UNL d   1     -49.057  12.801  22.938  0.00  0.00    -0.201 NA
ATOM      4  C   UNL d   1     -49.605  12.211  23.137  0.00  0.00     0.337 A 
ATOM      5  C   UNL d   1     -48.006  12.003  23.472  0.00  0.00     0.184 A 
ATOM      6  C   UNL d   1     -48.256  12.688  23.110  0.00  0.00     0.121 A 
ATOM      7  N   UNL d   1     -47.205  11.897  23.641  0.00  0.00    -0.223 NA
ATOM      8  C   UNL d   1     -47.709  13.278  22.910  0.00  0.00     0.031 A 
ATOM      9  O   UNL d   1     -49.909  10.939  23.696  0.00  0.00    -0.260 OA
ATOM     10  O   UNL d   1     -50.413  12.321  22.965  0.00  0.00    -0.260 OA
ATOM     11  C   UNL d   1     -46.907  13.166  23.082  0.00  0.00     0.055 A 
ATOM     12  C   UNL d   1     -46.657  12.481  23.444  0.00  0.00     0.107 A 
ATOM     13 BR   UNL d   1     -46.354  13.747  22.888  0.00  0.00    -0.048 Br
ENDROOT
TORSDOF 0
ENDMDL
MODEL 5
REMARK VINA RESULT:      -6.4      2.292      2.994
REMARK  0 active torsions:
REMARK  status: ('A' for Active; 'I' for Inactive)
ROOT
ATOM      1  N   UNL d   1     -47.642  14.565  22.695  0.00  0.00    -0.183 NA
ATOM      2  C   UNL d   1     -48.425  14.783  22.545  0.00  0.00     0.339 A 
ATOM      3  N   UNL d   1     -48.847  13.469  22.899  0.00  0.00    -0.201 NA
ATOM      4  C   UNL d   1     -49.022  14.239  22.647  0.00  0.00     0.337 A 
ATOM      5  C   UNL d   1     -47.464  13.801  22.945  0.00  0.00     0.184 A 
ATOM      6  C   UNL d   1     -48.062  13.257  23.047  0.00  0.00     0.121 A 
ATOM      7  N   UNL d   1     -46.682  13.584  23.094  0.00  0.00    -0.223 NA
ATOM      8  C   UNL d   1     -47.887  12.487  23.299  0.00  0.00     0.031 A 
ATOM      9  O   UNL d   1     -48.608  15.553  22.292  0.00  0.00    -0.260 OA
ATOM     10  O   UNL d   1     -49.813  14.456  22.497  0.00  0.00    -0.260 OA
ATOM     11  C   UNL d   1     -47.100  12.274  23.447  0.00  0.00     0.055 A 
ATOM     12  C   UNL d   1     -46.502  12.818  23.346  0.00  0.00     0.107 A 
ATOM     13 BR   UNL d   1     -46.915  11.511  23.698  0.00  0.00    -0.048 Br
ENDROOT
TORSDOF 0
ENDMDL
MODEL 6
REMARK VINA RESULT:      -6.2      2.141      2.706
REMARK  0 active torsions:
REMARK  status: ('A' for Active; 'I' for Inactive)
ROOT
ATOM      1  N   UNL d   1     -45.143  11.990  23.092  0.00  0.00    -0.183 NA
ATOM      2  C   UNL d   1     -44.475  12.029  22.607  0.00  0.00     0.339 A 
ATOM      3  N   UNL d   1     -45.004  13.200  21.991  0.00  0.00    -0.201 NA
ATOM      4  C   UNL d   1     -44.407  12.629  22.061  0.00  0.00     0.337 A 
ATOM      5  C   UNL d   1     -45.739  12.556  23.025  0.00  0.00     0.184 A 
ATOM      6  C   UNL d   1     -45.670  13.155  22.479  0.00  0.00     0.121 A 
ATOM      7  N   UNL d   1     -46.405  12.516  23.511  0.00  0.00    -0.223 NA
ATOM      8  C   UNL d   1     -46.267  13.726  22.409  0.00  0.00     0.031 A 
ATOM      9  O   UNL d   1     -43.873  11.461  22.671  0.00  0.00    -0.260 OA
ATOM     10  O   UNL d   1     -43.734  12.671  21.570  0.00  0.00    -0.260 OA
ATOM     11  C   UNL d   1     -46.934  13.682  22.898  0.00  0.00     0.055 A 
ATOM     12  C   UNL d   1     -47.003  13.082  23.444  0.00  0.00     0.107 A 
ATOM     13 BR   UNL d   1     -47.533  14.244  22.837  0.00  0.00    -0.048 Br
ENDROOT
TORSDOF 0
ENDMDL
MODEL 7
REMARK VINA RESULT:      -5.6      1.697      2.111
REMARK  0 active torsions:
REMARK  status: ('A' for Active; 'I' for Inactive)
ROOT
ATOM      1  N   UNL d   1     -47.869  13.424  22.958  0.00  0.00    -0.183 NA
ATOM      2  C   UNL d   1     -47.380  14.089  22.923  0.00  0.00     0.339 A 
ATOM      3  N   UNL d   1     -48.448  14.833  22.345  0.00  0.00    -0.201 NA
ATOM      4  C   UNL d   1     -47.666  14.788  22.619  0.00  0.00     0.337 A 
ATOM      5  C   UNL d   1     -48.646  13.466  22.687  0.00  0.00     0.184 A 
ATOM      6  C   UNL d   1     -48.933  14.165  22.382  0.00  0.00     0.121 A 
ATOM      7  N   UNL d   1     -49.135  12.802  22.722  0.00  0.00    -0.223 NA
ATOM      8  C   UNL d   1     -49.713  14.211  22.108  0.00  0.00     0.031 A 
ATOM      9  O   UNL d   1     -46.596  14.050  23.196  0.00  0.00    -0.260 OA
ATOM     10  O   UNL d   1     -47.174  15.460  22.582  0.00  0.00    -0.260 OA
ATOM     11  C   UNL d   1     -50.200  13.542  22.146  0.00  0.00     0.055 A 
ATOM     12  C   UNL d   1     -49.914  12.843  22.450  0.00  0.00     0.107 A 
ATOM     13 BR   UNL d   1     -50.978  13.577  21.876  0.00  0.00    -0.048 Br
ENDROOT
TORSDOF 0
ENDMDL
MODEL 8
REMARK VINA RESULT:      -5.5      2.744      3.334
REMARK  0 active torsions:
REMARK  status: ('A' for Active; 'I' for Inactive)
ROOT
ATOM      1  N   UNL d   1     -49.452  13.169  21.936  0.00  0.00    -0.183 NA
ATOM      2  C   UNL d   1     -49.608  12.418  22.242  0.00  0.00     0.339 A 
ATOM      3  N   UNL d   1     -50.109  13.017  23.433  0.00  0.00    -0.201 NA
ATOM      4  C   UNL d   1     -49.934  12.342  22.984  0.00  0.00     0.337 A 
ATOM      5  C   UNL d   1     -49.624  13.842  22.379  0.00  0.00     0.184 A 
ATOM      6  C   UNL d   1     -49.950  13.766  23.122  0.00  0.00     0.121 A 
ATOM      7  N   UNL d   1     -49.468  14.593  22.073  0.00  0.00    -0.223 NA
ATOM      8  C   UNL d   1     -50.125  14.440  23.571  0.00  0.00     0.031 A 
ATOM      9  O   UNL d   1     -49.436  11.737  21.797  0.00  0.00    -0.260 OA
ATOM     10  O   UNL d   1     -50.092  11.585  23.295  0.00  0.00    -0.260 OA
ATOM     11  C   UNL d   1     -49.966  15.192  23.259  0.00  0.00     0.055 A 
ATOM     12  C   UNL d   1     -49.641  15.267  22.517  0.00  0.00     0.107 A 
ATOM     13 BR   UNL d   1     -50.136  15.869  23.698  0.00  0.00    -0.048 Br
ENDROOT
TORSDOF 0
ENDMDL
MODEL 9
REMARK VINA RESULT:      -5.4      2.106      2.512
REMARK  0 active torsions:
REMARK  status: ('A' for Active; 'I' for Inactive)
ROOT
ATOM      1  N   UNL d   1     -49.601  12.035  22.022  0.00  0.00    -0.183 NA
ATOM      2  C   UNL d   1     -48.862  11.871  22.354  0.00  0.00     0.339 A 
ATOM      3  N   UNL d   1     -48.852  13.167  22.946  0.00  0.00    -0.201 NA
ATOM      4  C   UNL d   1     -48.490  12.433  22.812  0.00  0.00     0.337 A 
ATOM      5  C   UNL d   1     -49.962  12.764  22.153  0.00  0.00     0.184 A 
ATOM      6  C   UNL d   1     -49.591  13.325  22.611  0.00  0.00     0.121 A 
ATOM      7  N   UNL d   1     -50.700  12.927  21.821  0.00  0.00    -0.223 NA
ATOM      8  C   UNL d   1     -49.951  14.059  22.745  0.00  0.00     0.031 A 
ATOM      9  O   UNL d   1     -48.494  11.138  22.225  0.00  0.00    -0.260 OA
ATOM     10  O   UNL d   1     -47.745  12.270  23.148  0.00  0.00    -0.260 OA
ATOM     11  C   UNL d   1     -50.692  14.218  22.409  0.00  0.00     0.055 A 
ATOM     12  C   UNL d   1     -51.063  13.657  21.951  0.00  0.00     0.107 A 
ATOM     13 BR   UNL d   1     -51.060  14.945  22.536  0.00  0.00    -0.048 Br
ENDROOT
TORSDOF 0
ENDMDL
