MODEL 1
REMARK VINA RESULT:      39.1      0.000      0.000
REMARK  4 active torsions:
REMARK  status: ('A' for Active; 'I' for Inactive)
REMARK    1  A    between atoms: N_4  and  C_2 
REMARK       I    between atoms: C_3  and  N_4 
REMARK    2  A    between atoms: C_10  and  C_3 
REMARK    3  A    between atoms: C_12  and  N_4 
REMARK    4  A    between atoms: O_18  and  C_15 
ROOT
ATOM      1  C   UNL d   1      46.125 -17.056  44.188  0.00  0.00     0.265 C 
ATOM      2  N   UNL d   1      46.181 -18.052  43.434  0.00  0.00    -0.274 N 
ATOM      3  O   UNL d   1      46.253 -17.250  44.953  0.00  0.00    -0.267 OA
ENDROOT
BRANCH   2   4
ATOM      4  C   UNL d   1      46.062 -17.909  42.671  0.00  0.00     0.079 A 
ATOM      5  C   UNL d   1      45.414 -18.086  42.262  0.00  0.00     0.116 A 
ATOM      6  S   UNL d   1      45.522 -17.850  41.525  0.00  0.00     0.213 S 
ATOM      7  C   UNL d   1      46.237 -17.529  41.480  0.00  0.00     0.100 A 
ATOM      8  O   UNL d   1      45.631 -17.615  40.786  0.00  0.00    -0.217 OA
ATOM      9  O   UNL d   1      44.810 -18.161  41.534  0.00  0.00    -0.217 OA
ATOM     10  C   UNL d   1      46.567 -17.565  42.184  0.00  0.00     0.030 A 
ENDBRANCH   2   4
BRANCH   2  11
ATOM     11  C   UNL d   1      46.334 -18.808  43.721  0.00  0.00     0.067 A 
ATOM     12  C   UNL d   1      46.478 -19.415  43.194  0.00  0.00     0.018 A 
ATOM     13  C   UNL d   1      46.634 -20.186  43.483  0.00  0.00     0.002 A 
ATOM     14  C   UNL d   1      46.642 -20.330  44.295  0.00  0.00     0.000 A 
ATOM     15  C   UNL d   1      46.496 -19.715  44.825  0.00  0.00     0.002 A 
ATOM     16  C   UNL d   1      46.342 -18.954  44.549  0.00  0.00     0.018 A 
ENDBRANCH   2  11
BRANCH   1  17
ATOM     17  C   UNL d   1      45.973 -16.289  43.922  0.00  0.00     0.057 A 
ATOM     18  C   UNL d   1      45.237 -15.923  44.076  0.00  0.00     0.007 A 
ATOM     19  C   UNL d   1      45.096 -15.157  43.806  0.00  0.00     0.024 A 
ATOM     20  C   UNL d   1      45.678 -14.745  43.384  0.00  0.00     0.094 A 
ATOM     21  C   UNL d   1      46.407 -15.098  43.229  0.00  0.00     0.024 A 
ATOM     22  C   UNL d   1      46.565 -15.877  43.497  0.00  0.00     0.007 A 
BRANCH  20  23
ATOM     23  O   UNL d   1      45.526 -13.969  43.115  0.00  0.00    -0.328 OA
ATOM     24  C   UNL d   1      45.134 -13.418  43.608  0.00  0.00     0.181 C 
ENDBRANCH  20  23
ENDBRANCH   1  17
TORSDOF 4
ENDMDL
