MODEL 1
REMARK VINA RESULT:      52.3      0.000      0.000
REMARK  5 active torsions:
REMARK  status: ('A' for Active; 'I' for Inactive)
REMARK    1  A    between atoms: C_13  and  C_4 
REMARK    2  A    between atoms: S_11  and  C_5 
REMARK    3  A    between atoms: C_10  and  C_12 
REMARK    4  A    between atoms: C_15  and  S_11 
REMARK    5  A    between atoms: C_12  and  C_15 
ROOT
ATOM      1  N   UNL d   1      45.924 -16.348  43.830  0.00  0.00    -0.206 N 
ATOM      2  C   UNL d   1      45.430 -15.704  43.662  0.00  0.00     0.166 A 
ATOM      3  N   UNL d   1      46.639 -15.564  44.739  0.00  0.00    -0.163 NA
ATOM      4  C   UNL d   1      45.543 -14.993  44.034  0.00  0.00     0.055 A 
ATOM      5  C   UNL d   1      45.792 -17.062  43.441  0.00  0.00     0.116 A 
ATOM      6  C   UNL d   1      46.148 -14.923  44.573  0.00  0.00     0.104 A 
ATOM      7  N   UNL d   1      44.817 -15.790  43.110  0.00  0.00    -0.227 NA
ATOM      8  C   UNL d   1      45.195 -17.148  42.903  0.00  0.00     0.045 A 
ATOM      9  C   UNL d   1      44.701 -16.504  42.735  0.00  0.00     0.085 A 
ATOM     10  C   UNL d   1      46.269 -14.210  44.951  0.00  0.00     0.023 C 
ATOM     11  C   UNL d   1      44.069 -16.586  42.169  0.00  0.00     0.021 C 
ENDROOT
BRANCH   5  12
ATOM     12  S   UNL d   1      46.299 -17.728  43.611  0.00  0.00    -0.064 SA
BRANCH  12  13
ATOM     13  C   UNL d   1      46.612 -18.511  43.626  0.00  0.00     0.079 C 
BRANCH  13  14
ATOM     14  C   UNL d   1      46.159 -19.160  43.348  0.00  0.00     0.208 C 
ATOM     15  O   UNL d   1      45.568 -19.501  43.842  0.00  0.00    -0.285 OA
BRANCH  14  16
ATOM     16  C   UNL d   1      46.298 -19.465  42.578  0.00  0.00     0.069 A 
ATOM     17  S   UNL d   1      46.593 -19.036  41.908  0.00  0.00    -0.083 SA
ATOM     18  C   UNL d   1      46.642 -19.575  41.252  0.00  0.00     0.035 A 
ATOM     19  C   UNL d   1      46.378 -20.329  41.514  0.00  0.00     0.008 A 
ATOM     20  C   UNL d   1      46.165 -20.265  42.331  0.00  0.00     0.010 A 
ENDBRANCH  14  16
ENDBRANCH  13  14
ENDBRANCH  12  13
ENDBRANCH   5  12
BRANCH   4  21
ATOM     21  C   UNL d   1      45.055 -14.356  43.869  0.00  0.00     0.004 A 
ATOM     22  C   UNL d   1      45.302 -13.793  43.318  0.00  0.00     0.001 A 
ATOM     23  C   UNL d   1      44.816 -13.159  43.153  0.00  0.00     0.011 A 
ATOM     24  C   UNL d   1      44.091 -13.098  43.542  0.00  0.00     0.058 A 
ATOM     25  C   UNL d   1      43.851 -13.643  44.075  0.00  0.00     0.011 A 
ATOM     26 CL   UNL d   1      43.581 -12.433  43.369  0.00  0.00    -0.082 Cl
ATOM     27  C   UNL d   1      44.344 -14.287  44.243  0.00  0.00     0.001 A 
ENDBRANCH   4  21
TORSDOF 5
ENDMDL
MODEL 2
REMARK VINA RESULT:      52.6      2.496      5.104
REMARK  5 active torsions:
REMARK  status: ('A' for Active; 'I' for Inactive)
REMARK    1  A    between atoms: C_13  and  C_4 
REMARK    2  A    between atoms: S_11  and  C_5 
REMARK    3  A    between atoms: C_10  and  C_12 
REMARK    4  A    between atoms: C_15  and  S_11 
REMARK    5  A    between atoms: C_12  and  C_15 
ROOT
ATOM      1  N   UNL d   1      46.328 -16.131  43.201  0.00  0.00    -0.206 N 
ATOM      2  C   UNL d   1      46.276 -16.929  42.985  0.00  0.00     0.166 A 
ATOM      3  N   UNL d   1      46.590 -15.787  41.872  0.00  0.00    -0.163 NA
ATOM      4  C   UNL d   1      46.381 -17.152  42.213  0.00  0.00     0.055 A 
ATOM      5  C   UNL d   1      46.218 -15.925  43.991  0.00  0.00     0.116 A 
ATOM      6  C   UNL d   1      46.538 -16.580  41.656  0.00  0.00     0.104 A 
ATOM      7  N   UNL d   1      46.116 -17.501  43.563  0.00  0.00    -0.227 NA
ATOM      8  C   UNL d   1      46.061 -16.481  44.556  0.00  0.00     0.045 A 
ATOM      9  C   UNL d   1      46.009 -17.279  44.340  0.00  0.00     0.085 A 
ATOM     10  C   UNL d   1      46.645 -16.797  40.877  0.00  0.00     0.023 C 
ATOM     11  C   UNL d   1      45.845 -17.872  44.930  0.00  0.00     0.021 C 
ENDROOT
BRANCH   5  12
ATOM     12  S   UNL d   1      46.270 -15.103  44.218  0.00  0.00    -0.064 SA
BRANCH  12  13
ATOM     13  C   UNL d   1      46.053 -14.312  44.412  0.00  0.00     0.079 C 
BRANCH  13  14
ATOM     14  C   UNL d   1      45.257 -14.056  44.341  0.00  0.00     0.208 C 
ATOM     15  O   UNL d   1      44.644 -14.480  44.734  0.00  0.00    -0.285 OA
BRANCH  14  16
ATOM     16  C   UNL d   1      45.077 -13.378  43.880  0.00  0.00     0.069 A 
ATOM     17  S   UNL d   1      44.304 -13.074  43.705  0.00  0.00    -0.083 SA
ATOM     18  C   UNL d   1      44.397 -12.382  43.220  0.00  0.00     0.035 A 
ATOM     19  C   UNL d   1      45.220 -12.259  43.097  0.00  0.00     0.008 A 
ATOM     20  C   UNL d   1      45.642 -12.872  43.502  0.00  0.00     0.010 A 
ENDBRANCH  14  16
ENDBRANCH  13  14
ENDBRANCH  12  13
ENDBRANCH   5  12
BRANCH   4  21
ATOM     21  C   UNL d   1      46.330 -17.942  41.998  0.00  0.00     0.004 A 
ATOM     22  C   UNL d   1      46.449 -18.152  41.209  0.00  0.00     0.001 A 
ATOM     23  C   UNL d   1      46.398 -18.938  40.996  0.00  0.00     0.011 A 
ATOM     24  C   UNL d   1      46.229 -19.500  41.575  0.00  0.00     0.058 A 
ATOM     25  C   UNL d   1      46.115 -19.298  42.340  0.00  0.00     0.011 A 
ATOM     26 CL   UNL d   1      46.176 -20.324  41.352  0.00  0.00    -0.082 Cl
ATOM     27  C   UNL d   1      46.166 -18.499  42.557  0.00  0.00     0.001 A 
ENDBRANCH   4  21
TORSDOF 5
ENDMDL
MODEL 3
REMARK VINA RESULT:      53.3      3.662      5.639
REMARK  5 active torsions:
REMARK  status: ('A' for Active; 'I' for Inactive)
REMARK    1  A    between atoms: C_13  and  C_4 
REMARK    2  A    between atoms: S_11  and  C_5 
REMARK    3  A    between atoms: C_10  and  C_12 
REMARK    4  A    between atoms: C_15  and  S_11 
REMARK    5  A    between atoms: C_12  and  C_15 
ROOT
ATOM      1  N   UNL d   1      45.591 -18.204  40.409  0.00  0.00    -0.206 N 
ATOM      2  C   UNL d   1      45.655 -18.443  41.200  0.00  0.00     0.166 A 
ATOM      3  N   UNL d   1      46.229 -19.379  40.001  0.00  0.00    -0.163 NA
ATOM      4  C   UNL d   1      46.006 -19.150  41.387  0.00  0.00     0.055 A 
ATOM      5  C   UNL d   1      45.232 -17.483  40.241  0.00  0.00     0.116 A 
ATOM      6  C   UNL d   1      46.293 -19.617  40.787  0.00  0.00     0.104 A 
ATOM      7  N   UNL d   1      45.358 -17.956  41.802  0.00  0.00    -0.227 NA
ATOM      8  C   UNL d   1      44.941 -17.006  40.825  0.00  0.00     0.045 A 
ATOM      9  C   UNL d   1      45.005 -17.245  41.616  0.00  0.00     0.085 A 
ATOM     10  C   UNL d   1      46.647 -20.330  40.968  0.00  0.00     0.023 C 
ATOM     11  C   UNL d   1      44.702 -16.749  42.239  0.00  0.00     0.021 C 
ENDROOT
BRANCH   5  12
ATOM     12  S   UNL d   1      45.164 -17.232  39.427  0.00  0.00    -0.064 SA
BRANCH  12  13
ATOM     13  C   UNL d   1      44.864 -17.124  38.646  0.00  0.00     0.079 C 
BRANCH  13  14
ATOM     14  C   UNL d   1      45.211 -16.563  38.127  0.00  0.00     0.208 C 
ATOM     15  O   UNL d   1      46.030 -16.378  38.197  0.00  0.00    -0.285 OA
BRANCH  14  16
ATOM     16  C   UNL d   1      44.740 -16.190  37.540  0.00  0.00     0.069 A 
ATOM     17  S   UNL d   1      43.924 -16.350  37.368  0.00  0.00    -0.083 SA
ATOM     18  C   UNL d   1      43.685 -15.839  36.733  0.00  0.00     0.035 A 
ATOM     19  C   UNL d   1      44.346 -15.367  36.515  0.00  0.00     0.008 A 
ATOM     20  C   UNL d   1      44.998 -15.582  37.011  0.00  0.00     0.010 A 
ENDBRANCH  14  16
ENDBRANCH  13  14
ENDBRANCH  12  13
ENDBRANCH   5  12
BRANCH   4  21
ATOM     21  C   UNL d   1      46.069 -19.387  42.170  0.00  0.00     0.004 A 
ATOM     22  C   UNL d   1      45.613 -20.021  42.435  0.00  0.00     0.001 A 
ATOM     23  C   UNL d   1      45.676 -20.257  43.213  0.00  0.00     0.011 A 
ATOM     24  C   UNL d   1      46.195 -19.855  43.713  0.00  0.00     0.058 A 
ATOM     25  C   UNL d   1      46.638 -19.241  43.457  0.00  0.00     0.011 A 
ATOM     26 CL   UNL d   1      46.261 -20.103  44.529  0.00  0.00    -0.082 Cl
ATOM     27  C   UNL d   1      46.573 -19.001  42.666  0.00  0.00     0.001 A 
ENDBRANCH   4  21
TORSDOF 5
ENDMDL
