MODEL 1
REMARK VINA RESULT:      49.5      0.000      0.000
REMARK  3 active torsions:
REMARK  status: ('A' for Active; 'I' for Inactive)
REMARK    1  A    between atoms: N_7  and  C_6 
REMARK       I    between atoms: C_8  and  N_7 
REMARK    2  A    between atoms: C_12  and  C_8 
REMARK    3  A    between atoms: C_16  and  C_12 
ROOT
ATOM      1  C   UNL d   1      58.131  49.679  51.508  0.00  0.00     0.269 A 
ATOM      2  N   UNL d   1      57.328  49.661  51.735  0.00  0.00    -0.239 N 
ATOM      3  C   UNL d   1      58.145  49.675  50.682  0.00  0.00     0.079 A 
ATOM      4  C   UNL d   1      56.874  49.646  51.065  0.00  0.00     0.267 A 
ATOM      5  C   UNL d   1      57.367  49.655  50.407  0.00  0.00     0.063 A 
ATOM      6  C   UNL d   1      58.771  49.687  50.150  0.00  0.00     0.089 A 
ATOM      7  O   UNL d   1      58.786  49.697  52.006  0.00  0.00    -0.267 OA
ATOM      8  O   UNL d   1      56.035  49.626  51.045  0.00  0.00    -0.267 OA
ATOM      9  C   UNL d   1      57.048  49.658  52.511  0.00  0.00     0.105 C 
ATOM     10  C   UNL d   1      57.215  49.647  49.601  0.00  0.00     0.005 A 
ATOM     11  C   UNL d   1      58.619  49.679  49.338  0.00  0.00     0.019 A 
ATOM     12  C   UNL d   1      57.841  49.659  49.064  0.00  0.00     0.002 A 
ENDROOT
BRANCH   6  13
ATOM     13  N   UNL d   1      59.548  49.707  50.424  0.00  0.00    -0.208 NA
ATOM     14  C   UNL d   1      60.168  49.552  49.905  0.00  0.00     0.279 C 
ATOM     15  O   UNL d   1      60.019  49.378  49.114  0.00  0.00    -0.265 OA
BRANCH  14  16
ATOM     16  C   UNL d   1      60.946  49.572  50.179  0.00  0.00     0.062 C 
BRANCH  16  17
ATOM     17  C   UNL d   1      61.140  49.212  50.896  0.00  0.00     0.005 A 
ATOM     18  C   UNL d   1      60.956  49.585  51.608  0.00  0.00     0.000 A 
ATOM     19  C   UNL d   1      61.144  49.235  52.319  0.00  0.00     0.000 A 
ATOM     20  C   UNL d   1      61.523  48.498  52.325  0.00  0.00     0.000 A 
ATOM     21  C   UNL d   1      61.707  48.124  51.613  0.00  0.00     0.000 A 
ATOM     22  C   UNL d   1      61.513  48.485  50.897  0.00  0.00     0.000 A 
ENDBRANCH  16  17
ENDBRANCH  14  16
ENDBRANCH   6  13
TORSDOF 3
ENDMDL
MODEL 2
REMARK VINA RESULT:      50.1      1.022      1.961
REMARK  3 active torsions:
REMARK  status: ('A' for Active; 'I' for Inactive)
REMARK    1  A    between atoms: N_7  and  C_6 
REMARK       I    between atoms: C_8  and  N_7 
REMARK    2  A    between atoms: C_12  and  C_8 
REMARK    3  A    between atoms: C_16  and  C_12 
ROOT
ATOM      1  C   UNL d   1      58.113  49.695  49.801  0.00  0.00     0.269 A 
ATOM      2  N   UNL d   1      57.299  49.698  49.612  0.00  0.00    -0.239 N 
ATOM      3  C   UNL d   1      58.165  49.699  50.626  0.00  0.00     0.079 A 
ATOM      4  C   UNL d   1      56.877  49.703  50.302  0.00  0.00     0.267 A 
ATOM      5  C   UNL d   1      57.400  49.703  50.936  0.00  0.00     0.063 A 
ATOM      6  C   UNL d   1      58.814  49.698  51.129  0.00  0.00     0.089 A 
ATOM      7  O   UNL d   1      58.744  49.690  49.274  0.00  0.00    -0.267 OA
ATOM      8  O   UNL d   1      56.039  49.707  50.360  0.00  0.00    -0.267 OA
ATOM      9  C   UNL d   1      56.985  49.696  48.849  0.00  0.00     0.105 C 
ATOM     10  C   UNL d   1      57.285  49.708  51.749  0.00  0.00     0.005 A 
ATOM     11  C   UNL d   1      58.700  49.702  51.947  0.00  0.00     0.019 A 
ATOM     12  C   UNL d   1      57.935  49.707  52.257  0.00  0.00     0.002 A 
ENDROOT
BRANCH   6  13
ATOM     13  N   UNL d   1      59.579  49.693  50.819  0.00  0.00    -0.208 NA
ATOM     14  C   UNL d   1      60.133  49.159  51.110  0.00  0.00     0.279 C 
ATOM     15  O   UNL d   1      59.932  48.630  51.708  0.00  0.00    -0.265 OA
BRANCH  14  16
ATOM     16  C   UNL d   1      60.898  49.154  50.801  0.00  0.00     0.062 C 
BRANCH  16  17
ATOM     17  C   UNL d   1      61.258  48.438  50.603  0.00  0.00     0.005 A 
ATOM     18  C   UNL d   1      61.315  47.837  51.164  0.00  0.00     0.000 A 
ATOM     19  C   UNL d   1      61.669  47.128  50.976  0.00  0.00     0.000 A 
ATOM     20  C   UNL d   1      61.973  47.011  50.213  0.00  0.00     0.000 A 
ATOM     21  C   UNL d   1      61.916  47.612  49.652  0.00  0.00     0.000 A 
ATOM     22  C   UNL d   1      61.556  48.328  49.849  0.00  0.00     0.000 A 
ENDBRANCH  16  17
ENDBRANCH  14  16
ENDBRANCH   6  13
TORSDOF 3
ENDMDL
