MODEL 1
REMARK VINA RESULT:      -8.9      0.000      0.000
REMARK  5 active torsions:
REMARK  status: ('A' for Active; 'I' for Inactive)
REMARK    1  A    between atoms: C_3  and  C_1 
REMARK    2  A    between atoms: C_7  and  C_2 
REMARK       I    between atoms: N_5  and  C_3 
REMARK    3  A    between atoms: C_6  and  N_5 
REMARK    4  A    between atoms: N_10  and  C_6 
REMARK    5  A    between atoms: C_11  and  N_10 
ROOT
ATOM      1  C   UNL d   1      53.307  33.975  54.099  0.00  0.00     0.103 A 
ATOM      2  C   UNL d   1      52.644  34.436  53.926  0.00  0.00     0.116 A 
ATOM      3  N   UNL d   1      52.558  34.985  54.533  0.00  0.00    -0.126 NA
ATOM      4  O   UNL d   1      53.165  34.865  55.080  0.00  0.00    -0.211 OA
ATOM      5  C   UNL d   1      53.616  34.247  54.806  0.00  0.00     0.131 A 
ATOM      6  C   UNL d   1      54.278  33.944  55.181  0.00  0.00     0.029 C 
ENDROOT
BRANCH   1   7
ATOM      7  C   UNL d   1      53.586  33.364  53.635  0.00  0.00     0.285 C 
ATOM      8  N   UNL d   1      53.488  32.581  53.848  0.00  0.00    -0.179 NA
ATOM      9  O   UNL d   1      53.977  33.542  52.929  0.00  0.00    -0.265 OA
BRANCH   8  10
ATOM     10  C   UNL d   1      53.766  31.970  53.383  0.00  0.00     0.224 C 
ATOM     11  S   UNL d   1      54.582  31.880  53.283  0.00  0.00    -0.037 SA
BRANCH  10  12
ATOM     12  N   UNL d   1      53.253  31.445  53.015  0.00  0.00    -0.215 NA
BRANCH  12  13
ATOM     13  C   UNL d   1      53.132  30.716  53.337  0.00  0.00     0.111 A 
ATOM     14  C   UNL d   1      52.386  30.365  53.296  0.00  0.00     0.158 A 
ATOM     15  F   UNL d   1      51.765  30.762  52.926  0.00  0.00    -0.203 F 
ATOM     16  C   UNL d   1      52.262  29.617  53.626  0.00  0.00     0.031 A 
ATOM     17  C   UNL d   1      52.879  29.221  53.995  0.00  0.00     0.002 A 
ATOM     18  C   UNL d   1      53.628  29.571  54.037  0.00  0.00     0.002 A 
ATOM     19  C   UNL d   1      53.753  30.319  53.707  0.00  0.00     0.021 A 
ENDBRANCH  12  13
ENDBRANCH  10  12
ENDBRANCH   8  10
ENDBRANCH   1   7
BRANCH   2  20
ATOM     20  C   UNL d   1      52.158  34.361  53.268  0.00  0.00     0.031 A 
ATOM     21  C   UNL d   1      51.384  34.104  53.356  0.00  0.00     0.059 A 
ATOM     22 CL   UNL d   1      51.096  33.923  54.102  0.00  0.00    -0.082 Cl
ATOM     23  C   UNL d   1      50.905  34.031  52.699  0.00  0.00     0.011 A 
ATOM     24  C   UNL d   1      51.193  34.214  51.945  0.00  0.00     0.001 A 
ATOM     25  C   UNL d   1      51.970  34.471  51.865  0.00  0.00     0.000 A 
ATOM     26  C   UNL d   1      52.464  34.548  52.523  0.00  0.00     0.002 A 
ENDBRANCH   2  20
TORSDOF 5
ENDMDL
MODEL 2
REMARK VINA RESULT:      -7.8      1.834      4.028
REMARK  5 active torsions:
REMARK  status: ('A' for Active; 'I' for Inactive)
REMARK    1  A    between atoms: C_3  and  C_1 
REMARK    2  A    between atoms: C_7  and  C_2 
REMARK       I    between atoms: N_5  and  C_3 
REMARK    3  A    between atoms: C_6  and  N_5 
REMARK    4  A    between atoms: N_10  and  C_6 
REMARK    5  A    between atoms: C_11  and  N_10 
ROOT
ATOM      1  C   UNL d   1      53.299  32.251  53.441  0.00  0.00     0.103 A 
ATOM      2  C   UNL d   1      53.909  32.125  53.984  0.00  0.00     0.116 A 
ATOM      3  N   UNL d   1      53.975  31.314  54.099  0.00  0.00    -0.126 NA
ATOM      4  O   UNL d   1      53.409  30.938  53.631  0.00  0.00    -0.211 OA
ATOM      5  C   UNL d   1      53.002  31.518  53.233  0.00  0.00     0.131 A 
ATOM      6  C   UNL d   1      52.389  31.388  52.705  0.00  0.00     0.029 C 
ENDROOT
BRANCH   1   7
ATOM      7  C   UNL d   1      53.054  32.984  53.174  0.00  0.00     0.285 C 
ATOM      8  N   UNL d   1      52.308  33.274  53.337  0.00  0.00    -0.179 NA
ATOM      9  O   UNL d   1      53.576  33.444  52.728  0.00  0.00    -0.265 OA
BRANCH   8  10
ATOM     10  C   UNL d   1      52.063  34.006  53.070  0.00  0.00     0.224 C 
ATOM     11  S   UNL d   1      52.199  34.672  53.542  0.00  0.00    -0.037 SA
BRANCH  10  12
ATOM     12  N   UNL d   1      51.685  34.093  52.346  0.00  0.00    -0.215 NA
BRANCH  12  13
ATOM     13  C   UNL d   1      50.901  34.278  52.326  0.00  0.00     0.111 A 
ATOM     14  C   UNL d   1      50.505  34.319  51.604  0.00  0.00     0.158 A 
ATOM     15  F   UNL d   1      50.912  34.171  50.902  0.00  0.00    -0.203 F 
ATOM     16  C   UNL d   1      49.700  34.509  51.583  0.00  0.00     0.031 A 
ATOM     17  C   UNL d   1      49.293  34.657  52.281  0.00  0.00     0.002 A 
ATOM     18  C   UNL d   1      49.689  34.616  53.007  0.00  0.00     0.002 A 
ATOM     19  C   UNL d   1      50.494  34.426  53.028  0.00  0.00     0.021 A 
ENDBRANCH  12  13
ENDBRANCH  10  12
ENDBRANCH   8  10
ENDBRANCH   1   7
BRANCH   2  20
ATOM     20  C   UNL d   1      54.367  32.706  54.344  0.00  0.00     0.031 A 
ATOM     21  C   UNL d   1      54.310  32.830  55.152  0.00  0.00     0.059 A 
ATOM     22 CL   UNL d   1      53.796  32.375  55.601  0.00  0.00    -0.082 Cl
ATOM     23  C   UNL d   1      54.767  33.407  55.505  0.00  0.00     0.011 A 
ATOM     24  C   UNL d   1      55.286  33.868  55.054  0.00  0.00     0.001 A 
ATOM     25  C   UNL d   1      55.337  33.737  54.244  0.00  0.00     0.000 A 
ATOM     26  C   UNL d   1      54.879  33.155  53.876  0.00  0.00     0.002 A 
ENDBRANCH   2  20
TORSDOF 5
ENDMDL
MODEL 3
REMARK VINA RESULT:      -7.2      1.180      2.329
REMARK  5 active torsions:
REMARK  status: ('A' for Active; 'I' for Inactive)
REMARK    1  A    between atoms: C_3  and  C_1 
REMARK    2  A    between atoms: C_7  and  C_2 
REMARK       I    between atoms: N_5  and  C_3 
REMARK    3  A    between atoms: C_6  and  N_5 
REMARK    4  A    between atoms: N_10  and  C_6 
REMARK    5  A    between atoms: C_11  and  N_10 
ROOT
ATOM      1  C   UNL d   1      52.779  33.771  53.382  0.00  0.00     0.103 A 
ATOM      2  C   UNL d   1      53.168  34.238  53.942  0.00  0.00     0.116 A 
ATOM      3  N   UNL d   1      52.730  34.928  54.037  0.00  0.00    -0.126 NA
ATOM      4  O   UNL d   1      52.073  34.890  53.539  0.00  0.00    -0.211 OA
ATOM      5  C   UNL d   1      52.112  34.181  53.144  0.00  0.00     0.131 A 
ATOM      6  C   UNL d   1      51.568  33.917  52.591  0.00  0.00     0.029 C 
ENDROOT
BRANCH   1   7
ATOM      7  C   UNL d   1      53.033  33.038  53.128  0.00  0.00     0.285 C 
ATOM      8  N   UNL d   1      52.693  32.346  53.399  0.00  0.00    -0.179 NA
ATOM      9  O   UNL d   1      53.652  32.994  52.581  0.00  0.00    -0.265 OA
BRANCH   8  10
ATOM     10  C   UNL d   1      52.946  31.612  53.145  0.00  0.00     0.224 C 
ATOM     11  S   UNL d   1      52.664  31.316  52.426  0.00  0.00    -0.037 SA
BRANCH  10  12
ATOM     12  N   UNL d   1      53.473  31.166  53.588  0.00  0.00    -0.215 NA
BRANCH  12  13
ATOM     13  C   UNL d   1      53.275  30.415  53.803  0.00  0.00     0.111 A 
ATOM     14  C   UNL d   1      53.401  30.161  54.578  0.00  0.00     0.158 A 
ATOM     15  F   UNL d   1      53.731  30.676  55.131  0.00  0.00    -0.203 F 
ATOM     16  C   UNL d   1      53.198  29.390  54.799  0.00  0.00     0.031 A 
ATOM     17  C   UNL d   1      52.869  28.876  54.250  0.00  0.00     0.002 A 
ATOM     18  C   UNL d   1      52.742  29.129  53.471  0.00  0.00     0.002 A 
ATOM     19  C   UNL d   1      52.945  29.899  53.250  0.00  0.00     0.021 A 
ENDBRANCH  12  13
ENDBRANCH  10  12
ENDBRANCH   8  10
ENDBRANCH   1   7
BRANCH   2  20
ATOM     20  C   UNL d   1      53.865  34.048  54.334  0.00  0.00     0.031 A 
ATOM     21  C   UNL d   1      53.868  33.964  55.150  0.00  0.00     0.059 A 
ATOM     22 CL   UNL d   1      53.173  34.069  55.574  0.00  0.00    -0.082 Cl
ATOM     23  C   UNL d   1      54.562  33.775  55.534  0.00  0.00     0.011 A 
ATOM     24  C   UNL d   1      55.264  33.668  55.108  0.00  0.00     0.001 A 
ATOM     25  C   UNL d   1      55.253  33.755  54.291  0.00  0.00     0.000 A 
ATOM     26  C   UNL d   1      54.555  33.946  53.891  0.00  0.00     0.002 A 
ENDBRANCH   2  20
TORSDOF 5
ENDMDL
MODEL 4
REMARK VINA RESULT:      -6.4      1.733      3.729
REMARK  5 active torsions:
REMARK  status: ('A' for Active; 'I' for Inactive)
REMARK    1  A    between atoms: C_3  and  C_1 
REMARK    2  A    between atoms: C_7  and  C_2 
REMARK       I    between atoms: N_5  and  C_3 
REMARK    3  A    between atoms: C_6  and  N_5 
REMARK    4  A    between atoms: N_10  and  C_6 
REMARK    5  A    between atoms: C_11  and  N_10 
ROOT
ATOM      1  C   UNL d   1      53.607  32.969  54.327  0.00  0.00     0.103 A 
ATOM      2  C   UNL d   1      53.627  32.146  54.399  0.00  0.00     0.116 A 
ATOM      3  N   UNL d   1      53.968  31.969  55.126  0.00  0.00    -0.126 NA
ATOM      4  O   UNL d   1      54.159  32.677  55.503  0.00  0.00    -0.211 OA
ATOM      5  C   UNL d   1      53.935  33.281  55.008  0.00  0.00     0.131 A 
ATOM      6  C   UNL d   1      54.024  34.080  55.167  0.00  0.00     0.029 C 
ENDROOT
BRANCH   1   7
ATOM      7  C   UNL d   1      53.310  33.375  53.683  0.00  0.00     0.285 C 
ATOM      8  N   UNL d   1      52.587  33.755  53.710  0.00  0.00    -0.179 NA
ATOM      9  O   UNL d   1      53.753  33.401  52.985  0.00  0.00    -0.265 OA
BRANCH   8  10
ATOM     10  C   UNL d   1      52.290  34.161  53.067  0.00  0.00     0.224 C 
ATOM     11  S   UNL d   1      52.595  34.909  52.887  0.00  0.00    -0.037 SA
BRANCH  10  12
ATOM     12  N   UNL d   1      51.697  33.842  52.597  0.00  0.00    -0.215 NA
BRANCH  12  13
ATOM     13  C   UNL d   1      50.963  34.175  52.604  0.00  0.00     0.111 A 
ATOM     14  C   UNL d   1      50.524  34.222  51.907  0.00  0.00     0.158 A 
ATOM     15  F   UNL d   1      50.838  33.928  51.203  0.00  0.00    -0.203 F 
ATOM     16  C   UNL d   1      49.771  34.564  51.914  0.00  0.00     0.031 A 
ATOM     17  C   UNL d   1      49.457  34.857  52.614  0.00  0.00     0.002 A 
ATOM     18  C   UNL d   1      49.895  34.810  53.315  0.00  0.00     0.002 A 
ATOM     19  C   UNL d   1      50.649  34.469  53.308  0.00  0.00     0.021 A 
ENDBRANCH  12  13
ENDBRANCH  10  12
ENDBRANCH   8  10
ENDBRANCH   1   7
BRANCH   2  20
ATOM     20  C   UNL d   1      53.356  31.603  53.845  0.00  0.00     0.031 A 
ATOM     21  C   UNL d   1      53.886  31.224  53.347  0.00  0.00     0.059 A 
ATOM     22 CL   UNL d   1      54.688  31.388  53.404  0.00  0.00    -0.082 Cl
ATOM     23  C   UNL d   1      53.612  30.685  52.799  0.00  0.00     0.011 A 
ATOM     24  C   UNL d   1      52.803  30.518  52.740  0.00  0.00     0.001 A 
ATOM     25  C   UNL d   1      52.278  30.903  53.243  0.00  0.00     0.000 A 
ATOM     26  C   UNL d   1      52.544  31.450  53.802  0.00  0.00     0.002 A 
ENDBRANCH   2  20
TORSDOF 5
ENDMDL
