MODEL 1
REMARK VINA RESULT:      -8.4      0.000      0.000
REMARK  6 active torsions:
REMARK  status: ('A' for Active; 'I' for Inactive)
REMARK    1  A    between atoms: C_11  and  S_1 
REMARK    2  A    between atoms: C_2  and  C_5 
REMARK       I    between atoms: N_3  and  C_2 
REMARK    3  A    between atoms: C_12  and  N_3 
REMARK    4  A    between atoms: N_4  and  C_5 
REMARK       I    between atoms: C_6  and  N_4 
REMARK    5  A    between atoms: C_5  and  C_7 
REMARK    6  A    between atoms: C_7  and  C_11 
ROOT
ATOM      1  C   UNL d   1      53.755  33.020  53.925  0.00  0.00     0.143 C 
ENDROOT
BRANCH   1   2
ATOM      2  C   UNL d   1      53.729  32.229  53.679  0.00  0.00     0.297 C 
ATOM      3  N   UNL d   1      53.147  31.725  53.971  0.00  0.00    -0.207 NA
ATOM      4  O   UNL d   1      54.288  31.943  53.140  0.00  0.00    -0.264 OA
BRANCH   3   5
ATOM      5  C   UNL d   1      53.127  30.926  53.717  0.00  0.00     0.085 A 
ATOM      6  C   UNL d   1      53.294  30.346  54.285  0.00  0.00     0.019 A 
ATOM      7  C   UNL d   1      53.276  29.543  54.036  0.00  0.00     0.002 A 
ATOM      8  C   UNL d   1      53.443  28.940  54.599  0.00  0.00     0.000 C 
ATOM      9  C   UNL d   1      53.100  29.349  53.269  0.00  0.00     0.000 A 
ATOM     10  C   UNL d   1      52.938  29.952  52.726  0.00  0.00     0.002 A 
ATOM     11  C   UNL d   1      52.954  30.743  52.959  0.00  0.00     0.019 A 
ENDBRANCH   3   5
ENDBRANCH   1   2
BRANCH   1  12
ATOM     12  N   UNL d   1      54.469  33.348  54.173  0.00  0.00    -0.203 NA
ATOM     13  C   UNL d   1      54.631  33.418  54.976  0.00  0.00     0.280 C 
ATOM     14  O   UNL d   1      54.082  33.161  55.530  0.00  0.00    -0.265 OA
ATOM     15  C   UNL d   1      55.345  33.746  55.225  0.00  0.00     0.068 C 
ENDBRANCH   1  12
BRANCH   1  16
ATOM     16  C   UNL d   1      53.071  33.476  53.920  0.00  0.00     0.036 C 
BRANCH  16  17
ATOM     17  C   UNL d   1      52.955  34.034  53.328  0.00  0.00     0.096 C 
BRANCH  17  18
ATOM     18  S   UNL d   1      52.257  34.467  53.306  0.00  0.00     0.192 S 
ATOM     19  O   UNL d   1      51.681  35.060  53.200  0.00  0.00    -0.222 OA
ATOM     20  O   UNL d   1      52.831  34.985  53.006  0.00  0.00    -0.222 OA
ATOM     21  C   UNL d   1      51.555  34.126  53.566  0.00  0.00     0.145 C 
ENDBRANCH  17  18
ENDBRANCH  16  17
ENDBRANCH   1  16
TORSDOF 6
ENDMDL
MODEL 2
REMARK VINA RESULT:      -8.2      1.715      3.800
REMARK  6 active torsions:
REMARK  status: ('A' for Active; 'I' for Inactive)
REMARK    1  A    between atoms: C_11  and  S_1 
REMARK    2  A    between atoms: C_2  and  C_5 
REMARK       I    between atoms: N_3  and  C_2 
REMARK    3  A    between atoms: C_12  and  N_3 
REMARK    4  A    between atoms: N_4  and  C_5 
REMARK       I    between atoms: C_6  and  N_4 
REMARK    5  A    between atoms: C_5  and  C_7 
REMARK    6  A    between atoms: C_7  and  C_11 
ROOT
ATOM      1  C   UNL d   1      53.360  32.236  53.720  0.00  0.00     0.143 C 
ENDROOT
BRANCH   1   2
ATOM      2  C   UNL d   1      52.854  32.658  53.218  0.00  0.00     0.297 C 
ATOM      3  N   UNL d   1      52.322  33.202  53.530  0.00  0.00    -0.207 NA
ATOM      4  O   UNL d   1      52.882  32.534  52.399  0.00  0.00    -0.264 OA
BRANCH   3   5
ATOM      5  C   UNL d   1      51.813  33.625  53.016  0.00  0.00     0.085 A 
ATOM      6  C   UNL d   1      51.023  33.709  53.251  0.00  0.00     0.019 A 
ATOM      7  C   UNL d   1      50.508  34.132  52.739  0.00  0.00     0.002 A 
ATOM      8  C   UNL d   1      49.702  34.227  52.962  0.00  0.00     0.000 C 
ATOM      9  C   UNL d   1      50.780  34.446  52.042  0.00  0.00     0.000 A 
ATOM     10  C   UNL d   1      51.575  34.345  51.836  0.00  0.00     0.002 A 
ATOM     11  C   UNL d   1      52.088  33.931  52.331  0.00  0.00     0.019 A 
ENDBRANCH   3   5
ENDBRANCH   1   2
BRANCH   1  12
ATOM     12  N   UNL d   1      53.720  32.618  54.355  0.00  0.00    -0.203 NA
ATOM     13  C   UNL d   1      54.497  32.878  54.291  0.00  0.00     0.280 C 
ATOM     14  O   UNL d   1      54.915  32.756  53.594  0.00  0.00    -0.265 OA
ATOM     15  C   UNL d   1      54.857  33.260  54.926  0.00  0.00     0.068 C 
ENDBRANCH   1  12
BRANCH   1  16
ATOM     16  C   UNL d   1      53.503  31.437  53.585  0.00  0.00     0.036 C 
BRANCH  16  17
ATOM     17  C   UNL d   1      53.108  30.870  54.029  0.00  0.00     0.096 C 
BRANCH  17  18
ATOM     18  S   UNL d   1      53.171  30.076  53.826  0.00  0.00     0.192 S 
ATOM     19  O   UNL d   1      53.250  29.247  53.839  0.00  0.00    -0.222 OA
ATOM     20  O   UNL d   1      53.220  30.083  54.654  0.00  0.00    -0.222 OA
ATOM     21  C   UNL d   1      53.144  29.851  53.035  0.00  0.00     0.145 C 
ENDBRANCH  17  18
ENDBRANCH  16  17
ENDBRANCH   1  16
TORSDOF 6
ENDMDL
MODEL 3
REMARK VINA RESULT:      -8.2      1.013      2.243
REMARK  6 active torsions:
REMARK  status: ('A' for Active; 'I' for Inactive)
REMARK    1  A    between atoms: C_11  and  S_1 
REMARK    2  A    between atoms: C_2  and  C_5 
REMARK       I    between atoms: N_3  and  C_2 
REMARK    3  A    between atoms: C_12  and  N_3 
REMARK    4  A    between atoms: N_4  and  C_5 
REMARK       I    between atoms: C_6  and  N_4 
REMARK    5  A    between atoms: C_5  and  C_7 
REMARK    6  A    between atoms: C_7  and  C_11 
ROOT
ATOM      1  C   UNL d   1      53.280  33.172  53.805  0.00  0.00     0.143 C 
ENDROOT
BRANCH   1   2
ATOM      2  C   UNL d   1      53.323  32.389  53.536  0.00  0.00     0.297 C 
ATOM      3  N   UNL d   1      52.860  31.806  53.887  0.00  0.00    -0.207 NA
ATOM      4  O   UNL d   1      53.833  32.190  52.915  0.00  0.00    -0.264 OA
BRANCH   3   5
ATOM      5  C   UNL d   1      52.909  31.017  53.610  0.00  0.00     0.085 A 
ATOM      6  C   UNL d   1      53.163  30.442  54.150  0.00  0.00     0.019 A 
ATOM      7  C   UNL d   1      53.214  29.649  53.877  0.00  0.00     0.002 A 
ATOM      8  C   UNL d   1      53.471  29.052  54.413  0.00  0.00     0.000 C 
ATOM      9  C   UNL d   1      53.021  29.458  53.113  0.00  0.00     0.000 A 
ATOM     10  C   UNL d   1      52.771  30.055  52.598  0.00  0.00     0.002 A 
ATOM     11  C   UNL d   1      52.717  30.837  52.855  0.00  0.00     0.019 A 
ENDBRANCH   3   5
ENDBRANCH   1   2
BRANCH   1  12
ATOM     12  N   UNL d   1      52.558  33.569  53.797  0.00  0.00    -0.203 NA
ATOM     13  C   UNL d   1      52.403  34.128  53.215  0.00  0.00     0.280 C 
ATOM     14  O   UNL d   1      52.968  34.292  52.642  0.00  0.00    -0.265 OA
ATOM     15  C   UNL d   1      51.681  34.525  53.207  0.00  0.00     0.068 C 
ENDBRANCH   1  12
BRANCH   1  16
ATOM     16  C   UNL d   1      53.957  33.552  54.078  0.00  0.00     0.036 C 
BRANCH  16  17
ATOM     17  C   UNL d   1      54.114  33.578  54.884  0.00  0.00     0.096 C 
BRANCH  17  18
ATOM     18  S   UNL d   1      54.831  33.877  55.151  0.00  0.00     0.192 S 
ATOM     19  O   UNL d   1      55.433  34.255  55.585  0.00  0.00    -0.222 OA
ATOM     20  O   UNL d   1      54.280  34.122  55.721  0.00  0.00    -0.222 OA
ATOM     21  C   UNL d   1      55.518  33.741  54.719  0.00  0.00     0.145 C 
ENDBRANCH  17  18
ENDBRANCH  16  17
ENDBRANCH   1  16
TORSDOF 6
ENDMDL
MODEL 4
REMARK VINA RESULT:      -7.9      1.417      3.680
REMARK  6 active torsions:
REMARK  status: ('A' for Active; 'I' for Inactive)
REMARK    1  A    between atoms: C_11  and  S_1 
REMARK    2  A    between atoms: C_2  and  C_5 
REMARK       I    between atoms: N_3  and  C_2 
REMARK    3  A    between atoms: C_12  and  N_3 
REMARK    4  A    between atoms: N_4  and  C_5 
REMARK       I    between atoms: C_6  and  N_4 
REMARK    5  A    between atoms: C_5  and  C_7 
REMARK    6  A    between atoms: C_7  and  C_11 
ROOT
ATOM      1  C   UNL d   1      53.391  32.287  53.805  0.00  0.00     0.143 C 
ENDROOT
BRANCH   1   2
ATOM      2  C   UNL d   1      52.894  32.691  53.279  0.00  0.00     0.297 C 
ATOM      3  N   UNL d   1      52.343  33.231  53.563  0.00  0.00    -0.207 NA
ATOM      4  O   UNL d   1      52.951  32.551  52.465  0.00  0.00    -0.264 OA
BRANCH   3   5
ATOM      5  C   UNL d   1      51.844  33.635  53.025  0.00  0.00     0.085 A 
ATOM      6  C   UNL d   1      51.040  33.681  53.217  0.00  0.00     0.019 A 
ATOM      7  C   UNL d   1      50.535  34.086  52.680  0.00  0.00     0.002 A 
ATOM      8  C   UNL d   1      49.714  34.142  52.859  0.00  0.00     0.000 C 
ATOM      9  C   UNL d   1      50.829  34.416  52.001  0.00  0.00     0.000 A 
ATOM     10  C   UNL d   1      51.638  34.353  51.837  0.00  0.00     0.002 A 
ATOM     11  C   UNL d   1      52.142  33.958  52.357  0.00  0.00     0.019 A 
ENDBRANCH   3   5
ENDBRANCH   1   2
BRANCH   1  12
ATOM     12  N   UNL d   1      53.186  31.533  54.065  0.00  0.00    -0.203 NA
ATOM     13  C   UNL d   1      53.503  30.870  53.695  0.00  0.00     0.280 C 
ATOM     14  O   UNL d   1      54.023  30.961  53.066  0.00  0.00    -0.265 OA
ATOM     15  C   UNL d   1      53.298  30.116  53.955  0.00  0.00     0.068 C 
ENDBRANCH   1  12
BRANCH   1  16
ATOM     16  C   UNL d   1      54.087  32.638  54.067  0.00  0.00     0.036 C 
BRANCH  16  17
ATOM     17  C   UNL d   1      54.131  32.939  54.831  0.00  0.00     0.096 C 
BRANCH  17  18
ATOM     18  S   UNL d   1      54.784  33.383  55.058  0.00  0.00     0.192 S 
ATOM     19  O   UNL d   1      55.378  33.778  55.489  0.00  0.00    -0.222 OA
ATOM     20  O   UNL d   1      54.452  33.123  55.772  0.00  0.00    -0.222 OA
ATOM     21  C   UNL d   1      55.258  33.737  54.486  0.00  0.00     0.145 C 
ENDBRANCH  17  18
ENDBRANCH  16  17
ENDBRANCH   1  16
TORSDOF 6
ENDMDL
MODEL 5
REMARK VINA RESULT:      -7.9      1.588      2.575
REMARK  6 active torsions:
REMARK  status: ('A' for Active; 'I' for Inactive)
REMARK    1  A    between atoms: C_11  and  S_1 
REMARK    2  A    between atoms: C_2  and  C_5 
REMARK       I    between atoms: N_3  and  C_2 
REMARK    3  A    between atoms: C_12  and  N_3 
REMARK    4  A    between atoms: N_4  and  C_5 
REMARK       I    between atoms: C_6  and  N_4 
REMARK    5  A    between atoms: C_5  and  C_7 
REMARK    6  A    between atoms: C_7  and  C_11 
ROOT
ATOM      1  C   UNL d   1      52.155  33.862  53.188  0.00  0.00     0.143 C 
ENDROOT
BRANCH   1   2
ATOM      2  C   UNL d   1      52.579  33.156  53.098  0.00  0.00     0.297 C 
ATOM      3  N   UNL d   1      52.459  32.533  53.622  0.00  0.00    -0.207 NA
ATOM      4  O   UNL d   1      53.125  33.075  52.482  0.00  0.00    -0.264 OA
BRANCH   3   5
ATOM      5  C   UNL d   1      52.892  31.822  53.525  0.00  0.00     0.085 A 
ATOM      6  C   UNL d   1      52.475  31.160  53.252  0.00  0.00     0.019 A 
ATOM      7  C   UNL d   1      52.904  30.445  53.153  0.00  0.00     0.002 A 
ATOM      8  C   UNL d   1      52.497  29.762  52.876  0.00  0.00     0.000 C 
ATOM      9  C   UNL d   1      53.697  30.409  53.320  0.00  0.00     0.000 A 
ATOM     10  C   UNL d   1      54.085  31.087  53.592  0.00  0.00     0.002 A 
ATOM     11  C   UNL d   1      53.673  31.795  53.692  0.00  0.00     0.019 A 
ENDBRANCH   3   5
ENDBRANCH   1   2
BRANCH   1  12
ATOM     12  N   UNL d   1      51.335  33.862  53.101  0.00  0.00    -0.203 NA
ATOM     13  C   UNL d   1      50.996  34.097  52.390  0.00  0.00     0.280 C 
ATOM     14  O   UNL d   1      51.475  34.332  51.766  0.00  0.00    -0.265 OA
ATOM     15  C   UNL d   1      50.177  34.096  52.304  0.00  0.00     0.068 C 
ENDBRANCH   1  12
BRANCH   1  16
ATOM     16  C   UNL d   1      52.550  34.563  53.362  0.00  0.00     0.036 C 
BRANCH  16  17
ATOM     17  C   UNL d   1      52.517  34.873  54.122  0.00  0.00     0.096 C 
BRANCH  17  18
ATOM     18  S   UNL d   1      52.976  35.526  54.317  0.00  0.00     0.192 S 
ATOM     19  O   UNL d   1      53.261  36.245  54.625  0.00  0.00    -0.222 OA
ATOM     20  O   UNL d   1      52.253  35.657  54.703  0.00  0.00    -0.222 OA
ATOM     21  C   UNL d   1      53.743  35.589  54.027  0.00  0.00     0.145 C 
ENDBRANCH  17  18
ENDBRANCH  16  17
ENDBRANCH   1  16
TORSDOF 6
ENDMDL
MODEL 6
REMARK VINA RESULT:      -7.9      1.591      2.131
REMARK  6 active torsions:
REMARK  status: ('A' for Active; 'I' for Inactive)
REMARK    1  A    between atoms: C_11  and  S_1 
REMARK    2  A    between atoms: C_2  and  C_5 
REMARK       I    between atoms: N_3  and  C_2 
REMARK    3  A    between atoms: C_12  and  N_3 
REMARK    4  A    between atoms: N_4  and  C_5 
REMARK       I    between atoms: C_6  and  N_4 
REMARK    5  A    between atoms: C_5  and  C_7 
REMARK    6  A    between atoms: C_7  and  C_11 
ROOT
ATOM      1  C   UNL d   1      52.170  33.892  53.227  0.00  0.00     0.143 C 
ENDROOT
BRANCH   1   2
ATOM      2  C   UNL d   1      52.580  33.181  53.112  0.00  0.00     0.297 C 
ATOM      3  N   UNL d   1      52.538  32.584  53.676  0.00  0.00    -0.207 NA
ATOM      4  O   UNL d   1      53.035  33.070  52.429  0.00  0.00    -0.264 OA
BRANCH   3   5
ATOM      5  C   UNL d   1      52.956  31.868  53.552  0.00  0.00     0.085 A 
ATOM      6  C   UNL d   1      52.514  31.208  53.318  0.00  0.00     0.019 A 
ATOM      7  C   UNL d   1      52.928  30.487  53.192  0.00  0.00     0.002 A 
ATOM      8  C   UNL d   1      52.494  29.807  52.953  0.00  0.00     0.000 C 
ATOM      9  C   UNL d   1      53.731  30.446  53.299  0.00  0.00     0.000 A 
ATOM     10  C   UNL d   1      54.144  31.122  53.534  0.00  0.00     0.002 A 
ATOM     11  C   UNL d   1      53.747  31.834  53.659  0.00  0.00     0.019 A 
ENDBRANCH   3   5
ENDBRANCH   1   2
BRANCH   1  12
ATOM     12  N   UNL d   1      52.340  34.362  53.882  0.00  0.00    -0.203 NA
ATOM     13  C   UNL d   1      52.841  35.009  53.805  0.00  0.00     0.280 C 
ATOM     14  O   UNL d   1      53.173  35.186  53.075  0.00  0.00    -0.265 OA
ATOM     15  C   UNL d   1      53.011  35.479  54.460  0.00  0.00     0.068 C 
ENDBRANCH   1  12
BRANCH   1  16
ATOM     16  C   UNL d   1      51.594  34.128  52.689  0.00  0.00     0.036 C 
BRANCH  16  17
ATOM     17  C   UNL d   1      50.799  34.079  52.893  0.00  0.00     0.096 C 
BRANCH  17  18
ATOM     18  S   UNL d   1      50.223  34.284  52.343  0.00  0.00     0.192 S 
ATOM     19  O   UNL d   1      49.526  34.540  51.967  0.00  0.00    -0.222 OA
ATOM     20  O   UNL d   1      49.872  34.438  53.079  0.00  0.00    -0.222 OA
ATOM     21  C   UNL d   1      50.377  34.204  51.539  0.00  0.00     0.145 C 
ENDBRANCH  17  18
ENDBRANCH  16  17
ENDBRANCH   1  16
TORSDOF 6
ENDMDL
