MODEL 1
REMARK VINA RESULT:      12.8      0.000      0.000
REMARK  1 active torsions:
REMARK  status: ('A' for Active; 'I' for Inactive)
REMARK    1  A    between atoms: C_2  and  S_1 
ROOT
ATOM      1  C   UNL d   1      57.871  49.688  50.452  0.00  0.00     0.107 A 
ATOM      2  C   UNL d   1      58.148  49.669  51.229  0.00  0.00     0.014 A 
ATOM      3  C   UNL d   1      58.392  49.706  49.825  0.00  0.00     0.014 A 
ATOM      4  C   UNL d   1      59.484  49.688  50.728  0.00  0.00     0.058 A 
ATOM      5  C   UNL d   1      59.210  49.707  49.965  0.00  0.00     0.012 A 
ATOM      6  C   UNL d   1      58.960  49.669  51.376  0.00  0.00     0.012 A 
ATOM      7 CL   UNL d   1      60.301  49.689  50.849  0.00  0.00    -0.082 Cl
ENDROOT
BRANCH   1   8
ATOM      8  S   UNL d   1      57.057  49.687  50.314  0.00  0.00     0.302 S 
ATOM      9  O   UNL d   1      56.927  49.671  51.129  0.00  0.00    -0.197 OA
ATOM     10  O   UNL d   1      57.185  49.703  49.511  0.00  0.00    -0.197 OA
ATOM     11  N   UNL d   1      56.247  49.687  50.185  0.00  0.00    -0.043 N 
ENDBRANCH   1   8
TORSDOF 1
ENDMDL
MODEL 2
REMARK VINA RESULT:      13.2      2.623      2.842
REMARK  1 active torsions:
REMARK  status: ('A' for Active; 'I' for Inactive)
REMARK    1  A    between atoms: C_2  and  S_1 
ROOT
ATOM      1  C   UNL d   1      59.772  49.644  50.987  0.00  0.00     0.107 A 
ATOM      2  C   UNL d   1      59.089  49.677  51.449  0.00  0.00     0.014 A 
ATOM      3  C   UNL d   1      59.723  49.631  50.173  0.00  0.00     0.014 A 
ATOM      4  C   UNL d   1      58.308  49.684  50.254  0.00  0.00     0.058 A 
ATOM      5  C   UNL d   1      58.980  49.652  49.802  0.00  0.00     0.012 A 
ATOM      6  C   UNL d   1      58.348  49.698  51.087  0.00  0.00     0.012 A 
ATOM      7 CL   UNL d   1      57.579  49.704  49.869  0.00  0.00    -0.082 Cl
ENDROOT
BRANCH   1   8
ATOM      8  S   UNL d   1      60.509  49.623  51.357  0.00  0.00     0.302 S 
ATOM      9  O   UNL d   1      60.868  49.538  50.619  0.00  0.00    -0.197 OA
ATOM     10  O   UNL d   1      60.156  49.707  52.085  0.00  0.00    -0.197 OA
ATOM     11  N   UNL d   1      61.246  49.602  51.718  0.00  0.00    -0.043 N 
ENDBRANCH   1   8
TORSDOF 1
ENDMDL
MODEL 3
REMARK VINA RESULT:      14.5      1.505      1.947
REMARK  1 active torsions:
REMARK  status: ('A' for Active; 'I' for Inactive)
REMARK    1  A    between atoms: C_2  and  S_1 
ROOT
ATOM      1  C   UNL d   1      59.483  49.648  50.956  0.00  0.00     0.107 A 
ATOM      2  C   UNL d   1      60.203  49.600  50.557  0.00  0.00     0.014 A 
ATOM      3  C   UNL d   1      59.463  49.701  51.770  0.00  0.00     0.014 A 
ATOM      4  C   UNL d   1      60.879  49.660  51.813  0.00  0.00     0.058 A 
ATOM      5  C   UNL d   1      60.170  49.707  52.204  0.00  0.00     0.012 A 
ATOM      6  C   UNL d   1      60.911  49.605  50.981  0.00  0.00     0.012 A 
ATOM      7 CL   UNL d   1      61.573  49.668  52.259  0.00  0.00    -0.082 Cl
ENDROOT
BRANCH   1   8
ATOM      8  S   UNL d   1      58.781  49.641  50.525  0.00  0.00     0.302 S 
ATOM      9  O   UNL d   1      58.357  49.574  51.230  0.00  0.00    -0.197 OA
ATOM     10  O   UNL d   1      59.197  49.707  49.829  0.00  0.00    -0.197 OA
ATOM     11  N   UNL d   1      58.077  49.634  50.102  0.00  0.00    -0.043 N 
ENDBRANCH   1   8
TORSDOF 1
ENDMDL
