MODEL 1
REMARK VINA RESULT:      -6.8      0.000      0.000
REMARK  7 active torsions:
REMARK  status: ('A' for Active; 'I' for Inactive)
REMARK    1  A    between atoms: C_2  and  S_1 
REMARK    2  A    between atoms: N_7  and  S_1 
REMARK    3  A    between atoms: C_5  and  C_6 
REMARK    4  A    between atoms: C_6  and  C_8 
REMARK    5  A    between atoms: C_15  and  N_7 
REMARK    6  A    between atoms: C_8  and  C_12 
REMARK    7  A    between atoms: C_18  and  C_15 
ROOT
ATOM      1  C   UNL d   1     -48.501  13.988  22.793  0.00  0.00     0.105 A 
ATOM      2  C   UNL d   1     -48.514  14.778  22.592  0.00  0.00     0.012 A 
ATOM      3  C   UNL d   1     -47.766  13.601  22.921  0.00  0.00     0.013 A 
ATOM      4  C   UNL d   1     -47.064  14.025  22.841  0.00  0.00     0.001 A 
ATOM      5  C   UNL d   1     -47.812  15.202  22.512  0.00  0.00     0.001 A 
ATOM      6  C   UNL d   1     -47.092  14.839  22.633  0.00  0.00     0.000 A 
ATOM      7  C   UNL d   1     -49.263  15.158  22.466  0.00  0.00     0.001 C 
ENDROOT
BRANCH   1   8
ATOM      8  S   UNL d   1     -49.201  13.565  22.872  0.00  0.00     0.285 S 
ATOM      9  O   UNL d   1     -49.221  13.750  23.680  0.00  0.00    -0.198 OA
ATOM     10  O   UNL d   1     -49.180  13.378  22.054  0.00  0.00    -0.198 OA
BRANCH   8  11
ATOM     11  N   UNL d   1     -49.916  13.133  22.954  0.00  0.00    -0.153 NA
BRANCH  11  12
ATOM     12  C   UNL d   1     -49.927  12.427  23.384  0.00  0.00     0.157 C 
BRANCH  12  13
ATOM     13  C   UNL d   1     -50.624  11.989  23.443  0.00  0.00     0.256 C 
ATOM     14  O   UNL d   1     -50.598  11.200  23.692  0.00  0.00    -0.281 OA
ENDBRANCH  12  13
ENDBRANCH  11  12
ENDBRANCH   8  11
ENDBRANCH   1   8
BRANCH   4  15
ATOM     15  C   UNL d   1     -46.326  13.634  22.970  0.00  0.00     0.006 C 
BRANCH  15  16
ATOM     16  C   UNL d   1     -45.916  13.340  22.321  0.00  0.00     0.070 C 
BRANCH  16  17
ATOM     17  C   UNL d   1     -45.199  12.930  22.431  0.00  0.00     0.211 C 
ATOM     18  O   UNL d   1     -44.545  13.135  21.972  0.00  0.00    -0.644 OA
ATOM     19  O   UNL d   1     -45.146  12.331  22.988  0.00  0.00    -0.644 OA
ENDBRANCH  16  17
ENDBRANCH  15  16
ENDBRANCH   4  15
TORSDOF 7
ENDMDL
MODEL 2
REMARK VINA RESULT:      -6.6      1.666      3.924
REMARK  7 active torsions:
REMARK  status: ('A' for Active; 'I' for Inactive)
REMARK    1  A    between atoms: C_2  and  S_1 
REMARK    2  A    between atoms: N_7  and  S_1 
REMARK    3  A    between atoms: C_5  and  C_6 
REMARK    4  A    between atoms: C_6  and  C_8 
REMARK    5  A    between atoms: C_15  and  N_7 
REMARK    6  A    between atoms: C_8  and  C_12 
REMARK    7  A    between atoms: C_18  and  C_15 
ROOT
ATOM      1  C   UNL d   1     -47.083  13.670  22.809  0.00  0.00     0.105 A 
ATOM      2  C   UNL d   1     -47.468  14.385  22.736  0.00  0.00     0.012 A 
ATOM      3  C   UNL d   1     -47.513  12.985  23.038  0.00  0.00     0.013 A 
ATOM      4  C   UNL d   1     -48.322  13.043  23.186  0.00  0.00     0.001 A 
ATOM      5  C   UNL d   1     -48.276  14.443  22.884  0.00  0.00     0.001 A 
ATOM      6  C   UNL d   1     -48.706  13.787  23.107  0.00  0.00     0.000 A 
ATOM      7  C   UNL d   1     -47.023  15.070  22.504  0.00  0.00     0.001 C 
ENDROOT
BRANCH   1   8
ATOM      8  S   UNL d   1     -46.278  13.612  22.661  0.00  0.00     0.285 S 
ATOM      9  O   UNL d   1     -46.119  13.806  23.451  0.00  0.00    -0.198 OA
ATOM     10  O   UNL d   1     -46.439  13.415  21.861  0.00  0.00    -0.198 OA
BRANCH   8  11
ATOM     11  N   UNL d   1     -45.453  13.552  22.510  0.00  0.00    -0.153 NA
BRANCH  11  12
ATOM     12  C   UNL d   1     -45.152  12.894  22.109  0.00  0.00     0.157 C 
BRANCH  12  13
ATOM     13  C   UNL d   1     -44.373  12.897  21.839  0.00  0.00     0.256 C 
ATOM     14  O   UNL d   1     -43.886  12.240  21.971  0.00  0.00    -0.281 OA
ENDBRANCH  12  13
ENDBRANCH  11  12
ENDBRANCH   8  11
ENDBRANCH   1   8
BRANCH   4  15
ATOM     15  C   UNL d   1     -48.752  12.353  23.416  0.00  0.00     0.006 C 
BRANCH  15  16
ATOM     16  C   UNL d   1     -49.494  12.222  23.088  0.00  0.00     0.070 C 
BRANCH  16  17
ATOM     17  C   UNL d   1     -49.985  11.623  23.392  0.00  0.00     0.211 C 
ATOM     18  O   UNL d   1     -50.803  11.730  23.382  0.00  0.00    -0.644 OA
ATOM     19  O   UNL d   1     -49.660  10.936  23.698  0.00  0.00    -0.644 OA
ENDBRANCH  16  17
ENDBRANCH  15  16
ENDBRANCH   4  15
TORSDOF 7
ENDMDL
MODEL 3
REMARK VINA RESULT:      -6.1      1.946      4.239
REMARK  7 active torsions:
REMARK  status: ('A' for Active; 'I' for Inactive)
REMARK    1  A    between atoms: C_2  and  S_1 
REMARK    2  A    between atoms: N_7  and  S_1 
REMARK    3  A    between atoms: C_5  and  C_6 
REMARK    4  A    between atoms: C_6  and  C_8 
REMARK    5  A    between atoms: C_15  and  N_7 
REMARK    6  A    between atoms: C_8  and  C_12 
REMARK    7  A    between atoms: C_18  and  C_15 
ROOT
ATOM      1  C   UNL d   1     -47.194  12.934  23.036  0.00  0.00     0.105 A 
ATOM      2  C   UNL d   1     -47.528  12.293  23.412  0.00  0.00     0.012 A 
ATOM      3  C   UNL d   1     -47.680  13.575  22.791  0.00  0.00     0.013 A 
ATOM      4  C   UNL d   1     -48.491  13.548  22.934  0.00  0.00     0.001 A 
ATOM      5  C   UNL d   1     -48.340  12.266  23.554  0.00  0.00     0.001 A 
ATOM      6  C   UNL d   1     -48.822  12.881  23.322  0.00  0.00     0.000 A 
ATOM      7  C   UNL d   1     -47.028  11.651  23.654  0.00  0.00     0.001 C 
ENDROOT
BRANCH   1   8
ATOM      8  S   UNL d   1     -46.386  12.961  22.894  0.00  0.00     0.285 S 
ATOM      9  O   UNL d   1     -46.519  12.762  22.100  0.00  0.00    -0.198 OA
ATOM     10  O   UNL d   1     -46.251  13.163  23.698  0.00  0.00    -0.198 OA
BRANCH   8  11
ATOM     11  N   UNL d   1     -45.559  12.989  22.748  0.00  0.00    -0.153 NA
BRANCH  11  12
ATOM     12  C   UNL d   1     -45.276  13.015  21.972  0.00  0.00     0.157 C 
BRANCH  12  13
ATOM     13  C   UNL d   1     -44.483  12.849  21.815  0.00  0.00     0.256 C 
ATOM     14  O   UNL d   1     -43.932  13.466  21.769  0.00  0.00    -0.281 OA
ENDBRANCH  12  13
ENDBRANCH  11  12
ENDBRANCH   8  11
ENDBRANCH   1   8
BRANCH   4  15
ATOM     15  C   UNL d   1     -48.978  14.194  22.687  0.00  0.00     0.006 C 
BRANCH  15  16
ATOM     16  C   UNL d   1     -49.462  14.558  23.241  0.00  0.00     0.070 C 
BRANCH  16  17
ATOM     17  C   UNL d   1     -49.921  15.219  23.024  0.00  0.00     0.211 C 
ATOM     18  O   UNL d   1     -49.837  15.922  23.449  0.00  0.00    -0.644 OA
ATOM     19  O   UNL d   1     -50.447  15.171  22.398  0.00  0.00    -0.644 OA
ENDBRANCH  16  17
ENDBRANCH  15  16
ENDBRANCH   4  15
TORSDOF 7
ENDMDL
MODEL 4
REMARK VINA RESULT:      -6.1      1.274      1.563
REMARK  7 active torsions:
REMARK  status: ('A' for Active; 'I' for Inactive)
REMARK    1  A    between atoms: C_2  and  S_1 
REMARK    2  A    between atoms: N_7  and  S_1 
REMARK    3  A    between atoms: C_5  and  C_6 
REMARK    4  A    between atoms: C_6  and  C_8 
REMARK    5  A    between atoms: C_15  and  N_7 
REMARK    6  A    between atoms: C_8  and  C_12 
REMARK    7  A    between atoms: C_18  and  C_15 
ROOT
ATOM      1  C   UNL d   1     -48.012  13.942  22.648  0.00  0.00     0.105 A 
ATOM      2  C   UNL d   1     -47.558  14.612  22.552  0.00  0.00     0.012 A 
ATOM      3  C   UNL d   1     -47.666  13.244  22.964  0.00  0.00     0.013 A 
ATOM      4  C   UNL d   1     -46.869  13.244  23.173  0.00  0.00     0.001 A 
ATOM      5  C   UNL d   1     -46.761  14.612  22.760  0.00  0.00     0.001 A 
ATOM      6  C   UNL d   1     -46.412  13.942  23.067  0.00  0.00     0.000 A 
ATOM      7  C   UNL d   1     -47.918  15.311  22.232  0.00  0.00     0.001 C 
ENDROOT
BRANCH   1   8
ATOM      8  S   UNL d   1     -48.807  13.943  22.440  0.00  0.00     0.285 S 
ATOM      9  O   UNL d   1     -48.607  13.688  21.677  0.00  0.00    -0.198 OA
ATOM     10  O   UNL d   1     -49.009  14.200  23.214  0.00  0.00    -0.198 OA
BRANCH   8  11
ATOM     11  N   UNL d   1     -49.619  13.943  22.228  0.00  0.00    -0.153 NA
BRANCH  11  12
ATOM     12  C   UNL d   1     -49.963  13.264  21.903  0.00  0.00     0.157 C 
BRANCH  12  13
ATOM     13  C   UNL d   1     -50.704  13.308  21.544  0.00  0.00     0.256 C 
ATOM     14  O   UNL d   1     -51.064  12.621  21.252  0.00  0.00    -0.281 OA
ENDBRANCH  12  13
ENDBRANCH  11  12
ENDBRANCH   8  11
ENDBRANCH   1   8
BRANCH   4  15
ATOM     15  C   UNL d   1     -46.524  12.541  23.490  0.00  0.00     0.006 C 
BRANCH  15  16
ATOM     16  C   UNL d   1     -45.960  12.142  23.045  0.00  0.00     0.070 C 
BRANCH  16  17
ATOM     17  C   UNL d   1     -45.583  11.468  23.355  0.00  0.00     0.211 C 
ATOM     18  O   UNL d   1     -44.760  11.416  23.322  0.00  0.00    -0.644 OA
ATOM     19  O   UNL d   1     -46.025  10.863  23.689  0.00  0.00    -0.644 OA
ENDBRANCH  16  17
ENDBRANCH  15  16
ENDBRANCH   4  15
TORSDOF 7
ENDMDL
MODEL 5
REMARK VINA RESULT:      -4.7      8.054      9.204
REMARK  7 active torsions:
REMARK  status: ('A' for Active; 'I' for Inactive)
REMARK    1  A    between atoms: C_2  and  S_1 
REMARK    2  A    between atoms: N_7  and  S_1 
REMARK    3  A    between atoms: C_5  and  C_6 
REMARK    4  A    between atoms: C_6  and  C_8 
REMARK    5  A    between atoms: C_15  and  N_7 
REMARK    6  A    between atoms: C_8  and  C_12 
REMARK    7  A    between atoms: C_18  and  C_15 
ROOT
ATOM      1  C   UNL d   1     -39.949  14.953  20.532  0.00  0.00     0.105 A 
ATOM      2  C   UNL d   1     -40.525  15.521  20.426  0.00  0.00     0.012 A 
ATOM      3  C   UNL d   1     -39.553  14.630  19.864  0.00  0.00     0.013 A 
ATOM      4  C   UNL d   1     -39.751  14.890  19.108  0.00  0.00     0.001 A 
ATOM      5  C   UNL d   1     -40.723  15.781  19.670  0.00  0.00     0.001 A 
ATOM      6  C   UNL d   1     -40.347  15.476  19.014  0.00  0.00     0.000 A 
ATOM      7  C   UNL d   1     -40.918  15.840  21.108  0.00  0.00     0.001 C 
ENDROOT
BRANCH   1   8
ATOM      8  S   UNL d   1     -39.751  14.694  21.285  0.00  0.00     0.285 S 
ATOM      9  O   UNL d   1     -40.368  14.141  21.256  0.00  0.00    -0.198 OA
ATOM     10  O   UNL d   1     -39.126  15.255  21.314  0.00  0.00    -0.198 OA
BRANCH   8  11
ATOM     11  N   UNL d   1     -39.549  14.429  22.056  0.00  0.00    -0.153 NA
BRANCH  11  12
ATOM     12  C   UNL d   1     -39.034  13.788  22.152  0.00  0.00     0.157 C 
BRANCH  12  13
ATOM     13  C   UNL d   1     -38.813  13.546  22.909  0.00  0.00     0.256 C 
ATOM     14  O   UNL d   1     -38.349  12.867  23.008  0.00  0.00    -0.281 OA
ENDBRANCH  12  13
ENDBRANCH  11  12
ENDBRANCH   8  11
ENDBRANCH   1   8
BRANCH   4  15
ATOM     15  C   UNL d   1     -39.352  14.564  18.439  0.00  0.00     0.006 C 
BRANCH  15  16
ATOM     16  C   UNL d   1     -39.753  14.030  17.961  0.00  0.00     0.070 C 
BRANCH  16  17
ATOM     17  C   UNL d   1     -39.341  13.599  17.379  0.00  0.00     0.211 C 
ATOM     18  O   UNL d   1     -39.226  12.789  17.486  0.00  0.00    -0.644 OA
ATOM     19  O   UNL d   1     -39.056  13.976  16.710  0.00  0.00    -0.644 OA
ENDBRANCH  16  17
ENDBRANCH  15  16
ENDBRANCH   4  15
TORSDOF 7
ENDMDL
MODEL 6
REMARK VINA RESULT:      -4.6      8.660      9.693
REMARK  7 active torsions:
REMARK  status: ('A' for Active; 'I' for Inactive)
REMARK    1  A    between atoms: C_2  and  S_1 
REMARK    2  A    between atoms: N_7  and  S_1 
REMARK    3  A    between atoms: C_5  and  C_6 
REMARK    4  A    between atoms: C_6  and  C_8 
REMARK    5  A    between atoms: C_15  and  N_7 
REMARK    6  A    between atoms: C_8  and  C_12 
REMARK    7  A    between atoms: C_18  and  C_15 
ROOT
ATOM      1  C   UNL d   1     -40.054  14.819  18.625  0.00  0.00     0.105 A 
ATOM      2  C   UNL d   1     -40.563  15.449  18.719  0.00  0.00     0.012 A 
ATOM      3  C   UNL d   1     -39.786  14.394  19.299  0.00  0.00     0.013 A 
ATOM      4  C   UNL d   1     -40.042  14.618  20.050  0.00  0.00     0.001 A 
ATOM      5  C   UNL d   1     -40.819  15.673  19.470  0.00  0.00     0.001 A 
ATOM      6  C   UNL d   1     -40.567  15.269  20.132  0.00  0.00     0.000 A 
ATOM      7  C   UNL d   1     -40.827  15.870  18.031  0.00  0.00     0.001 C 
ENDROOT
BRANCH   1   8
ATOM      8  S   UNL d   1     -39.799  14.596  17.878  0.00  0.00     0.285 S 
ATOM      9  O   UNL d   1     -40.391  14.016  17.849  0.00  0.00    -0.198 OA
ATOM     10  O   UNL d   1     -39.199  15.183  17.907  0.00  0.00    -0.198 OA
BRANCH   8  11
ATOM     11  N   UNL d   1     -39.538  14.367  17.113  0.00  0.00    -0.153 NA
BRANCH  11  12
ATOM     12  C   UNL d   1     -38.830  13.948  17.025  0.00  0.00     0.157 C 
BRANCH  12  13
ATOM     13  C   UNL d   1     -38.532  13.796  16.271  0.00  0.00     0.256 C 
ATOM     14  O   UNL d   1     -37.956  13.210  16.163  0.00  0.00    -0.281 OA
ENDBRANCH  12  13
ENDBRANCH  11  12
ENDBRANCH   8  11
ENDBRANCH   1   8
BRANCH   4  15
ATOM     15  C   UNL d   1     -39.771  14.190  20.726  0.00  0.00     0.006 C 
BRANCH  15  16
ATOM     16  C   UNL d   1     -39.533  14.609  21.391  0.00  0.00     0.070 C 
BRANCH  16  17
ATOM     17  C   UNL d   1     -39.143  14.218  22.014  0.00  0.00     0.211 C 
ATOM     18  O   UNL d   1     -39.470  13.525  22.320  0.00  0.00    -0.644 OA
ATOM     19  O   UNL d   1     -38.444  14.518  22.319  0.00  0.00    -0.644 OA
ENDBRANCH  16  17
ENDBRANCH  15  16
ENDBRANCH   4  15
TORSDOF 7
ENDMDL
MODEL 7
REMARK VINA RESULT:      -4.4      8.620      9.540
REMARK  7 active torsions:
REMARK  status: ('A' for Active; 'I' for Inactive)
REMARK    1  A    between atoms: C_2  and  S_1 
REMARK    2  A    between atoms: N_7  and  S_1 
REMARK    3  A    between atoms: C_5  and  C_6 
REMARK    4  A    between atoms: C_6  and  C_8 
REMARK    5  A    between atoms: C_15  and  N_7 
REMARK    6  A    between atoms: C_8  and  C_12 
REMARK    7  A    between atoms: C_18  and  C_15 
ROOT
ATOM      1  C   UNL d   1     -39.870  14.542  18.101  0.00  0.00     0.105 A 
ATOM      2  C   UNL d   1     -39.338  13.926  18.047  0.00  0.00     0.012 A 
ATOM      3  C   UNL d   1     -39.919  14.991  18.810  0.00  0.00     0.013 A 
ATOM      4  C   UNL d   1     -39.429  14.804  19.445  0.00  0.00     0.001 A 
ATOM      5  C   UNL d   1     -38.848  13.739  18.682  0.00  0.00     0.001 A 
ATOM      6  C   UNL d   1     -38.885  14.166  19.376  0.00  0.00     0.000 A 
ATOM      7  C   UNL d   1     -39.297  13.480  17.326  0.00  0.00     0.001 C 
ENDROOT
BRANCH   1   8
ATOM      8  S   UNL d   1     -40.358  14.728  17.468  0.00  0.00     0.285 S 
ATOM      9  O   UNL d   1     -39.806  15.288  17.206  0.00  0.00    -0.198 OA
ATOM     10  O   UNL d   1     -40.918  14.160  17.733  0.00  0.00    -0.198 OA
BRANCH   8  11
ATOM     11  N   UNL d   1     -40.858  14.919  16.820  0.00  0.00    -0.153 NA
BRANCH  11  12
ATOM     12  C   UNL d   1     -41.344  15.587  16.855  0.00  0.00     0.157 C 
BRANCH  12  13
ATOM     13  C   UNL d   1     -41.658  15.906  16.162  0.00  0.00     0.256 C 
ATOM     14  O   UNL d   1     -42.479  15.922  16.048  0.00  0.00    -0.281 OA
ENDBRANCH  12  13
ENDBRANCH  11  12
ENDBRANCH   8  11
ENDBRANCH   1   8
BRANCH   4  15
ATOM     15  C   UNL d   1     -39.481  15.256  20.156  0.00  0.00     0.006 C 
BRANCH  15  16
ATOM     16  C   UNL d   1     -39.881  14.938  20.799  0.00  0.00     0.070 C 
BRANCH  16  17
ATOM     17  C   UNL d   1     -39.985  15.389  21.492  0.00  0.00     0.211 C 
ATOM     18  O   UNL d   1     -40.614  15.922  21.533  0.00  0.00    -0.644 OA
ATOM     19  O   UNL d   1     -39.470  15.304  22.123  0.00  0.00    -0.644 OA
ENDBRANCH  16  17
ENDBRANCH  15  16
ENDBRANCH   4  15
TORSDOF 7
ENDMDL
