MODEL 1
REMARK VINA RESULT:      -1.6      0.000      0.000
REMARK  6 active torsions:
REMARK  status: ('A' for Active; 'I' for Inactive)
REMARK    1  A    between atoms: C_18  and  N_1 
REMARK    2  A    between atoms: S_7  and  C_2 
REMARK    3  A    between atoms: C_20  and  S_7 
REMARK    4  A    between atoms: C_10  and  C_20 
REMARK       I    between atoms: N_13  and  C_10 
REMARK    5  A    between atoms: C_16  and  N_13 
REMARK    6  A    between atoms: C_21  and  C_18 
ROOT
ATOM      1  N   UNL d   1      33.070  20.133 -22.212  0.00  0.00    -0.253 N 
ATOM      2  C   UNL d   1      33.096  19.586 -22.896  0.00  0.00     0.182 A 
ATOM      3  C   UNL d   1      33.094  20.925 -22.337  0.00  0.00     0.268 A 
ATOM      4  N   UNL d   1      33.143  19.891 -23.624  0.00  0.00    -0.222 NA
ATOM      5  C   UNL d   1      33.143  21.221 -23.091  0.00  0.00     0.074 A 
ATOM      6  C   UNL d   1      33.168  20.699 -23.751  0.00  0.00     0.088 A 
ATOM      7  O   UNL d   1      33.067  21.433 -21.644  0.00  0.00    -0.267 OA
ATOM      8  C   UNL d   1      33.167  22.034 -23.211  0.00  0.00     0.006 A 
ATOM      9  C   UNL d   1      33.216  21.011 -24.506  0.00  0.00     0.019 A 
ATOM     10  C   UNL d   1      33.215  22.332 -23.962  0.00  0.00     0.000 A 
ATOM     11  C   UNL d   1      33.241  21.827 -24.623  0.00  0.00     0.002 A 
ENDROOT
BRANCH   2  12
ATOM     12  S   UNL d   1      33.072  18.758 -22.781  0.00  0.00    -0.044 SA
BRANCH  12  13
ATOM     13  C   UNL d   1      32.522  18.261 -23.222  0.00  0.00     0.101 C 
BRANCH  13  14
ATOM     14  C   UNL d   1      32.608  17.437 -23.191  0.00  0.00     0.286 C 
ATOM     15  N   UNL d   1      32.082  16.946 -23.565  0.00  0.00    -0.207 NA
ATOM     16  O   UNL d   1      33.241  17.113 -22.771  0.00  0.00    -0.265 OA
BRANCH  15  17
ATOM     17  C   UNL d   1      31.437  17.268 -23.994  0.00  0.00     0.087 A 
ATOM     18  C   UNL d   1      30.671  17.093 -23.727  0.00  0.00     0.045 A 
ATOM     19  C   UNL d   1      30.021  17.403 -24.138  0.00  0.00     0.121 A 
ATOM     20  O   UNL d   1      29.209  17.331 -24.012  0.00  0.00    -0.299 OA
ATOM     21  C   UNL d   1      30.145  17.871 -24.794  0.00  0.00     0.119 A 
ATOM     22  C   UNL d   1      28.845  17.772 -24.615  0.00  0.00     0.304 A 
ATOM     23  O   UNL d   1      29.388  18.103 -25.094  0.00  0.00    -0.300 OA
ATOM     24  C   UNL d   1      30.918  18.042 -25.058  0.00  0.00     0.028 A 
ATOM     25  C   UNL d   1      31.559  17.733 -24.647  0.00  0.00     0.021 A 
ENDBRANCH  15  17
ENDBRANCH  13  14
ENDBRANCH  12  13
ENDBRANCH   2  12
BRANCH   1  26
ATOM     26  C   UNL d   1      33.020  19.857 -21.411  0.00  0.00     0.085 C 
BRANCH  26  27
ATOM     27  C   UNL d   1      33.147  20.373 -20.777  0.00  0.00     0.019 C 
ATOM     28  C   UNL d   1      33.151  20.095 -20.018  0.00  0.00     0.002 C 
ENDBRANCH  26  27
ENDBRANCH   1  26
TORSDOF 6
ENDMDL
MODEL 2
REMARK VINA RESULT:       1.3      1.486      2.425
REMARK  6 active torsions:
REMARK  status: ('A' for Active; 'I' for Inactive)
REMARK    1  A    between atoms: C_18  and  N_1 
REMARK    2  A    between atoms: S_7  and  C_2 
REMARK    3  A    between atoms: C_20  and  S_7 
REMARK    4  A    between atoms: C_10  and  C_20 
REMARK       I    between atoms: N_13  and  C_10 
REMARK    5  A    between atoms: C_16  and  N_13 
REMARK    6  A    between atoms: C_21  and  C_18 
ROOT
ATOM      1  N   UNL d   1      32.843  20.853 -21.910  0.00  0.00    -0.253 N 
ATOM      2  C   UNL d   1      32.951  21.080 -22.749  0.00  0.00     0.182 A 
ATOM      3  C   UNL d   1      32.582  21.398 -21.382  0.00  0.00     0.268 A 
ATOM      4  N   UNL d   1      32.785  21.822 -22.965  0.00  0.00    -0.222 NA
ATOM      5  C   UNL d   1      32.417  22.155 -21.622  0.00  0.00     0.074 A 
ATOM      6  C   UNL d   1      32.519  22.378 -22.427  0.00  0.00     0.088 A 
ATOM      7  O   UNL d   1      32.487  21.142 -20.567  0.00  0.00    -0.267 OA
ATOM      8  C   UNL d   1      32.149  22.709 -21.075  0.00  0.00     0.006 A 
ATOM      9  C   UNL d   1      32.349  23.145 -22.655  0.00  0.00     0.019 A 
ATOM     10  C   UNL d   1      31.984  23.465 -21.310  0.00  0.00     0.000 A 
ATOM     11  C   UNL d   1      32.081  23.698 -22.103  0.00  0.00     0.002 A 
ENDROOT
BRANCH   2  12
ATOM     12  S   UNL d   1      33.223  20.522 -23.311  0.00  0.00    -0.044 SA
BRANCH  12  13
ATOM     13  C   UNL d   1      32.675  20.116 -23.838  0.00  0.00     0.101 C 
BRANCH  13  14
ATOM     14  C   UNL d   1      32.872  20.034 -24.639  0.00  0.00     0.286 C 
ATOM     15  N   UNL d   1      32.763  19.331 -25.029  0.00  0.00    -0.207 NA
ATOM     16  O   UNL d   1      33.185  20.682 -25.046  0.00  0.00    -0.265 OA
BRANCH  15  17
ATOM     17  C   UNL d   1      32.445  18.669 -24.623  0.00  0.00     0.087 A 
ATOM     18  C   UNL d   1      32.980  18.122 -24.302  0.00  0.00     0.045 A 
ATOM     19  C   UNL d   1      32.685  17.461 -23.898  0.00  0.00     0.121 A 
ATOM     20  O   UNL d   1      33.067  16.832 -23.525  0.00  0.00    -0.299 OA
ATOM     21  C   UNL d   1      31.879  17.362 -23.821  0.00  0.00     0.119 A 
ATOM     22  C   UNL d   1      32.464  16.348 -23.220  0.00  0.00     0.304 A 
ATOM     23  O   UNL d   1      31.746  16.647 -23.387  0.00  0.00    -0.300 OA
ATOM     24  C   UNL d   1      31.347  17.916 -24.146  0.00  0.00     0.028 A 
ATOM     25  C   UNL d   1      31.645  18.570 -24.547  0.00  0.00     0.021 A 
ENDBRANCH  15  17
ENDBRANCH  13  14
ENDBRANCH  12  13
ENDBRANCH   2  12
BRANCH   1  26
ATOM     26  C   UNL d   1      33.006  20.070 -21.627  0.00  0.00     0.085 C 
BRANCH  26  27
ATOM     27  C   UNL d   1      32.898  19.877 -20.829  0.00  0.00     0.019 C 
ATOM     28  C   UNL d   1      33.202  19.191 -20.529  0.00  0.00     0.002 C 
ENDBRANCH  26  27
ENDBRANCH   1  26
TORSDOF 6
ENDMDL
