MODEL 1
REMARK VINA RESULT:      -2.5      0.000      0.000
REMARK  9 active torsions:
REMARK  status: ('A' for Active; 'I' for Inactive)
REMARK    1  A    between atoms: N_2  and  S_1 
REMARK    2  A    between atoms: C_12  and  S_1 
REMARK    3  A    between atoms: C_4  and  N_2 
REMARK    4  A    between atoms: N_6  and  C_8 
REMARK       I    between atoms: C_9  and  N_6 
REMARK    5  A    between atoms: O_22  and  C_7 
REMARK    6  A    between atoms: C_8  and  N_15 
REMARK    7  A    between atoms: C_16  and  C_9 
REMARK    8  A    between atoms: O_23  and  C_10 
REMARK    9  A    between atoms: N_15  and  C_21 
ROOT
ATOM      1  C   UNL d   1      58.306  -0.537  29.943  0.00  0.00     0.105 A 
ATOM      2  C   UNL d   1      58.742   0.081  30.229  0.00  0.00     0.015 A 
ATOM      3  C   UNL d   1      57.605  -0.754  30.312  0.00  0.00     0.015 A 
ATOM      4  C   UNL d   1      57.781   0.279  31.266  0.00  0.00     0.084 A 
ATOM      5  C   UNL d   1      58.504   0.500  30.882  0.00  0.00     0.020 A 
ATOM      6  C   UNL d   1      57.351  -0.347  30.966  0.00  0.00     0.020 A 
ENDROOT
BRANCH   1   7
ATOM      7  S   UNL d   1      58.557  -0.964  29.271  0.00  0.00     0.287 S 
ATOM      8  O   UNL d   1      59.331  -0.660  29.384  0.00  0.00    -0.198 OA
ATOM      9  O   UNL d   1      57.796  -1.256  29.168  0.00  0.00    -0.198 OA
BRANCH   7  10
ATOM     10  N   UNL d   1      58.830  -1.381  28.604  0.00  0.00    -0.139 NA
BRANCH  10  11
ATOM     11  C   UNL d   1      59.111  -2.159  28.662  0.00  0.00     0.182 A 
ATOM     12  N   UNL d   1      58.619  -2.773  28.535  0.00  0.00    -0.185 NA
ATOM     13  C   UNL d   1      58.886  -3.554  28.589  0.00  0.00     0.274 A 
ATOM     14  N   UNL d   1      59.652  -3.701  28.773  0.00  0.00    -0.181 NA
ATOM     15  C   UNL d   1      60.179  -3.092  28.909  0.00  0.00     0.185 A 
ATOM     16  C   UNL d   1      59.886  -2.278  28.848  0.00  0.00     0.084 A 
BRANCH  13  17
ATOM     17  O   UNL d   1      58.367  -4.204  28.455  0.00  0.00    -0.297 OA
ATOM     18  C   UNL d   1      58.636  -4.976  28.513  0.00  0.00     0.185 C 
ENDBRANCH  13  17
BRANCH  15  19
ATOM     19  O   UNL d   1      60.962  -3.279  29.096  0.00  0.00    -0.312 OA
ATOM     20  C   UNL d   1      61.128  -3.747  29.754  0.00  0.00     0.183 C 
ENDBRANCH  15  19
ENDBRANCH  10  11
ENDBRANCH   7  10
ENDBRANCH   1   7
BRANCH   4  21
ATOM     21  N   UNL d   1      57.505   0.682  31.935  0.00  0.00    -0.217 NA
BRANCH  21  22
ATOM     22  C   UNL d   1      57.176   0.267  32.543  0.00  0.00     0.223 C 
ATOM     23  S   UNL d   1      57.645  -0.250  33.001  0.00  0.00    -0.037 SA
BRANCH  22  24
ATOM     24  N   UNL d   1      56.383   0.354  32.708  0.00  0.00    -0.183 NA
ATOM     25  C   UNL d   1      56.122   0.470  33.475  0.00  0.00     0.257 C 
ATOM     26  O   UNL d   1      56.689   0.499  34.101  0.00  0.00    -0.270 OA
BRANCH  25  27
ATOM     27  C   UNL d   1      55.319   0.559  33.643  0.00  0.00     0.073 C 
ATOM     28  C   UNL d   1      55.161   0.667  32.830  0.00  0.00     0.009 C 
ATOM     29  C   UNL d   1      55.476   0.451  34.453  0.00  0.00     0.009 C 
ATOM     30  C   UNL d   1      54.509   0.648  33.812  0.00  0.00     0.009 C 
ENDBRANCH  25  27
ENDBRANCH  22  24
ENDBRANCH  21  22
ENDBRANCH   4  21
TORSDOF 9
ENDMDL
MODEL 2
REMARK VINA RESULT:      -2.5      1.428      5.761
REMARK  9 active torsions:
REMARK  status: ('A' for Active; 'I' for Inactive)
REMARK    1  A    between atoms: N_2  and  S_1 
REMARK    2  A    between atoms: C_12  and  S_1 
REMARK    3  A    between atoms: C_4  and  N_2 
REMARK    4  A    between atoms: N_6  and  C_8 
REMARK       I    between atoms: C_9  and  N_6 
REMARK    5  A    between atoms: O_22  and  C_7 
REMARK    6  A    between atoms: C_8  and  N_15 
REMARK    7  A    between atoms: C_16  and  C_9 
REMARK    8  A    between atoms: O_23  and  C_10 
REMARK    9  A    between atoms: N_15  and  C_21 
ROOT
ATOM      1  C   UNL d   1      57.915   0.137  31.086  0.00  0.00     0.105 A 
ATOM      2  C   UNL d   1      58.462   0.600  30.712  0.00  0.00     0.015 A 
ATOM      3  C   UNL d   1      57.748  -0.617  30.805  0.00  0.00     0.015 A 
ATOM      4  C   UNL d   1      58.691  -0.441  29.761  0.00  0.00     0.084 A 
ATOM      5  C   UNL d   1      58.859   0.336  30.054  0.00  0.00     0.020 A 
ATOM      6  C   UNL d   1      58.136  -0.897  30.150  0.00  0.00     0.020 A 
ENDROOT
BRANCH   1   7
ATOM      7  S   UNL d   1      57.509   0.414  31.762  0.00  0.00     0.287 S 
ATOM      8  O   UNL d   1      58.146   0.143  32.237  0.00  0.00    -0.198 OA
ATOM      9  O   UNL d   1      56.891   0.675  31.288  0.00  0.00    -0.198 OA
BRANCH   7  10
ATOM     10  N   UNL d   1      57.124   0.682  32.449  0.00  0.00    -0.139 NA
BRANCH  10  11
ATOM     11  C   UNL d   1      56.580   0.207  32.857  0.00  0.00     0.182 A 
ATOM     12  N   UNL d   1      56.095   0.530  33.402  0.00  0.00    -0.185 NA
ATOM     13  C   UNL d   1      55.549   0.068  33.815  0.00  0.00     0.274 A 
ATOM     14  N   UNL d   1      55.500  -0.719  33.670  0.00  0.00    -0.181 NA
ATOM     15  C   UNL d   1      55.984  -1.077  33.117  0.00  0.00     0.185 A 
ATOM     16  C   UNL d   1      56.552  -0.581  32.691  0.00  0.00     0.084 A 
BRANCH  13  17
ATOM     17  O   UNL d   1      55.036   0.408  34.391  0.00  0.00    -0.297 OA
ATOM     18  C   UNL d   1      55.321   0.639  35.124  0.00  0.00     0.185 C 
ENDBRANCH  13  17
BRANCH  15  19
ATOM     19  O   UNL d   1      55.908  -1.890  32.992  0.00  0.00    -0.312 OA
ATOM     20  C   UNL d   1      55.199  -2.271  33.172  0.00  0.00     0.183 C 
ENDBRANCH  15  19
ENDBRANCH  10  11
ENDBRANCH   7  10
ENDBRANCH   1   7
BRANCH   4  21
ATOM     21  N   UNL d   1      59.075  -0.745  29.094  0.00  0.00    -0.217 NA
BRANCH  21  22
ATOM     22  C   UNL d   1      59.803  -1.084  29.172  0.00  0.00     0.223 C 
ATOM     23  S   UNL d   1      60.492  -0.616  29.124  0.00  0.00    -0.037 SA
BRANCH  22  24
ATOM     24  N   UNL d   1      59.862  -1.887  29.299  0.00  0.00    -0.183 NA
ATOM     25  C   UNL d   1      60.502  -2.313  29.018  0.00  0.00     0.257 C 
ATOM     26  O   UNL d   1      61.107  -1.907  28.589  0.00  0.00    -0.270 OA
BRANCH  25  27
ATOM     27  C   UNL d   1      60.562  -3.125  29.146  0.00  0.00     0.073 C 
ATOM     28  C   UNL d   1      59.990  -3.261  28.553  0.00  0.00     0.009 C 
ATOM     29  C   UNL d   1      61.132  -2.990  29.737  0.00  0.00     0.009 C 
ATOM     30  C   UNL d   1      60.623  -3.945  29.275  0.00  0.00     0.009 C 
ENDBRANCH  25  27
ENDBRANCH  22  24
ENDBRANCH  21  22
ENDBRANCH   4  21
TORSDOF 9
ENDMDL
MODEL 3
REMARK VINA RESULT:      -1.7      1.163      1.934
REMARK  9 active torsions:
REMARK  status: ('A' for Active; 'I' for Inactive)
REMARK    1  A    between atoms: N_2  and  S_1 
REMARK    2  A    between atoms: C_12  and  S_1 
REMARK    3  A    between atoms: C_4  and  N_2 
REMARK    4  A    between atoms: N_6  and  C_8 
REMARK       I    between atoms: C_9  and  N_6 
REMARK    5  A    between atoms: O_22  and  C_7 
REMARK    6  A    between atoms: C_8  and  N_15 
REMARK    7  A    between atoms: C_16  and  C_9 
REMARK    8  A    between atoms: O_23  and  C_10 
REMARK    9  A    between atoms: N_15  and  C_21 
ROOT
ATOM      1  C   UNL d   1      57.835  -0.342  30.678  0.00  0.00     0.105 A 
ATOM      2  C   UNL d   1      57.265  -0.698  31.129  0.00  0.00     0.015 A 
ATOM      3  C   UNL d   1      58.199   0.346  30.938  0.00  0.00     0.015 A 
ATOM      4  C   UNL d   1      57.411   0.322  32.117  0.00  0.00     0.084 A 
ATOM      5  C   UNL d   1      57.038  -0.388  31.844  0.00  0.00     0.020 A 
ATOM      6  C   UNL d   1      57.985   0.671  31.651  0.00  0.00     0.020 A 
ENDROOT
BRANCH   1   7
ATOM      7  S   UNL d   1      58.064  -0.666  29.943  0.00  0.00     0.287 S 
ATOM      8  O   UNL d   1      57.760   0.018  29.563  0.00  0.00    -0.198 OA
ATOM      9  O   UNL d   1      58.358  -1.332  30.324  0.00  0.00    -0.198 OA
BRANCH   7  10
ATOM     10  N   UNL d   1      58.282  -0.969  29.199  0.00  0.00    -0.139 NA
BRANCH  10  11
ATOM     11  C   UNL d   1      58.999  -1.372  29.087  0.00  0.00     0.182 A 
ATOM     12  N   UNL d   1      59.681  -0.964  29.020  0.00  0.00    -0.185 NA
ATOM     13  C   UNL d   1      60.402  -1.354  28.908  0.00  0.00     0.274 A 
ATOM     14  N   UNL d   1      60.421  -2.154  28.864  0.00  0.00    -0.181 NA
ATOM     15  C   UNL d   1      59.737  -2.597  28.929  0.00  0.00     0.185 A 
ATOM     16  C   UNL d   1      58.989  -2.176  29.047  0.00  0.00     0.084 A 
BRANCH  13  17
ATOM     17  O   UNL d   1      61.124  -0.925  28.838  0.00  0.00    -0.297 OA
ATOM     18  C   UNL d   1      61.132  -0.106  28.875  0.00  0.00     0.185 C 
ENDBRANCH  13  17
BRANCH  15  19
ATOM     19  O   UNL d   1      59.793  -3.420  28.880  0.00  0.00    -0.312 OA
ATOM     20  C   UNL d   1      60.307  -3.829  29.377  0.00  0.00     0.183 C 
ENDBRANCH  15  19
ENDBRANCH  10  11
ENDBRANCH   7  10
ENDBRANCH   1   7
BRANCH   4  21
ATOM     21  N   UNL d   1      57.207   0.669  32.841  0.00  0.00    -0.217 NA
BRANCH  21  22
ATOM     22  C   UNL d   1      56.465   0.563  33.139  0.00  0.00     0.223 C 
ATOM     23  S   UNL d   1      55.810   0.506  32.626  0.00  0.00    -0.037 SA
BRANCH  22  24
ATOM     24  N   UNL d   1      56.359   0.510  33.946  0.00  0.00    -0.183 NA
ATOM     25  C   UNL d   1      55.613   0.567  34.277  0.00  0.00     0.257 C 
ATOM     26  O   UNL d   1      54.947   0.681  33.770  0.00  0.00    -0.270 OA
BRANCH  25  27
ATOM     27  C   UNL d   1      55.506   0.514  35.094  0.00  0.00     0.073 C 
ATOM     28  C   UNL d   1      54.696   0.348  34.976  0.00  0.00     0.009 C 
ATOM     29  C   UNL d   1      56.313   0.680  35.211  0.00  0.00     0.009 C 
ATOM     30  C   UNL d   1      55.397   0.461  35.917  0.00  0.00     0.009 C 
ENDBRANCH  25  27
ENDBRANCH  22  24
ENDBRANCH  21  22
ENDBRANCH   4  21
TORSDOF 9
ENDMDL
MODEL 4
REMARK VINA RESULT:       0.0      1.116      1.587
REMARK  9 active torsions:
REMARK  status: ('A' for Active; 'I' for Inactive)
REMARK    1  A    between atoms: N_2  and  S_1 
REMARK    2  A    between atoms: C_12  and  S_1 
REMARK    3  A    between atoms: C_4  and  N_2 
REMARK    4  A    between atoms: N_6  and  C_8 
REMARK       I    between atoms: C_9  and  N_6 
REMARK    5  A    between atoms: O_22  and  C_7 
REMARK    6  A    between atoms: C_8  and  N_15 
REMARK    7  A    between atoms: C_16  and  C_9 
REMARK    8  A    between atoms: O_23  and  C_10 
REMARK    9  A    between atoms: N_15  and  C_21 
ROOT
ATOM      1  C   UNL d   1      57.483  -0.576  30.924  0.00  0.00     0.105 A 
ATOM      2  C   UNL d   1      57.806   0.153  31.056  0.00  0.00     0.015 A 
ATOM      3  C   UNL d   1      56.950  -0.897  31.460  0.00  0.00     0.015 A 
ATOM      4  C   UNL d   1      57.066   0.258  32.273  0.00  0.00     0.084 A 
ATOM      5  C   UNL d   1      57.616   0.585  31.717  0.00  0.00     0.020 A 
ATOM      6  C   UNL d   1      56.748  -0.480  32.125  0.00  0.00     0.020 A 
ENDROOT
BRANCH   1   7
ATOM      7  S   UNL d   1      57.683  -1.016  30.242  0.00  0.00     0.287 S 
ATOM      8  O   UNL d   1      57.873  -0.297  29.851  0.00  0.00    -0.198 OA
ATOM      9  O   UNL d   1      57.495  -1.714  30.632  0.00  0.00    -0.198 OA
BRANCH   7  10
ATOM     10  N   UNL d   1      57.888  -1.432  29.551  0.00  0.00    -0.139 NA
BRANCH  10  11
ATOM     11  C   UNL d   1      58.665  -1.687  29.411  0.00  0.00     0.182 A 
ATOM     12  N   UNL d   1      58.824  -2.465  29.334  0.00  0.00    -0.185 NA
ATOM     13  C   UNL d   1      59.594  -2.732  29.194  0.00  0.00     0.274 A 
ATOM     14  N   UNL d   1      60.194  -2.205  29.133  0.00  0.00    -0.181 NA
ATOM     15  C   UNL d   1      60.061  -1.402  29.207  0.00  0.00     0.185 A 
ATOM     16  C   UNL d   1      59.249  -1.136  29.354  0.00  0.00     0.084 A 
BRANCH  13  17
ATOM     17  O   UNL d   1      59.763  -3.553  29.113  0.00  0.00    -0.297 OA
ATOM     18  C   UNL d   1      60.531  -3.816  29.002  0.00  0.00     0.185 C 
ENDBRANCH  13  17
BRANCH  15  19
ATOM     19  O   UNL d   1      60.703  -0.886  29.139  0.00  0.00    -0.312 OA
ATOM     20  C   UNL d   1      60.764  -0.235  29.641  0.00  0.00     0.183 C 
ENDBRANCH  15  19
ENDBRANCH  10  11
ENDBRANCH   7  10
ENDBRANCH   1   7
BRANCH   4  21
ATOM     21  N   UNL d   1      56.847   0.668  32.958  0.00  0.00    -0.217 NA
BRANCH  21  22
ATOM     22  C   UNL d   1      56.428   0.288  33.533  0.00  0.00     0.223 C 
ATOM     23  S   UNL d   1      56.818  -0.203  34.083  0.00  0.00    -0.037 SA
BRANCH  22  24
ATOM     24  N   UNL d   1      55.620   0.387  33.575  0.00  0.00    -0.183 NA
ATOM     25  C   UNL d   1      55.203   0.179  34.247  0.00  0.00     0.257 C 
ATOM     26  O   UNL d   1      55.623  -0.143  34.906  0.00  0.00    -0.270 OA
BRANCH  25  27
ATOM     27  C   UNL d   1      54.385   0.279  34.289  0.00  0.00     0.073 C 
ATOM     28  C   UNL d   1      54.471   0.679  35.017  0.00  0.00     0.009 C 
ATOM     29  C   UNL d   1      54.299  -0.120  33.564  0.00  0.00     0.009 C 
ATOM     30  C   UNL d   1      53.560   0.380  34.331  0.00  0.00     0.009 C 
ENDBRANCH  25  27
ENDBRANCH  22  24
ENDBRANCH  21  22
ENDBRANCH   4  21
TORSDOF 9
ENDMDL
MODEL 5
REMARK VINA RESULT:       0.0      7.867      9.746
REMARK  9 active torsions:
REMARK  status: ('A' for Active; 'I' for Inactive)
REMARK    1  A    between atoms: N_2  and  S_1 
REMARK    2  A    between atoms: C_12  and  S_1 
REMARK    3  A    between atoms: C_4  and  N_2 
REMARK    4  A    between atoms: N_6  and  C_8 
REMARK       I    between atoms: C_9  and  N_6 
REMARK    5  A    between atoms: O_22  and  C_7 
REMARK    6  A    between atoms: C_8  and  N_15 
REMARK    7  A    between atoms: C_16  and  C_9 
REMARK    8  A    between atoms: O_23  and  C_10 
REMARK    9  A    between atoms: N_15  and  C_21 
ROOT
ATOM      1  C   UNL d   1      60.594  -9.250  32.947  0.00  0.00     0.105 A 
ATOM      2  C   UNL d   1      61.131  -9.561  32.429  0.00  0.00     0.015 A 
ATOM      3  C   UNL d   1      59.817  -9.125  32.713  0.00  0.00     0.015 A 
ATOM      4  C   UNL d   1      60.120  -9.630  31.423  0.00  0.00     0.084 A 
ATOM      5  C   UNL d   1      60.921  -9.757  31.669  0.00  0.00     0.020 A 
ATOM      6  C   UNL d   1      59.588  -9.315  31.958  0.00  0.00     0.020 A 
ENDROOT
BRANCH   1   7
ATOM      7  S   UNL d   1      60.818  -9.051  33.727  0.00  0.00     0.287 S 
ATOM      8  O   UNL d   1      60.554  -9.806  33.981  0.00  0.00    -0.198 OA
ATOM      9  O   UNL d   1      61.073  -8.314  33.469  0.00  0.00    -0.198 OA
BRANCH   7  10
ATOM     10  N   UNL d   1      61.032  -8.875  34.512  0.00  0.00    -0.139 NA
BRANCH  10  11
ATOM     11  C   UNL d   1      60.499  -8.521  35.040  0.00  0.00     0.182 A 
ATOM     12  N   UNL d   1      60.670  -7.815  35.369  0.00  0.00    -0.185 NA
ATOM     13  C   UNL d   1      60.147  -7.453  35.897  0.00  0.00     0.274 A 
ATOM     14  N   UNL d   1      59.456  -7.812  36.085  0.00  0.00    -0.181 NA
ATOM     15  C   UNL d   1      59.255  -8.535  35.763  0.00  0.00     0.185 A 
ATOM     16  C   UNL d   1      59.812  -8.905  35.211  0.00  0.00     0.084 A 
BRANCH  13  17
ATOM     17  O   UNL d   1      60.326  -6.707  36.246  0.00  0.00    -0.297 OA
ATOM     18  C   UNL d   1      60.774  -6.151  35.844  0.00  0.00     0.185 C 
ENDBRANCH  13  17
BRANCH  15  19
ATOM     19  O   UNL d   1      58.534  -8.878  35.978  0.00  0.00    -0.312 OA
ATOM     20  C   UNL d   1      58.521  -9.624  36.330  0.00  0.00     0.183 C 
ENDBRANCH  15  19
ENDBRANCH  10  11
ENDBRANCH   7  10
ENDBRANCH   1   7
BRANCH   4  21
ATOM     21  N   UNL d   1      59.866  -9.816  30.658  0.00  0.00    -0.217 NA
BRANCH  21  22
ATOM     22  C   UNL d   1      59.557  -9.239  30.188  0.00  0.00     0.223 C 
ATOM     23  S   UNL d   1      60.062  -8.735  29.753  0.00  0.00    -0.037 SA
BRANCH  22  24
ATOM     24  N   UNL d   1      58.749  -9.148  30.139  0.00  0.00    -0.183 NA
ATOM     25  C   UNL d   1      58.343  -9.337  29.454  0.00  0.00     0.257 C 
ATOM     26  O   UNL d   1      58.776  -9.630  28.790  0.00  0.00    -0.270 OA
BRANCH  25  27
ATOM     27  C   UNL d   1      57.525  -9.245  29.404  0.00  0.00     0.073 C 
ATOM     28  C   UNL d   1      57.624  -8.688  28.791  0.00  0.00     0.009 C 
ATOM     29  C   UNL d   1      57.426  -9.801  30.016  0.00  0.00     0.009 C 
ATOM     30  C   UNL d   1      56.699  -9.153  29.355  0.00  0.00     0.009 C 
ENDBRANCH  25  27
ENDBRANCH  22  24
ENDBRANCH  21  22
ENDBRANCH   4  21
TORSDOF 9
ENDMDL
