MODEL 1
REMARK VINA RESULT:      19.0      0.000      0.000
REMARK  6 active torsions:
REMARK  status: ('A' for Active; 'I' for Inactive)
REMARK    1  A    between atoms: C_6  and  C_1 
REMARK    2  A    between atoms: N_7  and  C_2 
REMARK    3  A    between atoms: C_8  and  N_5 
REMARK    4  A    between atoms: O_13  and  C_6 
REMARK    5  A    between atoms: C_18  and  O_13 
REMARK    6  A    between atoms: O_17  and  C_14 
ROOT
ATOM      1  C   UNL d   1      45.319 -13.997  44.487  0.00  0.00     0.112 A 
ATOM      2  C   UNL d   1      44.657 -15.144  44.719  0.00  0.00     0.172 A 
ATOM      3  C   UNL d   1      45.809 -14.628  44.281  0.00  0.00     0.077 A 
ATOM      4  S   UNL d   1      44.605 -14.314  44.758  0.00  0.00    -0.044 SA
ATOM      5  N   UNL d   1      45.399 -15.336  44.424  0.00  0.00    -0.287 N 
ATOM      6  C   UNL d   1      46.581 -14.556  43.981  0.00  0.00     0.020 C 
ENDROOT
BRANCH   5   7
ATOM      7  C   UNL d   1      45.657 -16.112  44.304  0.00  0.00     0.066 A 
ATOM      8  C   UNL d   1      45.820 -16.591  44.955  0.00  0.00     0.020 A 
ATOM      9  C   UNL d   1      46.078 -17.364  44.833  0.00  0.00     0.026 A 
ATOM     10  C   UNL d   1      46.171 -17.655  44.072  0.00  0.00     0.094 A 
ATOM     11  C   UNL d   1      46.007 -17.171  43.423  0.00  0.00     0.026 A 
ATOM     12  C   UNL d   1      45.749 -16.398  43.546  0.00  0.00     0.020 A 
BRANCH  10  13
ATOM     13  O   UNL d   1      46.431 -18.436  43.949  0.00  0.00    -0.328 OA
ATOM     14  C   UNL d   1      46.319 -18.795  43.214  0.00  0.00     0.181 C 
ENDBRANCH  10  13
ENDBRANCH   5   7
BRANCH   2  15
ATOM     15  N   UNL d   1      44.064 -15.676  44.937  0.00  0.00    -0.277 NA
ATOM     16  H   UNL d   1      44.262 -16.444  45.160  0.00  0.00     0.189 HD
ENDBRANCH   2  15
BRANCH   1  17
ATOM     17  C   UNL d   1      45.507 -13.194  44.433  0.00  0.00     0.308 C 
ATOM     18  O   UNL d   1      46.061 -12.867  44.940  0.00  0.00    -0.258 OA
BRANCH  17  19
ATOM     19  O   UNL d   1      45.134 -12.721  43.862  0.00  0.00    -0.271 OA
BRANCH  19  20
ATOM     20  C   UNL d   1      45.553 -12.134  43.466  0.00  0.00     0.126 C 
ATOM     21  C   UNL d   1      45.529 -12.089  42.642  0.00  0.00     0.029 C 
ENDBRANCH  19  20
ENDBRANCH  17  19
ENDBRANCH   1  17
TORSDOF 6
ENDMDL
MODEL 2
REMARK VINA RESULT:      21.9      1.048      4.091
REMARK  6 active torsions:
REMARK  status: ('A' for Active; 'I' for Inactive)
REMARK    1  A    between atoms: C_6  and  C_1 
REMARK    2  A    between atoms: N_7  and  C_2 
REMARK    3  A    between atoms: C_8  and  N_5 
REMARK    4  A    between atoms: O_13  and  C_6 
REMARK    5  A    between atoms: C_18  and  O_13 
REMARK    6  A    between atoms: O_17  and  C_14 
ROOT
ATOM      1  C   UNL d   1      45.660 -16.997  43.908  0.00  0.00     0.112 A 
ATOM      2  C   UNL d   1      44.801 -16.164  44.521  0.00  0.00     0.172 A 
ATOM      3  C   UNL d   1      45.945 -16.226  43.833  0.00  0.00     0.077 A 
ATOM      4  S   UNL d   1      44.952 -16.961  44.334  0.00  0.00    -0.044 SA
ATOM      5  N   UNL d   1      45.414 -15.712  44.212  0.00  0.00    -0.287 N 
ATOM      6  C   UNL d   1      46.647 -16.011  43.442  0.00  0.00     0.020 C 
ENDROOT
BRANCH   5   7
ATOM      7  C   UNL d   1      45.459 -14.891  44.286  0.00  0.00     0.066 A 
ATOM      8  C   UNL d   1      45.920 -14.561  44.884  0.00  0.00     0.020 A 
ATOM      9  C   UNL d   1      45.963 -13.741  44.955  0.00  0.00     0.026 A 
ATOM     10  C   UNL d   1      45.551 -13.258  44.436  0.00  0.00     0.094 A 
ATOM     11  C   UNL d   1      45.091 -13.593  43.839  0.00  0.00     0.026 A 
ATOM     12  C   UNL d   1      45.048 -14.412  43.768  0.00  0.00     0.020 A 
BRANCH  10  13
ATOM     13  O   UNL d   1      45.595 -12.429  44.509  0.00  0.00    -0.328 OA
ATOM     14  C   UNL d   1      46.278 -12.080  44.813  0.00  0.00     0.181 C 
ENDBRANCH  10  13
ENDBRANCH   5   7
BRANCH   2  15
ATOM     15  N   UNL d   1      44.150 -15.882  44.943  0.00  0.00    -0.277 NA
ATOM     16  H   UNL d   1      44.217 -15.198  45.396  0.00  0.00     0.189 HD
ENDBRANCH   2  15
BRANCH   1  17
ATOM     17  C   UNL d   1      46.017 -17.681  43.612  0.00  0.00     0.308 C 
ATOM     18  O   UNL d   1      46.522 -18.119  44.085  0.00  0.00    -0.258 OA
BRANCH  17  19
ATOM     19  O   UNL d   1      45.864 -17.922  42.832  0.00  0.00    -0.271 OA
BRANCH  19  20
ATOM     20  C   UNL d   1      45.963 -18.708  42.610  0.00  0.00     0.126 C 
ATOM     21  C   UNL d   1      46.192 -18.897  41.840  0.00  0.00     0.029 C 
ENDBRANCH  19  20
ENDBRANCH  17  19
ENDBRANCH   1  17
TORSDOF 6
ENDMDL
