MODEL 1
REMARK VINA RESULT:      24.2      0.000      0.000
REMARK  5 active torsions:
REMARK  status: ('A' for Active; 'I' for Inactive)
REMARK    1  A    between atoms: C_9  and  N_2 
REMARK    2  A    between atoms: C_8  and  O_11 
REMARK    3  A    between atoms: C_12  and  C_9 
REMARK    4  A    between atoms: O_11  and  C_15 
REMARK    5  A    between atoms: C_15  and  C_12 
ROOT
ATOM      1  C   UNL d   1      14.651  12.486  -1.738  0.00  0.00     0.087 C 
ENDROOT
BRANCH   1   2
ATOM      2  N   UNL d   1      14.881  13.070  -1.200  0.00  0.00    -0.251 N 
ATOM      3  C   UNL d   1      15.218  12.778  -0.500  0.00  0.00     0.378 A 
ATOM      4  O   UNL d   1      15.422  13.409  -0.014  0.00  0.00    -0.258 OA
ATOM      5  O   UNL d   1      15.329  11.975  -0.322  0.00  0.00    -0.237 OA
ATOM      6  C   UNL d   1      15.208  14.114  -0.421  0.00  0.00     0.121 A 
ATOM      7  C   UNL d   1      15.276  14.910  -0.215  0.00  0.00     0.026 A 
ATOM      8  C   UNL d   1      14.879  13.901  -1.143  0.00  0.00     0.092 A 
ATOM      9  C   UNL d   1      15.011  15.494  -0.740  0.00  0.00     0.002 A 
ATOM     10  C   UNL d   1      14.682  15.281  -1.461  0.00  0.00     0.002 A 
ATOM     11  C   UNL d   1      14.614  14.480  -1.668  0.00  0.00     0.020 A 
ENDBRANCH   1   2
BRANCH   1  12
ATOM     12  C   UNL d   1      13.953  12.569  -2.155  0.00  0.00     0.046 C 
BRANCH  12  13
ATOM     13  C   UNL d   1      13.845  12.149  -2.860  0.00  0.00     0.124 C 
BRANCH  13  14
ATOM     14  O   UNL d   1      13.132  12.216  -3.269  0.00  0.00    -0.304 OA
BRANCH  14  15
ATOM     15  C   UNL d   1      13.139  12.379  -4.083  0.00  0.00     0.111 A 
ATOM     16  C   UNL d   1      12.961  13.135  -4.356  0.00  0.00     0.080 A 
ATOM     17 CL   UNL d   1      12.774  13.739  -3.826  0.00  0.00    -0.080 Cl
ATOM     18  C   UNL d   1      12.968  13.294  -5.164  0.00  0.00     0.013 A 
ATOM     19  C   UNL d   1      13.152  12.701  -5.695  0.00  0.00     0.001 A 
ATOM     20  C   UNL d   1      13.333  11.938  -5.428  0.00  0.00     0.002 A 
ATOM     21  C   UNL d   1      13.325  11.780  -4.620  0.00  0.00     0.026 A 
ENDBRANCH  14  15
ENDBRANCH  13  14
ENDBRANCH  12  13
ENDBRANCH   1  12
TORSDOF 5
ENDMDL
MODEL 2
REMARK VINA RESULT:      26.6      1.764      4.040
REMARK  5 active torsions:
REMARK  status: ('A' for Active; 'I' for Inactive)
REMARK    1  A    between atoms: C_9  and  N_2 
REMARK    2  A    between atoms: C_8  and  O_11 
REMARK    3  A    between atoms: C_12  and  C_9 
REMARK    4  A    between atoms: O_11  and  C_15 
REMARK    5  A    between atoms: C_15  and  C_12 
ROOT
ATOM      1  C   UNL d   1      13.537  11.914  -3.813  0.00  0.00     0.087 C 
ENDROOT
BRANCH   1   2
ATOM      2  N   UNL d   1      13.326  12.626  -4.176  0.00  0.00    -0.251 N 
ATOM      3  C   UNL d   1      12.950  12.538  -4.910  0.00  0.00     0.378 A 
ATOM      4  O   UNL d   1      12.770  13.281  -5.213  0.00  0.00    -0.258 OA
ATOM      5  O   UNL d   1      12.784  11.813  -5.278  0.00  0.00    -0.237 OA
ATOM      6  C   UNL d   1      13.042  13.848  -4.653  0.00  0.00     0.121 A 
ATOM      7  C   UNL d   1      13.017  14.674  -4.651  0.00  0.00     0.026 A 
ATOM      8  C   UNL d   1      13.379  13.443  -4.024  0.00  0.00     0.092 A 
ATOM      9  C   UNL d   1      13.335  15.091  -4.009  0.00  0.00     0.002 A 
ATOM     10  C   UNL d   1      13.672  14.686  -3.380  0.00  0.00     0.002 A 
ATOM     11  C   UNL d   1      13.697  13.856  -3.383  0.00  0.00     0.020 A 
ENDBRANCH   1   2
BRANCH   1  12
ATOM     12  C   UNL d   1      13.429  11.821  -3.008  0.00  0.00     0.046 C 
BRANCH  12  13
ATOM     13  C   UNL d   1      14.061  11.961  -2.492  0.00  0.00     0.124 C 
BRANCH  13  14
ATOM     14  O   UNL d   1      13.980  11.783  -1.690  0.00  0.00    -0.304 OA
BRANCH  14  15
ATOM     15  C   UNL d   1      14.434  12.193  -1.129  0.00  0.00     0.111 A 
ATOM     16  C   UNL d   1      14.070  12.693  -0.586  0.00  0.00     0.080 A 
ATOM     17 CL   UNL d   1      13.251  12.793  -0.591  0.00  0.00    -0.080 Cl
ATOM     18  C   UNL d   1      14.524  13.098  -0.030  0.00  0.00     0.013 A 
ATOM     19  C   UNL d   1      15.335  13.004  -0.019  0.00  0.00     0.001 A 
ATOM     20  C   UNL d   1      15.709  12.503  -0.563  0.00  0.00     0.002 A 
ATOM     21  C   UNL d   1      15.254  12.098  -1.118  0.00  0.00     0.026 A 
ENDBRANCH  14  15
ENDBRANCH  13  14
ENDBRANCH  12  13
ENDBRANCH   1  12
TORSDOF 5
ENDMDL
