MODEL 1
REMARK VINA RESULT:      36.7      0.000      0.000
REMARK  5 active torsions:
REMARK  status: ('A' for Active; 'I' for Inactive)
REMARK    1  A    between atoms: O_4  and  C_1 
REMARK    2  A    between atoms: C_9  and  C_2 
REMARK    3  A    between atoms: C_5  and  O_4 
REMARK    4  A    between atoms: C_12  and  C_5 
REMARK    5  A    between atoms: N_10  and  C_9 
ROOT
ATOM      1  C   UNL d   1      46.414 -18.176  43.296  0.00  0.00     0.122 A 
ATOM      2  C   UNL d   1      46.413 -18.184  42.471  0.00  0.00     0.043 A 
ATOM      3  C   UNL d   1      46.491 -18.882  43.714  0.00  0.00     0.105 A 
ATOM      4  C   UNL d   1      46.568 -19.595  43.309  0.00  0.00     0.030 A 
ATOM      5  C   UNL d   1      46.567 -19.595  42.489  0.00  0.00     0.059 A 
ATOM      6  C   UNL d   1      46.491 -18.897  42.066  0.00  0.00     0.015 A 
ATOM      7  N   UNL d   1      46.491 -18.870  44.532  0.00  0.00    -0.242 NA
ATOM      8 CL   UNL d   1      46.647 -20.330  42.100  0.00  0.00    -0.082 Cl
ATOM      9  C   UNL d   1      46.645 -20.290  43.725  0.00  0.00     0.004 A 
ATOM     10  C   UNL d   1      46.569 -19.577  44.950  0.00  0.00     0.099 A 
ATOM     11  C   UNL d   1      46.646 -20.290  44.545  0.00  0.00     0.021 A 
ENDROOT
BRANCH   1  12
ATOM     12  O   UNL d   1      46.344 -17.535  43.673  0.00  0.00    -0.271 OA
BRANCH  12  13
ATOM     13  C   UNL d   1      45.734 -17.074  44.261  0.00  0.00     0.300 C 
ATOM     14  O   UNL d   1      45.126 -17.683  44.779  0.00  0.00    -0.259 OA
BRANCH  13  15
ATOM     15  C   UNL d   1      45.730 -16.253  44.316  0.00  0.00     0.064 A 
ATOM     16  C   UNL d   1      45.165 -15.873  44.794  0.00  0.00     0.008 A 
ATOM     17  C   UNL d   1      45.163 -15.041  44.847  0.00  0.00     0.030 A 
ATOM     18  C   UNL d   1      45.724 -14.588  44.424  0.00  0.00     0.140 A 
ATOM     19  C   UNL d   1      46.285 -14.971  43.949  0.00  0.00     0.030 A 
ATOM     20  F   UNL d   1      45.712 -13.984  44.472  0.00  0.00    -0.204 F 
ATOM     21  C   UNL d   1      46.286 -15.803  43.896  0.00  0.00     0.008 A 
ENDBRANCH  13  15
ENDBRANCH  12  13
ENDBRANCH   1  12
BRANCH   2  22
ATOM     22  C   UNL d   1      46.341 -17.522  41.851  0.00  0.00     0.082 C 
BRANCH  22  23
ATOM     23  N   UNL d   1      46.012 -17.691  41.117  0.00  0.00    -0.299 N 
ATOM     24  C   UNL d   1      45.202 -17.762  41.043  0.00  0.00     0.107 A 
ATOM     25  C   UNL d   1      44.858 -17.932  40.311  0.00  0.00     0.142 A 
ATOM     26  O   UNL d   1      45.340 -18.028  39.659  0.00  0.00    -0.300 OA
ATOM     27  C   UNL d   1      46.162 -17.956  39.732  0.00  0.00     0.142 A 
ATOM     28  C   UNL d   1      46.488 -17.787  40.465  0.00  0.00     0.107 A 
ENDBRANCH  22  23
ENDBRANCH   2  22
TORSDOF 5
ENDMDL
