MODEL 1
REMARK VINA RESULT:       7.6      0.000      0.000
REMARK  3 active torsions:
REMARK  status: ('A' for Active; 'I' for Inactive)
REMARK    1  A    between atoms: C_8  and  C_2 
REMARK    2  A    between atoms: O_11  and  C_8 
REMARK    3  A    between atoms: C_12  and  O_11 
ROOT
ATOM      1  O   UNL d   1      46.381 -17.110  44.467  0.00  0.00    -0.302 OA
ENDROOT
BRANCH   1   2
ATOM      2  C   UNL d   1      45.648 -16.722  44.456  0.00  0.00     0.161 C 
BRANCH   2   3
ATOM      3  C   UNL d   1      45.619 -15.898  44.488  0.00  0.00     0.188 A 
ATOM      4  N   UNL d   1      46.217 -15.396  44.818  0.00  0.00    -0.224 NA
ATOM      5  C   UNL d   1      45.968 -14.632  44.736  0.00  0.00     0.101 A 
ATOM      6  C   UNL d   1      45.205 -14.644  44.351  0.00  0.00     0.101 A 
ATOM      7  C   UNL d   1      46.284 -13.886  44.938  0.00  0.00     0.021 A 
ATOM      8  C   UNL d   1      44.812 -13.937  44.193  0.00  0.00     0.021 A 
ATOM      9  N   UNL d   1      45.014 -15.415  44.211  0.00  0.00    -0.224 NA
ATOM     10  C   UNL d   1      45.154 -13.217  44.407  0.00  0.00     0.002 A 
ATOM     11  C   UNL d   1      45.891 -13.205  44.779  0.00  0.00     0.002 A 
ENDBRANCH   2   3
ENDBRANCH   1   2
BRANCH   1  12
ATOM     12  C   UNL d   1      46.422 -17.867  44.141  0.00  0.00     0.100 A 
ATOM     13  C   UNL d   1      46.470 -17.999  43.350  0.00  0.00     0.025 A 
ATOM     14  C   UNL d   1      46.510 -18.767  43.050  0.00  0.00     0.002 A 
ATOM     15  C   UNL d   1      46.560 -18.881  42.213  0.00  0.00     0.000 A 
ATOM     16  C   UNL d   1      46.501 -19.403  43.542  0.00  0.00     0.000 A 
ATOM     17  C   UNL d   1      46.600 -19.649  41.914  0.00  0.00     0.000 A 
ATOM     18  C   UNL d   1      46.590 -20.330  42.441  0.00  0.00     0.000 A 
ATOM     19  C   UNL d   1      46.540 -20.170  43.243  0.00  0.00     0.000 A 
ATOM     20  C   UNL d   1      46.450 -19.290  44.384  0.00  0.00     0.002 A 
ATOM     21  C   UNL d   1      46.410 -18.522  44.684  0.00  0.00     0.025 A 
ENDBRANCH   1  12
TORSDOF 3
ENDMDL
MODEL 2
REMARK VINA RESULT:       9.8      1.052      5.056
REMARK  3 active torsions:
REMARK  status: ('A' for Active; 'I' for Inactive)
REMARK    1  A    between atoms: C_8  and  C_2 
REMARK    2  A    between atoms: O_11  and  C_8 
REMARK    3  A    between atoms: C_12  and  O_11 
ROOT
ATOM      1  O   UNL d   1      45.549 -16.367  44.133  0.00  0.00    -0.302 OA
ENDROOT
BRANCH   1   2
ATOM      2  C   UNL d   1      46.145 -16.870  44.414  0.00  0.00     0.161 C 
BRANCH   2   3
ATOM      3  C   UNL d   1      46.239 -17.620  44.084  0.00  0.00     0.188 A 
ATOM      4  N   UNL d   1      46.233 -18.352  44.512  0.00  0.00    -0.224 NA
ATOM      5  C   UNL d   1      46.343 -18.949  43.979  0.00  0.00     0.101 A 
ATOM      6  C   UNL d   1      46.421 -18.598  43.204  0.00  0.00     0.101 A 
ATOM      7  C   UNL d   1      46.393 -19.781  44.030  0.00  0.00     0.021 A 
ATOM      8  C   UNL d   1      46.540 -19.078  42.544  0.00  0.00     0.021 A 
ATOM      9  N   UNL d   1      46.355 -17.798  43.290  0.00  0.00    -0.224 NA
ATOM     10  C   UNL d   1      46.584 -19.897  42.631  0.00  0.00     0.002 A 
ATOM     11  C   UNL d   1      46.509 -20.237  43.381  0.00  0.00     0.002 A 
ENDBRANCH   2   3
ENDBRANCH   1   2
BRANCH   1  12
ATOM     12  C   UNL d   1      45.637 -15.556  44.262  0.00  0.00     0.100 A 
ATOM     13  C   UNL d   1      45.179 -15.005  43.898  0.00  0.00     0.025 A 
ATOM     14  C   UNL d   1      45.288 -14.200  44.046  0.00  0.00     0.002 A 
ATOM     15  C   UNL d   1      44.794 -13.638  43.651  0.00  0.00     0.000 A 
ATOM     16  C   UNL d   1      45.854 -13.947  44.557  0.00  0.00     0.000 A 
ATOM     17  C   UNL d   1      44.903 -12.833  43.799  0.00  0.00     0.000 A 
ATOM     18  C   UNL d   1      45.509 -12.563  44.346  0.00  0.00     0.000 A 
ATOM     19  C   UNL d   1      45.963 -13.143  44.705  0.00  0.00     0.000 A 
ATOM     20  C   UNL d   1      46.352 -14.511  44.955  0.00  0.00     0.002 A 
ATOM     21  C   UNL d   1      46.243 -15.316  44.807  0.00  0.00     0.025 A 
ENDBRANCH   1  12
TORSDOF 3
ENDMDL
