MODEL 1
REMARK VINA RESULT:      42.9      0.000      0.000
REMARK  5 active torsions:
REMARK  status: ('A' for Active; 'I' for Inactive)
REMARK    1  A    between atoms: C_2  and  C_1 
REMARK    2  A    between atoms: C_3  and  C_2 
REMARK    3  A    between atoms: C_6  and  C_3 
REMARK    4  A    between atoms: O_15  and  C_12 
REMARK    5  A    between atoms: O_14  and  C_13 
ROOT
ATOM      1  C   UNL d   1      13.784  12.800  -3.364  0.00  0.00     0.143 C 
ATOM      2  C   UNL d   1      14.030  12.291  -3.986  0.00  0.00     0.107 C 
ATOM      3  N   UNL d   1      14.279  11.780  -4.594  0.00  0.00    -0.191 NA
ENDROOT
BRANCH   1   4
ATOM      4  C   UNL d   1      14.002  12.634  -2.574  0.00  0.00     0.175 A 
ATOM      5  N   UNL d   1      14.658  12.883  -2.158  0.00  0.00    -0.225 NA
ATOM      6  C   UNL d   1      14.636  12.593  -1.428  0.00  0.00     0.101 A 
ATOM      7  C   UNL d   1      15.130  12.662  -0.803  0.00  0.00     0.021 A 
ATOM      8  C   UNL d   1      13.955  12.136  -1.340  0.00  0.00     0.101 A 
ATOM      9  C   UNL d   1      14.971  12.285  -0.073  0.00  0.00     0.002 A 
ATOM     10  C   UNL d   1      14.293  11.846  -0.023  0.00  0.00     0.002 A 
ATOM     11  C   UNL d   1      13.800  11.780  -0.656  0.00  0.00     0.021 A 
ATOM     12  N   UNL d   1      13.560  12.171  -2.076  0.00  0.00    -0.225 NA
ENDBRANCH   1   4
BRANCH   1  13
ATOM     13  C   UNL d   1      13.331  13.452  -3.568  0.00  0.00     0.212 C 
ATOM     14  O   UNL d   1      12.780  13.749  -3.024  0.00  0.00    -0.286 OA
BRANCH  13  15
ATOM     15  C   UNL d   1      13.409  13.818  -4.299  0.00  0.00     0.084 A 
ATOM     16  C   UNL d   1      13.767  14.554  -4.338  0.00  0.00     0.099 A 
ATOM     17  C   UNL d   1      13.852  14.938  -5.084  0.00  0.00     0.024 A 
ATOM     18  C   UNL d   1      13.566  14.553  -5.761  0.00  0.00     0.004 A 
ATOM     19  C   UNL d   1      13.204  13.806  -5.711  0.00  0.00     0.024 A 
ATOM     20  C   UNL d   1      13.133  13.447  -4.958  0.00  0.00     0.099 A 
BRANCH  16  21
ATOM     21  O   UNL d   1      14.059  14.957  -3.675  0.00  0.00    -0.328 OA
ATOM     22  C   UNL d   1      14.317  15.748  -3.753  0.00  0.00     0.181 C 
ENDBRANCH  16  21
BRANCH  20  23
ATOM     23  O   UNL d   1      12.772  12.701  -4.905  0.00  0.00    -0.328 OA
ATOM     24  C   UNL d   1      12.797  12.169  -5.532  0.00  0.00     0.181 C 
ENDBRANCH  20  23
ENDBRANCH  13  15
ENDBRANCH   1  13
TORSDOF 5
ENDMDL
