MODEL 1
REMARK VINA RESULT:      93.6      0.000      0.000
REMARK  4 active torsions:
REMARK  status: ('A' for Active; 'I' for Inactive)
REMARK    1  A    between atoms: N_10  and  C_3 
REMARK    2  A    between atoms: C_13  and  C_5 
REMARK    3  A    between atoms: C_19  and  C_9 
REMARK    4  A    between atoms: C_12  and  N_11 
ROOT
ATOM      1  N   UNL d   1     -50.696  26.547  33.794  0.00  0.00    -0.196 N 
ATOM      2  C   UNL d   1     -51.041  25.818  33.685  0.00  0.00     0.167 A 
ATOM      3  C   UNL d   1     -49.899  26.596  33.848  0.00  0.00     0.152 A 
ATOM      4  N   UNL d   1     -51.956  27.144  33.790  0.00  0.00    -0.163 NA
ATOM      5  C   UNL d   1     -51.828  25.759  33.631  0.00  0.00     0.055 A 
ATOM      6  N   UNL d   1     -50.576  25.166  33.635  0.00  0.00    -0.227 NA
ATOM      7  C   UNL d   1     -49.428  25.918  33.795  0.00  0.00     0.057 A 
ATOM      8  C   UNL d   1     -52.301  26.415  33.681  0.00  0.00     0.104 A 
ATOM      9  C   UNL d   1     -49.784  25.223  33.690  0.00  0.00     0.086 A 
ATOM     10  C   UNL d   1     -53.084  26.354  33.626  0.00  0.00     0.023 C 
ENDROOT
BRANCH   3  11
ATOM     11  N   UNL d   1     -49.541  27.342  33.959  0.00  0.00    -0.286 N 
ATOM     12  C   UNL d   1     -49.108  27.496  34.650  0.00  0.00     0.101 A 
ATOM     13  C   UNL d   1     -48.749  28.245  34.762  0.00  0.00     0.101 A 
ATOM     14  N   UNL d   1     -48.826  28.835  34.182  0.00  0.00    -0.286 N 
ATOM     15  C   UNL d   1     -49.260  28.683  33.488  0.00  0.00     0.101 A 
ATOM     16  C   UNL d   1     -49.620  27.938  33.372  0.00  0.00     0.101 A 
BRANCH  14  17
ATOM     17  C   UNL d   1     -48.468  29.581  34.294  0.00  0.00     0.148 A 
ATOM     18  N   UNL d   1     -48.726  30.237  33.842  0.00  0.00    -0.227 NA
ATOM     19  C   UNL d   1     -48.368  30.978  33.956  0.00  0.00     0.101 A 
ATOM     20  C   UNL d   1     -47.754  31.073  34.517  0.00  0.00     0.021 A 
ATOM     21  C   UNL d   1     -47.501  30.420  34.963  0.00  0.00     0.005 A 
ATOM     22  C   UNL d   1     -47.860  29.671  34.851  0.00  0.00     0.037 A 
ENDBRANCH  14  17
ENDBRANCH   3  11
BRANCH   9  23
ATOM     23  C   UNL d   1     -49.301  24.533  33.636  0.00  0.00     0.018 C 
ATOM     24  C   UNL d   1     -49.590  23.791  33.907  0.00  0.00     0.002 C 
ATOM     25  C   UNL d   1     -48.523  24.597  33.307  0.00  0.00     0.002 C 
ENDBRANCH   9  23
BRANCH   5  26
ATOM     26  C   UNL d   1     -52.177  25.023  33.521  0.00  0.00     0.004 A 
ATOM     27  C   UNL d   1     -51.720  24.376  33.421  0.00  0.00     0.000 A 
ATOM     28  C   UNL d   1     -52.050  23.660  33.315  0.00  0.00     0.000 A 
ATOM     29  C   UNL d   1     -52.856  23.588  33.307  0.00  0.00     0.000 A 
ATOM     30  C   UNL d   1     -53.318  24.231  33.407  0.00  0.00     0.000 A 
ATOM     31  C   UNL d   1     -52.975  24.956  33.515  0.00  0.00     0.000 A 
ENDBRANCH   5  26
TORSDOF 4
ENDMDL
MODEL 2
REMARK VINA RESULT:      96.3      1.111      6.094
REMARK  4 active torsions:
REMARK  status: ('A' for Active; 'I' for Inactive)
REMARK    1  A    between atoms: N_10  and  C_3 
REMARK    2  A    between atoms: C_13  and  C_5 
REMARK    3  A    between atoms: C_19  and  C_9 
REMARK    4  A    between atoms: C_12  and  N_11 
ROOT
ATOM      1  N   UNL d   1     -48.726  29.844  34.251  0.00  0.00    -0.196 N 
ATOM      2  C   UNL d   1     -48.229  30.458  34.451  0.00  0.00     0.167 A 
ATOM      3  C   UNL d   1     -48.571  29.111  34.533  0.00  0.00     0.152 A 
ATOM      4  N   UNL d   1     -49.506  30.721  33.499  0.00  0.00    -0.163 NA
ATOM      5  C   UNL d   1     -48.373  31.186  34.178  0.00  0.00     0.055 A 
ATOM      6  N   UNL d   1     -47.598  30.315  34.926  0.00  0.00    -0.227 NA
ATOM      7  C   UNL d   1     -47.917  28.974  35.022  0.00  0.00     0.057 A 
ATOM      8  C   UNL d   1     -49.010  31.334  33.699  0.00  0.00     0.104 A 
ATOM      9  C   UNL d   1     -47.451  29.584  35.202  0.00  0.00     0.086 A 
ATOM     10  C   UNL d   1     -49.151  32.060  33.427  0.00  0.00     0.023 C 
ENDROOT
BRANCH   3  11
ATOM     11  N   UNL d   1     -49.077  28.479  34.330  0.00  0.00    -0.286 N 
ATOM     12  C   UNL d   1     -49.160  27.833  34.843  0.00  0.00     0.101 A 
ATOM     13  C   UNL d   1     -49.669  27.198  34.640  0.00  0.00     0.101 A 
ATOM     14  N   UNL d   1     -50.091  27.215  33.924  0.00  0.00    -0.286 N 
ATOM     15  C   UNL d   1     -50.009  27.863  33.408  0.00  0.00     0.101 A 
ATOM     16  C   UNL d   1     -49.503  28.498  33.606  0.00  0.00     0.101 A 
BRANCH  14  17
ATOM     17  C   UNL d   1     -50.597  26.583  33.722  0.00  0.00     0.148 A 
ATOM     18  N   UNL d   1     -51.408  26.732  33.575  0.00  0.00    -0.227 NA
ATOM     19  C   UNL d   1     -51.910  26.101  33.373  0.00  0.00     0.101 A 
ATOM     20  C   UNL d   1     -51.611  25.320  33.317  0.00  0.00     0.021 A 
ATOM     21  C   UNL d   1     -50.807  25.177  33.464  0.00  0.00     0.005 A 
ATOM     22  C   UNL d   1     -50.297  25.812  33.667  0.00  0.00     0.037 A 
ENDBRANCH  14  17
ENDBRANCH   3  11
BRANCH   9  23
ATOM     23  C   UNL d   1     -46.785  29.440  35.701  0.00  0.00     0.018 C 
ATOM     24  C   UNL d   1     -46.068  29.144  35.375  0.00  0.00     0.002 C 
ATOM     25  C   UNL d   1     -46.847  29.597  36.531  0.00  0.00     0.002 C 
ENDBRANCH   9  23
BRANCH   5  26
ATOM     26  C   UNL d   1     -47.872  31.806  34.380  0.00  0.00     0.004 A 
ATOM     27  C   UNL d   1     -47.230  31.962  33.933  0.00  0.00     0.000 A 
ATOM     28  C   UNL d   1     -46.741  32.560  34.122  0.00  0.00     0.000 A 
ATOM     29  C   UNL d   1     -46.896  33.013  34.774  0.00  0.00     0.000 A 
ATOM     30  C   UNL d   1     -47.537  32.862  35.225  0.00  0.00     0.000 A 
ATOM     31  C   UNL d   1     -48.030  32.252  35.027  0.00  0.00     0.000 A 
ENDBRANCH   5  26
TORSDOF 4
ENDMDL
