MODEL 1
REMARK VINA RESULT:      -0.4      0.000      0.000
REMARK  4 active torsions:
REMARK  status: ('A' for Active; 'I' for Inactive)
REMARK    1  A    between atoms: C_2  and  N_1 
REMARK    2  A    between atoms: C_12  and  C_5 
REMARK    3  A    between atoms: O_20  and  C_12 
REMARK    4  A    between atoms: C_22  and  O_20 
ROOT
ATOM      1  N   UNL d   1     -42.095-122.883 -50.956  0.00  0.00    -0.237 N 
ATOM      2  C   UNL d   1     -41.788-123.303 -50.307  0.00  0.00     0.263 A 
ATOM      3  C   UNL d   1     -42.783-122.497 -50.718  0.00  0.00     0.263 A 
ATOM      4  C   UNL d   1     -42.913-122.672 -49.916  0.00  0.00     0.039 A 
ATOM      5  C   UNL d   1     -42.292-123.172 -49.666  0.00  0.00     0.039 A 
ATOM      6  C   UNL d   1     -43.507-122.446 -49.383  0.00  0.00     0.049 A 
ATOM      7  C   UNL d   1     -42.268-123.445 -48.880  0.00  0.00     0.049 A 
ATOM      8  C   UNL d   1     -43.483-122.719 -48.597  0.00  0.00    -0.026 A 
ATOM      9  C   UNL d   1     -42.865-123.218 -48.343  0.00  0.00    -0.026 A 
ATOM     10  C   UNL d   1     -42.847-122.853 -49.498  0.00  0.00     0.018 A 
ATOM     11  O   UNL d   1     -43.243-122.038 -51.173  0.00  0.00    -0.267 OA
ATOM     12  O   UNL d   1     -41.136-123.745 -50.299  0.00  0.00    -0.267 OA
ENDROOT
BRANCH   1  13
ATOM     13  C   UNL d   1     -41.770-122.862 -51.689  0.00  0.00     0.105 A 
ATOM     14  C   UNL d   1     -41.371-122.246 -52.000  0.00  0.00     0.086 A 
ATOM     15  C   UNL d   1     -41.145-122.451 -52.732  0.00  0.00     0.014 A 
ATOM     16  C   UNL d   1     -41.407-123.192 -52.866  0.00  0.00     0.031 A 
ATOM     17  S   UNL d   1     -41.791-123.444 -52.224  0.00  0.00    -0.069 SA
ATOM     18  C   UNL d   1     -41.259-123.546 -53.564  0.00  0.00     0.007 C 
BRANCH  14  19
ATOM     19  C   UNL d   1     -41.227-121.557 -51.643  0.00  0.00     0.302 C 
ATOM     20  O   UNL d   1     -41.149-121.524 -50.855  0.00  0.00    -0.259 OA
BRANCH  19  21
ATOM     21  O   UNL d   1     -41.159-120.889 -52.074  0.00  0.00    -0.271 OA
BRANCH  21  22
ATOM     22  C   UNL d   1     -41.166-120.226 -51.632  0.00  0.00     0.126 C 
ATOM     23  C   UNL d   1     -41.154-119.517 -51.986  0.00  0.00     0.029 C 
ENDBRANCH  21  22
ENDBRANCH  19  21
ENDBRANCH  14  19
ENDBRANCH   1  13
TORSDOF 4
ENDMDL
MODEL 2
REMARK VINA RESULT:       1.2      1.625      3.816
REMARK  4 active torsions:
REMARK  status: ('A' for Active; 'I' for Inactive)
REMARK    1  A    between atoms: C_2  and  N_1 
REMARK    2  A    between atoms: C_12  and  C_5 
REMARK    3  A    between atoms: O_20  and  C_12 
REMARK    4  A    between atoms: C_22  and  O_20 
ROOT
ATOM      1  N   UNL d   1     -41.817-122.638 -52.784  0.00  0.00    -0.237 N 
ATOM      2  C   UNL d   1     -41.515-121.948 -53.137  0.00  0.00     0.263 A 
ATOM      3  C   UNL d   1     -42.172-123.098 -53.368  0.00  0.00     0.263 A 
ATOM      4  C   UNL d   1     -42.095-122.700 -54.093  0.00  0.00     0.039 A 
ATOM      5  C   UNL d   1     -41.686-121.986 -53.944  0.00  0.00     0.039 A 
ATOM      6  C   UNL d   1     -42.339-122.887 -54.864  0.00  0.00     0.049 A 
ATOM      7  C   UNL d   1     -41.523-121.461 -54.569  0.00  0.00     0.049 A 
ATOM      8  C   UNL d   1     -42.176-122.362 -55.488  0.00  0.00    -0.026 A 
ATOM      9  C   UNL d   1     -41.769-121.649 -55.344  0.00  0.00    -0.026 A 
ATOM     10  C   UNL d   1     -41.977-122.373 -54.395  0.00  0.00     0.018 A 
ATOM     11  O   UNL d   1     -42.526-123.800 -53.260  0.00  0.00    -0.267 OA
ATOM     12  O   UNL d   1     -41.134-121.362 -52.773  0.00  0.00    -0.267 OA
ENDROOT
BRANCH   1  13
ATOM     13  C   UNL d   1     -41.767-122.819 -52.004  0.00  0.00     0.105 A 
ATOM     14  C   UNL d   1     -42.174-122.459 -51.420  0.00  0.00     0.086 A 
ATOM     15  C   UNL d   1     -41.965-122.803 -50.736  0.00  0.00     0.014 A 
ATOM     16  C   UNL d   1     -41.432-123.371 -50.905  0.00  0.00     0.031 A 
ATOM     17  S   UNL d   1     -41.311-123.380 -51.685  0.00  0.00    -0.069 SA
ATOM     18  C   UNL d   1     -41.123-123.812 -50.318  0.00  0.00     0.007 C 
BRANCH  14  19
ATOM     19  C   UNL d   1     -42.690-121.868 -51.507  0.00  0.00     0.302 C 
ATOM     20  O   UNL d   1     -42.434-121.131 -51.648  0.00  0.00    -0.259 OA
BRANCH  19  21
ATOM     21  O   UNL d   1     -43.473-122.010 -51.454  0.00  0.00    -0.271 OA
BRANCH  21  22
ATOM     22  C   UNL d   1     -43.832-121.590 -50.879  0.00  0.00     0.126 C 
ATOM     23  C   UNL d   1     -44.598-121.714 -50.721  0.00  0.00     0.029 C 
ENDBRANCH  21  22
ENDBRANCH  19  21
ENDBRANCH  14  19
ENDBRANCH   1  13
TORSDOF 4
ENDMDL
