MODEL 1
REMARK VINA RESULT:      -8.1      0.000      0.000
REMARK  3 active torsions:
REMARK  status: ('A' for Active; 'I' for Inactive)
REMARK    1  A    between atoms: N_3  and  C_1 
REMARK       I    between atoms: C_5  and  N_3 
REMARK    2  A    between atoms: C_4  and  C_5 
REMARK    3  A    between atoms: C_12  and  C_6 
ROOT
ATOM      1  C   UNL d   1      53.671  31.704  53.661  0.00  0.00     0.249 A 
ATOM      2  N   UNL d   1      53.241  32.333  53.985  0.00  0.00    -0.210 NA
ATOM      3  C   UNL d   1      53.648  33.040  53.807  0.00  0.00     0.091 A 
ATOM      4  S   UNL d   1      54.339  32.004  53.285  0.00  0.00    -0.033 SA
ATOM      5  C   UNL d   1      54.323  32.841  53.377  0.00  0.00     0.059 A 
ENDROOT
BRANCH   1   6
ATOM      6  N   UNL d   1      53.462  30.909  53.709  0.00  0.00    -0.337 NA
ATOM      7  C   UNL d   1      53.172  30.161  53.514  0.00  0.00     0.355 C 
ATOM      8  O   UNL d   1      52.837  30.025  52.766  0.00  0.00    -0.249 OA
BRANCH   7   9
ATOM      9  C   UNL d   1      53.212  29.541  54.066  0.00  0.00     0.197 A 
ATOM     10  O   UNL d   1      52.652  29.371  54.662  0.00  0.00    -0.205 OA
ATOM     11  N   UNL d   1      52.918  28.706  55.081  0.00  0.00    -0.124 NA
ATOM     12  C   UNL d   1      53.638  28.465  54.748  0.00  0.00     0.130 A 
ATOM     13  C   UNL d   1      53.826  28.976  54.121  0.00  0.00     0.056 A 
ENDBRANCH   7   9
ENDBRANCH   1   6
BRANCH   3  14
ATOM     14  C   UNL d   1      53.418  33.798  54.022  0.00  0.00     0.018 A 
ATOM     15  C   UNL d   1      52.986  34.259  53.502  0.00  0.00     0.002 A 
ATOM     16  C   UNL d   1      52.755  35.020  53.716  0.00  0.00     0.000 A 
ATOM     17  C   UNL d   1      52.961  35.313  54.458  0.00  0.00     0.000 A 
ATOM     18  C   UNL d   1      53.396  34.853  54.986  0.00  0.00     0.000 A 
ATOM     19  C   UNL d   1      52.731  36.078  54.679  0.00  0.00     0.000 C 
ATOM     20  C   UNL d   1      53.627  34.088  54.766  0.00  0.00     0.002 A 
ENDBRANCH   3  14
TORSDOF 3
ENDMDL
MODEL 2
REMARK VINA RESULT:      -7.8      2.291      4.770
REMARK  3 active torsions:
REMARK  status: ('A' for Active; 'I' for Inactive)
REMARK    1  A    between atoms: N_3  and  C_1 
REMARK       I    between atoms: C_5  and  N_3 
REMARK    2  A    between atoms: C_4  and  C_5 
REMARK    3  A    between atoms: C_12  and  C_6 
ROOT
ATOM      1  C   UNL d   1      52.861  32.835  53.210  0.00  0.00     0.249 A 
ATOM      2  N   UNL d   1      52.626  32.066  53.406  0.00  0.00    -0.210 NA
ATOM      3  C   UNL d   1      53.312  31.632  53.604  0.00  0.00     0.091 A 
ATOM      4  S   UNL d   1      53.679  32.891  53.280  0.00  0.00    -0.033 SA
ATOM      5  C   UNL d   1      53.960  32.136  53.527  0.00  0.00     0.059 A 
ENDROOT
BRANCH   1   6
ATOM      6  N   UNL d   1      52.355  33.444  52.981  0.00  0.00    -0.337 NA
ATOM      7  C   UNL d   1      52.058  34.196  52.815  0.00  0.00     0.355 C 
ATOM      8  O   UNL d   1      52.533  34.868  52.930  0.00  0.00    -0.249 OA
BRANCH   7   9
ATOM      9  C   UNL d   1      51.282  34.285  52.531  0.00  0.00     0.197 A 
ATOM     10  O   UNL d   1      51.037  34.235  51.733  0.00  0.00    -0.205 OA
ATOM     11  N   UNL d   1      50.218  34.359  51.710  0.00  0.00    -0.124 NA
ATOM     12  C   UNL d   1      49.954  34.485  52.486  0.00  0.00     0.130 A 
ATOM     13  C   UNL d   1      50.607  34.440  52.998  0.00  0.00     0.056 A 
ENDBRANCH   7   9
ENDBRANCH   1   6
BRANCH   3  14
ATOM     14  C   UNL d   1      53.337  30.845  53.833  0.00  0.00     0.018 A 
ATOM     15  C   UNL d   1      53.339  30.253  53.268  0.00  0.00     0.002 A 
ATOM     16  C   UNL d   1      53.364  29.461  53.497  0.00  0.00     0.000 A 
ATOM     17  C   UNL d   1      53.387  29.271  54.298  0.00  0.00     0.000 A 
ATOM     18  C   UNL d   1      53.385  29.864  54.872  0.00  0.00     0.000 A 
ATOM     19  C   UNL d   1      53.412  28.477  54.534  0.00  0.00     0.000 C 
ATOM     20  C   UNL d   1      53.359  30.658  54.636  0.00  0.00     0.002 A 
ENDBRANCH   3  14
TORSDOF 3
ENDMDL
MODEL 3
REMARK VINA RESULT:      -7.6      2.268      2.845
REMARK  3 active torsions:
REMARK  status: ('A' for Active; 'I' for Inactive)
REMARK    1  A    between atoms: N_3  and  C_1 
REMARK       I    between atoms: C_5  and  N_3 
REMARK    2  A    between atoms: C_4  and  C_5 
REMARK    3  A    between atoms: C_12  and  C_6 
ROOT
ATOM      1  C   UNL d   1      52.463  32.880  53.236  0.00  0.00     0.249 A 
ATOM      2  N   UNL d   1      51.713  32.960  52.897  0.00  0.00    -0.210 NA
ATOM      3  C   UNL d   1      51.510  33.770  52.914  0.00  0.00     0.091 A 
ATOM      4  S   UNL d   1      52.734  33.622  53.466  0.00  0.00    -0.033 SA
ATOM      5  C   UNL d   1      52.135  34.179  53.263  0.00  0.00     0.059 A 
ENDROOT
BRANCH   1   6
ATOM      6  N   UNL d   1      52.872  32.170  53.329  0.00  0.00    -0.337 NA
ATOM      7  C   UNL d   1      53.482  31.623  53.423  0.00  0.00     0.355 C 
ATOM      8  O   UNL d   1      54.271  31.881  53.463  0.00  0.00    -0.249 OA
BRANCH   7   9
ATOM      9  C   UNL d   1      53.311  30.812  53.479  0.00  0.00     0.197 A 
ATOM     10  O   UNL d   1      52.924  30.346  52.903  0.00  0.00    -0.205 OA
ATOM     11  N   UNL d   1      52.873  29.571  53.193  0.00  0.00    -0.124 NA
ATOM     12  C   UNL d   1      53.226  29.554  53.944  0.00  0.00     0.130 A 
ATOM     13  C   UNL d   1      53.498  30.317  54.126  0.00  0.00     0.056 A 
ENDBRANCH   7   9
ENDBRANCH   1   6
BRANCH   3  14
ATOM     14  C   UNL d   1      50.813  34.100  52.634  0.00  0.00     0.018 A 
ATOM     15  C   UNL d   1      50.294  34.463  53.151  0.00  0.00     0.002 A 
ATOM     16  C   UNL d   1      49.594  34.795  52.872  0.00  0.00     0.000 A 
ATOM     17  C   UNL d   1      49.421  34.759  52.066  0.00  0.00     0.000 A 
ATOM     18  C   UNL d   1      49.941  34.395  51.540  0.00  0.00     0.000 A 
ATOM     19  C   UNL d   1      48.718  35.092  51.779  0.00  0.00     0.000 C 
ATOM     20  C   UNL d   1      50.644  34.062  51.827  0.00  0.00     0.002 A 
ENDBRANCH   3  14
TORSDOF 3
ENDMDL
MODEL 4
REMARK VINA RESULT:      -7.6      3.364      4.972
REMARK  3 active torsions:
REMARK  status: ('A' for Active; 'I' for Inactive)
REMARK    1  A    between atoms: N_3  and  C_1 
REMARK       I    between atoms: C_5  and  N_3 
REMARK    2  A    between atoms: C_4  and  C_5 
REMARK    3  A    between atoms: C_12  and  C_6 
ROOT
ATOM      1  C   UNL d   1      50.957  33.879  53.082  0.00  0.00     0.249 A 
ATOM      2  N   UNL d   1      51.608  34.159  53.508  0.00  0.00    -0.210 NA
ATOM      3  C   UNL d   1      52.143  33.525  53.603  0.00  0.00     0.091 A 
ATOM      4  S   UNL d   1      51.073  33.083  52.908  0.00  0.00    -0.033 SA
ATOM      5  C   UNL d   1      51.818  32.863  53.236  0.00  0.00     0.059 A 
ENDROOT
BRANCH   1   6
ATOM      6  N   UNL d   1      50.299  34.326  52.866  0.00  0.00    -0.337 NA
ATOM      7  C   UNL d   1      49.689  34.660  52.422  0.00  0.00     0.355 C 
ATOM      8  O   UNL d   1      49.601  34.464  51.620  0.00  0.00    -0.249 OA
BRANCH   7   9
ATOM      9  C   UNL d   1      49.159  35.194  52.775  0.00  0.00     0.197 A 
ATOM     10  O   UNL d   1      49.291  35.634  53.474  0.00  0.00    -0.205 OA
ATOM     11  N   UNL d   1      48.616  36.092  53.619  0.00  0.00    -0.124 NA
ATOM     12  C   UNL d   1      48.068  35.940  53.015  0.00  0.00     0.130 A 
ATOM     13  C   UNL d   1      48.397  35.386  52.491  0.00  0.00     0.056 A 
ENDBRANCH   7   9
ENDBRANCH   1   6
BRANCH   3  14
ATOM     14  C   UNL d   1      52.864  33.556  53.993  0.00  0.00     0.018 A 
ATOM     15  C   UNL d   1      53.074  34.223  54.417  0.00  0.00     0.002 A 
ATOM     16  C   UNL d   1      53.798  34.255  54.809  0.00  0.00     0.000 A 
ATOM     17  C   UNL d   1      54.309  33.610  54.770  0.00  0.00     0.000 A 
ATOM     18  C   UNL d   1      54.103  32.934  54.345  0.00  0.00     0.000 A 
ATOM     19  C   UNL d   1      55.039  33.637  55.163  0.00  0.00     0.000 C 
ATOM     20  C   UNL d   1      53.373  32.908  53.952  0.00  0.00     0.002 A 
ENDBRANCH   3  14
TORSDOF 3
ENDMDL
MODEL 5
REMARK VINA RESULT:      -7.5      3.362      5.258
REMARK  3 active torsions:
REMARK  status: ('A' for Active; 'I' for Inactive)
REMARK    1  A    between atoms: N_3  and  C_1 
REMARK       I    between atoms: C_5  and  N_3 
REMARK    2  A    between atoms: C_4  and  C_5 
REMARK    3  A    between atoms: C_12  and  C_6 
ROOT
ATOM      1  C   UNL d   1      51.193  33.990  52.784  0.00  0.00     0.249 A 
ATOM      2  N   UNL d   1      51.373  33.184  52.839  0.00  0.00    -0.210 NA
ATOM      3  C   UNL d   1      52.173  33.116  53.067  0.00  0.00     0.091 A 
ATOM      4  S   UNL d   1      51.865  34.428  52.973  0.00  0.00    -0.033 SA
ATOM      5  C   UNL d   1      52.478  33.878  53.151  0.00  0.00     0.059 A 
ENDROOT
BRANCH   1   6
ATOM      6  N   UNL d   1      50.460  34.302  52.573  0.00  0.00    -0.337 NA
ATOM      7  C   UNL d   1      49.745  34.712  52.603  0.00  0.00     0.355 C 
ATOM      8  O   UNL d   1      49.535  35.137  53.286  0.00  0.00    -0.249 OA
BRANCH   7   9
ATOM      9  C   UNL d   1      49.231  34.703  51.950  0.00  0.00     0.197 A 
ATOM     10  O   UNL d   1      49.372  34.333  51.214  0.00  0.00    -0.205 OA
ATOM     11  N   UNL d   1      48.712  34.467  50.730  0.00  0.00    -0.124 NA
ATOM     12  C   UNL d   1      48.165  34.917  51.161  0.00  0.00     0.130 A 
ATOM     13  C   UNL d   1      48.479  35.066  51.915  0.00  0.00     0.056 A 
ENDBRANCH   7   9
ENDBRANCH   1   6
BRANCH   3  14
ATOM     14  C   UNL d   1      52.584  32.416  53.187  0.00  0.00     0.018 A 
ATOM     15  C   UNL d   1      53.268  32.413  53.635  0.00  0.00     0.002 A 
ATOM     16  C   UNL d   1      53.682  31.711  53.757  0.00  0.00     0.000 A 
ATOM     17  C   UNL d   1      53.401  31.012  53.424  0.00  0.00     0.000 A 
ATOM     18  C   UNL d   1      52.712  31.008  52.972  0.00  0.00     0.000 A 
ATOM     19  C   UNL d   1      53.813  30.302  53.543  0.00  0.00     0.000 C 
ATOM     20  C   UNL d   1      52.299  31.718  52.852  0.00  0.00     0.002 A 
ENDBRANCH   3  14
TORSDOF 3
ENDMDL
MODEL 6
REMARK VINA RESULT:      -7.3      2.105      4.925
REMARK  3 active torsions:
REMARK  status: ('A' for Active; 'I' for Inactive)
REMARK    1  A    between atoms: N_3  and  C_1 
REMARK       I    between atoms: C_5  and  N_3 
REMARK    2  A    between atoms: C_4  and  C_5 
REMARK    3  A    between atoms: C_12  and  C_6 
ROOT
ATOM      1  C   UNL d   1      53.564  33.227  53.633  0.00  0.00     0.249 A 
ATOM      2  N   UNL d   1      53.094  32.546  53.622  0.00  0.00    -0.210 NA
ATOM      3  C   UNL d   1      53.601  31.886  53.557  0.00  0.00     0.091 A 
ATOM      4  S   UNL d   1      54.355  33.006  53.576  0.00  0.00    -0.033 SA
ATOM      5  C   UNL d   1      54.377  32.165  53.529  0.00  0.00     0.059 A 
ENDROOT
BRANCH   1   6
ATOM      6  N   UNL d   1      53.283  33.999  53.690  0.00  0.00    -0.337 NA
ATOM      7  C   UNL d   1      52.898  34.709  53.519  0.00  0.00     0.355 C 
ATOM      8  O   UNL d   1      52.465  34.789  52.814  0.00  0.00    -0.249 OA
BRANCH   7   9
ATOM      9  C   UNL d   1      52.941  35.346  54.050  0.00  0.00     0.197 A 
ATOM     10  O   UNL d   1      53.452  36.006  53.992  0.00  0.00    -0.205 OA
ATOM     11  N   UNL d   1      53.304  36.500  54.641  0.00  0.00    -0.124 NA
ATOM     12  C   UNL d   1      52.706  36.152  55.099  0.00  0.00     0.130 A 
ATOM     13  C   UNL d   1      52.478  35.440  54.739  0.00  0.00     0.056 A 
ENDBRANCH   7   9
ENDBRANCH   1   6
BRANCH   3  14
ATOM     14  C   UNL d   1      53.370  31.099  53.527  0.00  0.00     0.018 A 
ATOM     15  C   UNL d   1      53.655  30.566  54.079  0.00  0.00     0.002 A 
ATOM     16  C   UNL d   1      53.424  29.776  54.050  0.00  0.00     0.000 A 
ATOM     17  C   UNL d   1      52.904  29.527  53.461  0.00  0.00     0.000 A 
ATOM     18  C   UNL d   1      52.614  30.059  52.902  0.00  0.00     0.000 A 
ATOM     19  C   UNL d   1      52.668  28.732  53.427  0.00  0.00     0.000 C 
ATOM     20  C   UNL d   1      52.850  30.853  52.936  0.00  0.00     0.002 A 
ENDBRANCH   3  14
TORSDOF 3
ENDMDL
MODEL 7
REMARK VINA RESULT:      -7.2      2.764      3.703
REMARK  3 active torsions:
REMARK  status: ('A' for Active; 'I' for Inactive)
REMARK    1  A    between atoms: N_3  and  C_1 
REMARK       I    between atoms: C_5  and  N_3 
REMARK    2  A    between atoms: C_4  and  C_5 
REMARK    3  A    between atoms: C_12  and  C_6 
ROOT
ATOM      1  C   UNL d   1      52.814  33.115  53.370  0.00  0.00     0.249 A 
ATOM      2  N   UNL d   1      52.272  33.735  53.293  0.00  0.00    -0.210 NA
ATOM      3  C   UNL d   1      51.612  33.448  52.871  0.00  0.00     0.091 A 
ATOM      4  S   UNL d   1      52.507  32.444  53.003  0.00  0.00    -0.033 SA
ATOM      5  C   UNL d   1      51.753  32.655  52.691  0.00  0.00     0.059 A 
ENDROOT
BRANCH   1   6
ATOM      6  N   UNL d   1      53.543  33.162  53.751  0.00  0.00    -0.337 NA
ATOM      7  C   UNL d   1      54.344  33.067  53.926  0.00  0.00     0.355 C 
ATOM      8  O   UNL d   1      54.836  32.635  53.415  0.00  0.00    -0.249 OA
BRANCH   7   9
ATOM      9  C   UNL d   1      54.662  33.404  54.616  0.00  0.00     0.197 A 
ATOM     10  O   UNL d   1      55.136  34.092  54.659  0.00  0.00    -0.205 OA
ATOM     11  N   UNL d   1      55.327  34.221  55.455  0.00  0.00    -0.124 NA
ATOM     12  C   UNL d   1      54.976  33.618  55.905  0.00  0.00     0.130 A 
ATOM     13  C   UNL d   1      54.565  33.111  55.393  0.00  0.00     0.056 A 
ENDBRANCH   7   9
ENDBRANCH   1   6
BRANCH   3  14
ATOM     14  C   UNL d   1      50.942  33.876  52.670  0.00  0.00     0.018 A 
ATOM     15  C   UNL d   1      50.706  33.926  51.888  0.00  0.00     0.002 A 
ATOM     16  C   UNL d   1      50.033  34.356  51.684  0.00  0.00     0.000 A 
ATOM     17  C   UNL d   1      49.600  34.735  52.274  0.00  0.00     0.000 A 
ATOM     18  C   UNL d   1      49.833  34.688  53.064  0.00  0.00     0.000 A 
ATOM     19  C   UNL d   1      48.922  35.169  52.075  0.00  0.00     0.000 C 
ATOM     20  C   UNL d   1      50.511  34.254  53.263  0.00  0.00     0.002 A 
ENDBRANCH   3  14
TORSDOF 3
ENDMDL
