MODEL 1
REMARK VINA RESULT:      -0.9      0.000      0.000
REMARK  4 active torsions:
REMARK  status: ('A' for Active; 'I' for Inactive)
REMARK    1  A    between atoms: N_2  and  S_1 
REMARK    2  A    between atoms: C_3  and  S_1 
REMARK    3  A    between atoms: C_14  and  C_4 
REMARK    4  A    between atoms: O_17  and  C_11 
ROOT
ATOM      1  S   UNL d   1      56.127   0.049  33.045  0.00  0.00     0.274 S 
ATOM      2  O   UNL d   1      56.372  -0.729  32.975  0.00  0.00    -0.199 OA
ATOM      3  O   UNL d   1      56.312   0.598  32.458  0.00  0.00    -0.199 OA
ENDROOT
BRANCH   1   4
ATOM      4  N   UNL d   1      55.694   0.281  33.703  0.00  0.00    -0.213 N 
ATOM      5  C   UNL d   1      56.074   0.440  34.409  0.00  0.00     0.157 A 
ATOM      6  N   UNL d   1      55.624   0.681  35.091  0.00  0.00    -0.226 NA
ATOM      7  C   UNL d   1      54.436   0.590  34.314  0.00  0.00     0.101 A 
ATOM      8  C   UNL d   1      54.868   0.356  33.650  0.00  0.00     0.112 A 
ATOM      9  C   UNL d   1      53.608   0.660  34.246  0.00  0.00     0.022 C 
BRANCH   5  10
ATOM     10  C   UNL d   1      56.897   0.367  34.465  0.00  0.00     0.038 C 
ATOM     11  C   UNL d   1      57.252   0.481  35.195  0.00  0.00     0.003 C 
ENDBRANCH   5  10
ENDBRANCH   1   4
BRANCH   1  12
ATOM     12  C   UNL d   1      56.558  -0.187  32.391  0.00  0.00     0.127 A 
ATOM     13  C   UNL d   1      57.004   0.353  31.972  0.00  0.00     0.022 A 
ATOM     14  C   UNL d   1      57.438   0.125  31.318  0.00  0.00     0.035 A 
ATOM     15 BR   UNL d   1      57.882   0.681  30.907  0.00  0.00    -0.049 Br
ATOM     16  C   UNL d   1      57.426  -0.664  31.075  0.00  0.00     0.009 A 
ATOM     17  C   UNL d   1      56.977  -1.213  31.495  0.00  0.00     0.025 A 
ATOM     18  C   UNL d   1      56.545  -0.977  32.149  0.00  0.00     0.106 A 
BRANCH  18  19
ATOM     19  O   UNL d   1      56.095  -1.529  32.569  0.00  0.00    -0.327 OA
ATOM     20  C   UNL d   1      55.989  -2.292  32.275  0.00  0.00     0.181 C 
ENDBRANCH  18  19
ENDBRANCH   1  12
TORSDOF 4
ENDMDL
MODEL 2
REMARK VINA RESULT:      -0.6      3.443      5.124
REMARK  4 active torsions:
REMARK  status: ('A' for Active; 'I' for Inactive)
REMARK    1  A    between atoms: N_2  and  S_1 
REMARK    2  A    between atoms: C_3  and  S_1 
REMARK    3  A    between atoms: C_14  and  C_4 
REMARK    4  A    between atoms: O_17  and  C_11 
ROOT
ATOM      1  S   UNL d   1      58.914  -0.430  29.948  0.00  0.00     0.274 S 
ATOM      2  O   UNL d   1      58.613   0.248  29.600  0.00  0.00    -0.199 OA
ATOM      3  O   UNL d   1      58.557  -0.746  30.621  0.00  0.00    -0.199 OA
ENDROOT
BRANCH   1   4
ATOM      4  N   UNL d   1      59.575  -0.794  29.624  0.00  0.00    -0.213 N 
ATOM      5  C   UNL d   1      60.305  -0.430  29.660  0.00  0.00     0.157 A 
ATOM      6  N   UNL d   1      60.989  -0.809  29.324  0.00  0.00    -0.226 NA
ATOM      7  C   UNL d   1      60.166  -1.901  28.933  0.00  0.00     0.101 A 
ATOM      8  C   UNL d   1      59.499  -1.537  29.258  0.00  0.00     0.112 A 
ATOM      9  C   UNL d   1      60.075  -2.646  28.569  0.00  0.00     0.022 C 
BRANCH   5  10
ATOM     10  C   UNL d   1      60.383   0.310  30.025  0.00  0.00     0.038 C 
ATOM     11  C   UNL d   1      61.133   0.568  30.233  0.00  0.00     0.003 C 
ENDBRANCH   5  10
ENDBRANCH   1   4
BRANCH   1  12
ATOM     12  C   UNL d   1      58.256  -0.063  30.268  0.00  0.00     0.127 A 
ATOM     13  C   UNL d   1      58.131  -0.066  31.075  0.00  0.00     0.022 A 
ATOM     14  C   UNL d   1      57.477   0.298  31.401  0.00  0.00     0.035 A 
ATOM     15 BR   UNL d   1      57.366   0.286  32.215  0.00  0.00    -0.049 Br
ATOM     16  C   UNL d   1      56.932   0.676  30.910  0.00  0.00     0.009 A 
ATOM     17  C   UNL d   1      57.054   0.681  30.094  0.00  0.00     0.025 A 
ATOM     18  C   UNL d   1      57.712   0.315  29.775  0.00  0.00     0.106 A 
BRANCH  18  19
ATOM     19  O   UNL d   1      57.833   0.321  28.956  0.00  0.00    -0.327 OA
ATOM     20  C   UNL d   1      57.284   0.680  28.456  0.00  0.00     0.181 C 
ENDBRANCH  18  19
ENDBRANCH   1  12
TORSDOF 4
ENDMDL
MODEL 3
REMARK VINA RESULT:      -0.4      8.568      9.650
REMARK  4 active torsions:
REMARK  status: ('A' for Active; 'I' for Inactive)
REMARK    1  A    between atoms: N_2  and  S_1 
REMARK    2  A    between atoms: C_3  and  S_1 
REMARK    3  A    between atoms: C_14  and  C_4 
REMARK    4  A    between atoms: O_17  and  C_11 
ROOT
ATOM      1  S   UNL d   1      59.582  -8.913  33.890  0.00  0.00     0.274 S 
ATOM      2  O   UNL d   1      59.104  -9.540  33.667  0.00  0.00    -0.199 OA
ATOM      3  O   UNL d   1      60.110  -8.579  33.351  0.00  0.00    -0.199 OA
ENDROOT
BRANCH   1   4
ATOM      4  N   UNL d   1      59.533  -8.615  34.654  0.00  0.00    -0.213 N 
ATOM      5  C   UNL d   1      59.926  -8.988  35.266  0.00  0.00     0.157 A 
ATOM      6  N   UNL d   1      59.875  -8.678  36.057  0.00  0.00    -0.226 NA
ATOM      7  C   UNL d   1      59.035  -7.638  35.574  0.00  0.00     0.101 A 
ATOM      8  C   UNL d   1      59.082  -7.934  34.804  0.00  0.00     0.112 A 
ATOM      9  C   UNL d   1      58.578  -6.953  35.710  0.00  0.00     0.022 C 
BRANCH   5  10
ATOM     10  C   UNL d   1      60.377  -9.667  35.118  0.00  0.00     0.038 C 
ATOM     11  C   UNL d   1      61.028  -9.816  35.594  0.00  0.00     0.003 C 
ENDBRANCH   5  10
ENDBRANCH   1   4
BRANCH   1  12
ATOM     12  C   UNL d   1      59.627  -9.212  33.130  0.00  0.00     0.127 A 
ATOM     13  C   UNL d   1      60.347  -9.268  32.749  0.00  0.00     0.022 A 
ATOM     14  C   UNL d   1      60.400  -9.566  31.990  0.00  0.00     0.035 A 
ATOM     15 BR   UNL d   1      61.133  -9.616  31.621  0.00  0.00    -0.049 Br
ATOM     16  C   UNL d   1      59.717  -9.815  31.600  0.00  0.00     0.009 A 
ATOM     17  C   UNL d   1      58.988  -9.761  31.980  0.00  0.00     0.025 A 
ATOM     18  C   UNL d   1      58.942  -9.461  32.740  0.00  0.00     0.106 A 
BRANCH  18  19
ATOM     19  O   UNL d   1      58.209  -9.407  33.121  0.00  0.00    -0.327 OA
ATOM     20  C   UNL d   1      57.509  -9.495  32.694  0.00  0.00     0.181 C 
ENDBRANCH  18  19
ENDBRANCH   1  12
TORSDOF 4
ENDMDL
MODEL 4
REMARK VINA RESULT:      -0.3      1.615      3.513
REMARK  4 active torsions:
REMARK  status: ('A' for Active; 'I' for Inactive)
REMARK    1  A    between atoms: N_2  and  S_1 
REMARK    2  A    between atoms: C_3  and  S_1 
REMARK    3  A    between atoms: C_14  and  C_4 
REMARK    4  A    between atoms: O_17  and  C_11 
ROOT
ATOM      1  S   UNL d   1      56.225   0.025  33.106  0.00  0.00     0.274 S 
ATOM      2  O   UNL d   1      56.466  -0.340  33.799  0.00  0.00    -0.199 OA
ATOM      3  O   UNL d   1      55.647   0.614  33.126  0.00  0.00    -0.199 OA
ENDROOT
BRANCH   1   4
ATOM      4  N   UNL d   1      56.561  -0.196  32.391  0.00  0.00    -0.213 N 
ATOM      5  C   UNL d   1      56.444  -0.950  32.098  0.00  0.00     0.157 A 
ATOM      6  N   UNL d   1      56.793  -1.179  31.356  0.00  0.00    -0.226 NA
ATOM      7  C   UNL d   1      57.358   0.121  31.244  0.00  0.00     0.101 A 
ATOM      8  C   UNL d   1      57.021   0.348  31.964  0.00  0.00     0.112 A 
ATOM      9  C   UNL d   1      57.817   0.679  30.827  0.00  0.00     0.022 C 
BRANCH   5  10
ATOM     10  C   UNL d   1      55.986  -1.495  32.521  0.00  0.00     0.038 C 
ATOM     11  C   UNL d   1      55.883  -2.247  32.210  0.00  0.00     0.003 C 
ENDBRANCH   5  10
ENDBRANCH   1   4
BRANCH   1  12
ATOM     12  C   UNL d   1      55.893   0.243  33.822  0.00  0.00     0.127 A 
ATOM     13  C   UNL d   1      55.082   0.244  33.919  0.00  0.00     0.022 A 
ATOM     14  C   UNL d   1      54.743   0.460  34.630  0.00  0.00     0.035 A 
ATOM     15 BR   UNL d   1      53.925   0.456  34.711  0.00  0.00    -0.049 Br
ATOM     16  C   UNL d   1      55.225   0.681  35.262  0.00  0.00     0.009 A 
ATOM     17  C   UNL d   1      56.045   0.682  35.169  0.00  0.00     0.025 A 
ATOM     18  C   UNL d   1      56.377   0.464  34.454  0.00  0.00     0.106 A 
BRANCH  18  19
ATOM     19  O   UNL d   1      57.199   0.465  34.362  0.00  0.00    -0.327 OA
ATOM     20  C   UNL d   1      57.693   0.493  35.021  0.00  0.00     0.181 C 
ENDBRANCH  18  19
ENDBRANCH   1  12
TORSDOF 4
ENDMDL
MODEL 5
REMARK VINA RESULT:      -0.3      1.037      1.928
REMARK  4 active torsions:
REMARK  status: ('A' for Active; 'I' for Inactive)
REMARK    1  A    between atoms: N_2  and  S_1 
REMARK    2  A    between atoms: C_3  and  S_1 
REMARK    3  A    between atoms: C_14  and  C_4 
REMARK    4  A    between atoms: O_17  and  C_11 
ROOT
ATOM      1  S   UNL d   1      56.311  -0.004  32.852  0.00  0.00     0.274 S 
ATOM      2  O   UNL d   1      57.036  -0.164  33.199  0.00  0.00    -0.199 OA
ATOM      3  O   UNL d   1      56.274   0.387  32.126  0.00  0.00    -0.199 OA
ENDROOT
BRANCH   1   4
ATOM      4  N   UNL d   1      55.620  -0.234  33.230  0.00  0.00    -0.213 N 
ATOM      5  C   UNL d   1      55.395  -1.020  33.234  0.00  0.00     0.157 A 
ATOM      6  N   UNL d   1      54.678  -1.258  33.627  0.00  0.00    -0.226 NA
ATOM      7  C   UNL d   1      54.452   0.098  33.990  0.00  0.00     0.101 A 
ATOM      8  C   UNL d   1      55.147   0.334  33.610  0.00  0.00     0.112 A 
ATOM      9  C   UNL d   1      53.988   0.680  34.367  0.00  0.00     0.022 C 
BRANCH   5  10
ATOM     10  C   UNL d   1      55.865  -1.589  32.856  0.00  0.00     0.038 C 
ATOM     11  C   UNL d   1      55.745  -2.379  33.038  0.00  0.00     0.003 C 
ENDBRANCH   5  10
ENDBRANCH   1   4
BRANCH   1  12
ATOM     12  C   UNL d   1      57.003   0.224  32.479  0.00  0.00     0.127 A 
ATOM     13  C   UNL d   1      57.027   0.306  31.667  0.00  0.00     0.022 A 
ATOM     14  C   UNL d   1      57.714   0.533  31.287  0.00  0.00     0.035 A 
ATOM     15 BR   UNL d   1      57.722   0.612  30.469  0.00  0.00    -0.049 Br
ATOM     16  C   UNL d   1      58.396   0.682  31.729  0.00  0.00     0.009 A 
ATOM     17  C   UNL d   1      58.375   0.599  32.549  0.00  0.00     0.025 A 
ATOM     18  C   UNL d   1      57.684   0.372  32.922  0.00  0.00     0.106 A 
BRANCH  18  19
ATOM     19  O   UNL d   1      57.666   0.290  33.746  0.00  0.00    -0.327 OA
ATOM     20  C   UNL d   1      58.227   0.669  34.216  0.00  0.00     0.181 C 
ENDBRANCH  18  19
ENDBRANCH   1  12
TORSDOF 4
ENDMDL
MODEL 6
REMARK VINA RESULT:       1.6      1.890      3.189
REMARK  4 active torsions:
REMARK  status: ('A' for Active; 'I' for Inactive)
REMARK    1  A    between atoms: N_2  and  S_1 
REMARK    2  A    between atoms: C_3  and  S_1 
REMARK    3  A    between atoms: C_14  and  C_4 
REMARK    4  A    between atoms: O_17  and  C_11 
ROOT
ATOM      1  S   UNL d   1      56.981  -0.145  31.928  0.00  0.00     0.274 S 
ATOM      2  O   UNL d   1      56.525  -0.812  31.796  0.00  0.00    -0.199 OA
ATOM      3  O   UNL d   1      56.830   0.341  32.578  0.00  0.00    -0.199 OA
ENDROOT
BRANCH   1   4
ATOM      4  N   UNL d   1      57.591   0.041  31.411  0.00  0.00    -0.213 N 
ATOM      5  C   UNL d   1      58.262   0.419  31.684  0.00  0.00     0.157 A 
ATOM      6  N   UNL d   1      58.893   0.610  31.147  0.00  0.00    -0.226 NA
ATOM      7  C   UNL d   1      58.141   0.031  30.088  0.00  0.00     0.101 A 
ATOM      8  C   UNL d   1      57.525  -0.157  30.606  0.00  0.00     0.112 A 
ATOM      9  C   UNL d   1      58.060  -0.174  29.284  0.00  0.00     0.022 C 
BRANCH   5  10
ATOM     10  C   UNL d   1      58.330   0.617  32.485  0.00  0.00     0.038 C 
ATOM     11  C   UNL d   1      59.081   0.681  32.811  0.00  0.00     0.003 C 
ENDBRANCH   5  10
ENDBRANCH   1   4
BRANCH   1  12
ATOM     12  C   UNL d   1      56.373  -0.333  32.442  0.00  0.00     0.127 A 
ATOM     13  C   UNL d   1      55.957   0.256  32.825  0.00  0.00     0.022 A 
ATOM     14  C   UNL d   1      55.348   0.076  33.339  0.00  0.00     0.035 A 
ATOM     15 BR   UNL d   1      54.939   0.680  33.718  0.00  0.00    -0.049 Br
ATOM     16  C   UNL d   1      55.147  -0.713  33.475  0.00  0.00     0.009 A 
ATOM     17  C   UNL d   1      55.564  -1.311  33.089  0.00  0.00     0.025 A 
ATOM     18  C   UNL d   1      56.173  -1.123  32.576  0.00  0.00     0.106 A 
BRANCH  18  19
ATOM     19  O   UNL d   1      56.590  -1.725  32.190  0.00  0.00    -0.327 OA
ATOM     20  C   UNL d   1      56.463  -2.515  32.389  0.00  0.00     0.181 C 
ENDBRANCH  18  19
ENDBRANCH   1  12
TORSDOF 4
ENDMDL
MODEL 7
REMARK VINA RESULT:       1.9      5.061      6.081
REMARK  4 active torsions:
REMARK  status: ('A' for Active; 'I' for Inactive)
REMARK    1  A    between atoms: N_2  and  S_1 
REMARK    2  A    between atoms: C_3  and  S_1 
REMARK    3  A    between atoms: C_14  and  C_4 
REMARK    4  A    between atoms: O_17  and  C_11 
ROOT
ATOM      1  S   UNL d   1      59.396  -1.733  29.070  0.00  0.00     0.274 S 
ATOM      2  O   UNL d   1      59.148  -1.463  29.802  0.00  0.00    -0.199 OA
ATOM      3  O   UNL d   1      59.537  -1.202  28.455  0.00  0.00    -0.199 OA
ENDROOT
BRANCH   1   4
ATOM      4  N   UNL d   1      59.503  -2.538  28.949  0.00  0.00    -0.213 N 
ATOM      5  C   UNL d   1      58.867  -3.014  28.756  0.00  0.00     0.157 A 
ATOM      6  N   UNL d   1      58.980  -3.848  28.630  0.00  0.00    -0.226 NA
ATOM      7  C   UNL d   1      60.366  -3.681  28.900  0.00  0.00     0.101 A 
ATOM      8  C   UNL d   1      60.262  -2.870  29.023  0.00  0.00     0.112 A 
ATOM      9  C   UNL d   1      61.133  -3.999  28.978  0.00  0.00     0.022 C 
BRANCH   5  10
ATOM     10  C   UNL d   1      58.110  -2.686  28.681  0.00  0.00     0.038 C 
ATOM     11  C   UNL d   1      57.485  -3.181  28.489  0.00  0.00     0.003 C 
ENDBRANCH   5  10
ENDBRANCH   1   4
BRANCH   1  12
ATOM     12  C   UNL d   1      59.287  -0.932  29.195  0.00  0.00     0.127 A 
ATOM     13  C   UNL d   1      58.675  -0.535  28.828  0.00  0.00     0.022 A 
ATOM     14  C   UNL d   1      58.560   0.265  28.949  0.00  0.00     0.035 A 
ATOM     15 BR   UNL d   1      57.940   0.650  28.572  0.00  0.00    -0.049 Br
ATOM     16  C   UNL d   1      59.070   0.681  29.448  0.00  0.00     0.009 A 
ATOM     17  C   UNL d   1      59.689   0.283  29.820  0.00  0.00     0.025 A 
ATOM     18  C   UNL d   1      59.798  -0.518  29.695  0.00  0.00     0.106 A 
BRANCH  18  19
ATOM     19  O   UNL d   1      60.420  -0.915  30.069  0.00  0.00    -0.327 OA
ATOM     20  C   UNL d   1      61.110  -0.512  30.272  0.00  0.00     0.181 C 
ENDBRANCH  18  19
ENDBRANCH   1  12
TORSDOF 4
ENDMDL
