MODEL 1
REMARK VINA RESULT:      58.4      0.000      0.000
REMARK  3 active torsions:
REMARK  status: ('A' for Active; 'I' for Inactive)
REMARK    1  A    between atoms: N_2  and  S_1 
REMARK    2  A    between atoms: C_3  and  S_1 
REMARK    3  A    between atoms: C_5  and  N_4 
ROOT
ATOM      1  N   UNL d   1      56.730  49.291  53.154  0.00  0.00    -0.226 N 
ATOM      2  N   UNL d   1      56.712  49.342  51.515  0.00  0.00    -0.286 N 
ATOM      3  C   UNL d   1      56.123  48.927  52.738  0.00  0.00     0.111 A 
ATOM      4  C   UNL d   1      57.328  49.681  52.751  0.00  0.00     0.111 A 
ATOM      5  C   UNL d   1      57.319  49.706  51.931  0.00  0.00     0.101 A 
ATOM      6  C   UNL d   1      56.114  48.952  51.919  0.00  0.00     0.101 A 
ENDROOT
BRANCH   1   7
ATOM      7  S   UNL d   1      56.743  49.267  53.991  0.00  0.00     0.277 S 
ATOM      8  O   UNL d   1      56.037  49.708  54.017  0.00  0.00    -0.199 OA
ATOM      9  O   UNL d   1      57.453  48.825  53.966  0.00  0.00    -0.199 OA
BRANCH   7  10
ATOM     10  C   UNL d   1      56.757  49.244  54.828  0.00  0.00     0.133 A 
ATOM     11  S   UNL d   1      56.256  48.794  55.310  0.00  0.00    -0.074 SA
ATOM     12  C   UNL d   1      56.469  48.942  56.106  0.00  0.00     0.036 A 
ATOM     13  C   UNL d   1      57.102  49.484  56.103  0.00  0.00     0.008 A 
ATOM     14  C   UNL d   1      57.283  49.673  55.317  0.00  0.00     0.020 A 
ENDBRANCH   7  10
ENDBRANCH   1   7
BRANCH   2  15
ATOM     15  C   UNL d   1      56.694  49.362  50.695  0.00  0.00     0.148 A 
ATOM     16  N   UNL d   1      57.330  49.684  50.289  0.00  0.00    -0.227 NA
ATOM     17  C   UNL d   1      57.321  49.708  49.470  0.00  0.00     0.101 A 
ATOM     18  C   UNL d   1      56.674  49.409  49.054  0.00  0.00     0.021 A 
ATOM     19  C   UNL d   1      56.037  49.087  49.469  0.00  0.00     0.005 A 
ATOM     20  C   UNL d   1      56.047  49.063  50.288  0.00  0.00     0.037 A 
ENDBRANCH   2  15
TORSDOF 3
ENDMDL
