MODEL 1
REMARK VINA RESULT:      -3.0      0.000      0.000
REMARK  4 active torsions:
REMARK  status: ('A' for Active; 'I' for Inactive)
REMARK    1  A    between atoms: C_9  and  C_3 
REMARK    2  A    between atoms: C_11  and  C_7 
REMARK    3  A    between atoms: O_22  and  C_16 
REMARK    4  A    between atoms: O_23  and  C_17 
ROOT
ATOM      1  N   UNL d   1      58.163  -0.376  29.736  0.00  0.00    -0.186 N 
ATOM      2  N   UNL d   1      58.642  -1.049  29.844  0.00  0.00    -0.162 NA
ATOM      3  C   UNL d   1      57.606  -0.019  30.207  0.00  0.00     0.187 A 
ATOM      4  C   UNL d   1      58.218   0.056  29.037  0.00  0.00     0.217 A 
ATOM      5  N   UNL d   1      57.308   0.631  29.816  0.00  0.00    -0.127 NA
ATOM      6  N   UNL d   1      57.681   0.681  29.098  0.00  0.00    -0.120 NA
ATOM      7  C   UNL d   1      59.166  -1.279  29.254  0.00  0.00     0.108 A 
ATOM      8  S   UNL d   1      58.747  -0.187  28.456  0.00  0.00    -0.045 SA
ATOM      9  C   UNL d   1      59.226  -0.849  28.551  0.00  0.00     0.059 A 
ENDROOT
BRANCH   3  10
ATOM     10  C   UNL d   1      57.394  -0.293  30.959  0.00  0.00     0.038 A 
ATOM     11  C   UNL d   1      57.699   0.070  31.620  0.00  0.00     0.005 A 
ATOM     12  C   UNL d   1      57.487  -0.205  32.372  0.00  0.00     0.024 A 
ATOM     13  C   UNL d   1      56.970  -0.843  32.438  0.00  0.00     0.094 A 
ATOM     14  C   UNL d   1      56.664  -1.208  31.772  0.00  0.00     0.024 A 
ATOM     15  C   UNL d   1      56.878  -0.931  31.028  0.00  0.00     0.005 A 
BRANCH  13  16
ATOM     16  O   UNL d   1      56.743  -1.136  33.185  0.00  0.00    -0.328 OA
ATOM     17  C   UNL d   1      55.960  -1.018  33.466  0.00  0.00     0.181 C 
ENDBRANCH  13  16
ENDBRANCH   3  10
BRANCH   7  18
ATOM     18  C   UNL d   1      59.637  -1.943  29.365  0.00  0.00     0.020 A 
ATOM     19  C   UNL d   1      60.444  -1.861  29.522  0.00  0.00     0.004 A 
ATOM     20  C   UNL d   1      60.927  -2.520  29.635  0.00  0.00     0.024 A 
ATOM     21  C   UNL d   1      60.592  -3.284  29.588  0.00  0.00     0.094 A 
ATOM     22  C   UNL d   1      59.802  -3.374  29.434  0.00  0.00     0.024 A 
ATOM     23  C   UNL d   1      59.315  -2.702  29.321  0.00  0.00     0.004 A 
BRANCH  21  24
ATOM     24  O   UNL d   1      61.076  -3.947  29.701  0.00  0.00    -0.328 OA
ATOM     25  C   UNL d   1      61.133  -4.524  29.105  0.00  0.00     0.181 C 
ENDBRANCH  21  24
ENDBRANCH   7  18
TORSDOF 4
ENDMDL
MODEL 2
REMARK VINA RESULT:      -2.0      1.645      2.143
REMARK  4 active torsions:
REMARK  status: ('A' for Active; 'I' for Inactive)
REMARK    1  A    between atoms: C_9  and  C_3 
REMARK    2  A    between atoms: C_11  and  C_7 
REMARK    3  A    between atoms: O_22  and  C_16 
REMARK    4  A    between atoms: O_23  and  C_17 
ROOT
ATOM      1  N   UNL d   1      59.979  -0.497  29.504  0.00  0.00    -0.186 N 
ATOM      2  N   UNL d   1      59.540  -1.197  29.392  0.00  0.00    -0.162 NA
ATOM      3  C   UNL d   1      59.849   0.164  29.957  0.00  0.00     0.187 A 
ATOM      4  C   UNL d   1      60.691  -0.395  29.104  0.00  0.00     0.217 A 
ATOM      5  N   UNL d   1      60.468   0.682  29.850  0.00  0.00    -0.127 NA
ATOM      6  N   UNL d   1      60.987   0.344  29.328  0.00  0.00    -0.120 NA
ATOM      7  C   UNL d   1      59.821  -1.781  28.886  0.00  0.00     0.108 A 
ATOM      8  S   UNL d   1      60.958  -0.987  28.601  0.00  0.00    -0.045 SA
ATOM      9  C   UNL d   1      60.535  -1.683  28.483  0.00  0.00     0.059 A 
ENDROOT
BRANCH   3  10
ATOM     10  C   UNL d   1      59.184   0.268  30.441  0.00  0.00     0.038 A 
ATOM     11  C   UNL d   1      59.264   0.220  31.249  0.00  0.00     0.005 A 
ATOM     12  C   UNL d   1      58.600   0.324  31.733  0.00  0.00     0.024 A 
ATOM     13  C   UNL d   1      57.867   0.473  31.385  0.00  0.00     0.094 A 
ATOM     14  C   UNL d   1      57.788   0.521  30.572  0.00  0.00     0.024 A 
ATOM     15  C   UNL d   1      58.451   0.417  30.097  0.00  0.00     0.005 A 
BRANCH  13  16
ATOM     16  O   UNL d   1      57.185   0.581  31.853  0.00  0.00    -0.328 OA
ATOM     17  C   UNL d   1      56.931  -0.026  32.376  0.00  0.00     0.181 C 
ENDBRANCH  13  16
ENDBRANCH   3  10
BRANCH   7  18
ATOM     18  C   UNL d   1      59.386  -2.470  28.779  0.00  0.00     0.020 A 
ATOM     19  C   UNL d   1      59.755  -3.207  28.824  0.00  0.00     0.004 A 
ATOM     20  C   UNL d   1      59.330  -3.906  28.718  0.00  0.00     0.024 A 
ATOM     21  C   UNL d   1      58.509  -3.865  28.563  0.00  0.00     0.094 A 
ATOM     22  C   UNL d   1      58.139  -3.146  28.517  0.00  0.00     0.024 A 
ATOM     23  C   UNL d   1      58.575  -2.438  28.624  0.00  0.00     0.004 A 
BRANCH  21  24
ATOM     24  O   UNL d   1      58.080  -4.566  28.456  0.00  0.00    -0.328 OA
ATOM     25  C   UNL d   1      58.470  -5.299  28.496  0.00  0.00     0.181 C 
ENDBRANCH  21  24
ENDBRANCH   7  18
TORSDOF 4
ENDMDL
