MODEL 1
REMARK VINA RESULT:      97.1      0.000      0.000
REMARK  5 active torsions:
REMARK  status: ('A' for Active; 'I' for Inactive)
REMARK    1  A    between atoms: S_2  and  C_1 
REMARK    2  A    between atoms: C_7  and  S_2 
REMARK    3  A    between atoms: N_8  and  C_5 
REMARK    4  A    between atoms: C_14  and  N_8 
REMARK    5  A    between atoms: O_23  and  C_15 
ROOT
ATOM      1  C   UNL d   1      61.639  46.258  49.920  0.00  0.00     0.187 A 
ATOM      2  N   UNL d   1      61.400  45.483  50.028  0.00  0.00    -0.208 NA
ATOM      3  C   UNL d   1      62.210  46.284  49.337  0.00  0.00     0.118 A 
ATOM      4  C   UNL d   1      61.827  45.011  49.507  0.00  0.00     0.196 A 
ATOM      5  S   UNL d   1      62.330  45.497  49.076  0.00  0.00    -0.035 SA
ATOM      6 CL   UNL d   1      62.598  46.978  49.061  0.00  0.00    -0.073 Cl
ENDROOT
BRANCH   1   7
ATOM      7  S   UNL d   1      61.376  46.953  50.311  0.00  0.00     0.228 S 
ATOM      8  O   UNL d   1      60.920  46.466  50.809  0.00  0.00    -0.216 OA
ATOM      9  O   UNL d   1      61.839  47.417  49.802  0.00  0.00    -0.216 OA
BRANCH   7  10
ATOM     10  C   UNL d   1      61.121  47.628  50.692  0.00  0.00     0.089 A 
ATOM     11  C   UNL d   1      61.075  47.667  51.524  0.00  0.00     0.011 A 
ATOM     12  C   UNL d   1      60.817  48.352  51.898  0.00  0.00     0.001 A 
ATOM     13  C   UNL d   1      60.595  49.024  51.459  0.00  0.00     0.000 A 
ATOM     14  C   UNL d   1      60.641  48.983  50.620  0.00  0.00     0.001 A 
ATOM     15  C   UNL d   1      60.337  49.708  51.829  0.00  0.00     0.000 C 
ATOM     16  C   UNL d   1      60.896  48.309  50.243  0.00  0.00     0.011 A 
ENDBRANCH   7  10
ENDBRANCH   1   7
BRANCH   4  17
ATOM     17  N   UNL d   1      61.834  44.198  49.357  0.00  0.00    -0.221 NA
BRANCH  17  18
ATOM     18  C   UNL d   1      62.090  43.675  49.939  0.00  0.00     0.084 A 
ATOM     19  C   UNL d   1      62.805  43.270  49.840  0.00  0.00     0.021 A 
ATOM     20  C   UNL d   1      63.070  42.749  50.409  0.00  0.00     0.026 A 
ATOM     21  C   UNL d   1      62.620  42.628  51.086  0.00  0.00     0.094 A 
ATOM     22  C   UNL d   1      61.896  43.036  51.189  0.00  0.00     0.026 A 
ATOM     23  C   UNL d   1      61.640  43.552  50.619  0.00  0.00     0.021 A 
BRANCH  21  24
ATOM     24  O   UNL d   1      62.886  42.104  51.659  0.00  0.00    -0.328 OA
ATOM     25  C   UNL d   1      63.158  41.352  51.427  0.00  0.00     0.181 C 
ENDBRANCH  21  24
ENDBRANCH  17  18
ENDBRANCH   4  17
TORSDOF 5
ENDMDL
MODEL 2
REMARK VINA RESULT:      98.9      1.340      4.960
REMARK  5 active torsions:
REMARK  status: ('A' for Active; 'I' for Inactive)
REMARK    1  A    between atoms: S_2  and  C_1 
REMARK    2  A    between atoms: C_7  and  S_2 
REMARK    3  A    between atoms: N_8  and  C_5 
REMARK    4  A    between atoms: C_14  and  N_8 
REMARK    5  A    between atoms: O_23  and  C_15 
ROOT
ATOM      1  C   UNL d   1      61.616  45.717  50.120  0.00  0.00     0.187 A 
ATOM      2  N   UNL d   1      61.750  46.465  50.423  0.00  0.00    -0.208 NA
ATOM      3  C   UNL d   1      61.384  45.781  49.340  0.00  0.00     0.118 A 
ATOM      4  C   UNL d   1      61.601  47.011  49.826  0.00  0.00     0.196 A 
ATOM      5  S   UNL d   1      61.375  46.598  49.153  0.00  0.00    -0.035 SA
ATOM      6 CL   UNL d   1      61.194  45.139  48.830  0.00  0.00    -0.073 Cl
ENDROOT
BRANCH   1   7
ATOM      7  S   UNL d   1      61.687  44.971  50.499  0.00  0.00     0.228 S 
ATOM      8  O   UNL d   1      60.896  45.053  50.748  0.00  0.00    -0.216 OA
ATOM      9  O   UNL d   1      62.473  44.912  50.239  0.00  0.00    -0.216 OA
BRANCH   7  10
ATOM     10  C   UNL d   1      61.756  44.246  50.867  0.00  0.00     0.089 A 
ATOM     11  C   UNL d   1      61.357  44.081  51.581  0.00  0.00     0.011 A 
ATOM     12  C   UNL d   1      61.433  43.347  51.944  0.00  0.00     0.001 A 
ATOM     13  C   UNL d   1      61.908  42.751  51.611  0.00  0.00     0.000 A 
ATOM     14  C   UNL d   1      62.309  42.918  50.891  0.00  0.00     0.001 A 
ATOM     15  C   UNL d   1      61.985  42.018  51.971  0.00  0.00     0.000 C 
ATOM     16  C   UNL d   1      62.239  43.641  50.527  0.00  0.00     0.011 A 
ENDBRANCH   7  10
ENDBRANCH   1   7
BRANCH   4  17
ATOM     17  N   UNL d   1      61.639  47.836  49.793  0.00  0.00    -0.221 NA
BRANCH  17  18
ATOM     18  C   UNL d   1      61.279  48.288  50.381  0.00  0.00     0.084 A 
ATOM     19  C   UNL d   1      60.964  49.029  50.192  0.00  0.00     0.021 A 
ATOM     20  C   UNL d   1      60.606  49.486  50.764  0.00  0.00     0.026 A 
ATOM     21  C   UNL d   1      60.559  49.205  51.534  0.00  0.00     0.094 A 
ATOM     22  C   UNL d   1      60.878  48.455  51.729  0.00  0.00     0.026 A 
ATOM     23  C   UNL d   1      61.232  48.006  51.154  0.00  0.00     0.021 A 
BRANCH  21  24
ATOM     24  O   UNL d   1      60.199  49.665  52.111  0.00  0.00    -0.328 OA
ATOM     25  C   UNL d   1      59.368  49.675  52.162  0.00  0.00     0.181 C 
ENDBRANCH  21  24
ENDBRANCH  17  18
ENDBRANCH   4  17
TORSDOF 5
ENDMDL
