MODEL 1
REMARK VINA RESULT:      49.8      0.000      0.000
REMARK  4 active torsions:
REMARK  status: ('A' for Active; 'I' for Inactive)
REMARK    1  A    between atoms: C_8  and  N_1 
REMARK    2  A    between atoms: C_6  and  C_3 
REMARK       I    between atoms: N_9  and  C_6 
REMARK    3  A    between atoms: C_13  and  N_9 
REMARK    4  A    between atoms: C_14  and  C_13 
ROOT
ATOM      1  N   UNL d   1     -51.039  25.688  33.428  0.00  0.00    -0.276 N 
ATOM      2  C   UNL d   1     -50.240  25.490  33.510  0.00  0.00     0.181 A 
ATOM      3  C   UNL d   1     -49.800  26.182  33.526  0.00  0.00     0.126 A 
ATOM      4  C   UNL d   1     -51.086  26.517  33.393  0.00  0.00     0.152 A 
ATOM      5  S   UNL d   1     -50.320  26.822  33.454  0.00  0.00    -0.051 SA
ATOM      6  S   UNL d   1     -51.783  26.961  33.312  0.00  0.00    -0.052 SA
ATOM      7  N   UNL d   1     -49.939  24.723  33.566  0.00  0.00    -0.128 N 
ENDROOT
BRANCH   3   8
ATOM      8  C   UNL d   1     -48.977  26.240  33.601  0.00  0.00     0.288 C 
ATOM      9  N   UNL d   1     -48.644  26.896  33.972  0.00  0.00    -0.204 NA
ATOM     10  O   UNL d   1     -48.489  25.645  33.306  0.00  0.00    -0.265 OA
BRANCH   9  11
ATOM     11  C   UNL d   1     -49.132  27.498  34.271  0.00  0.00     0.127 C 
BRANCH  11  12
ATOM     12  C   UNL d   1     -48.843  28.037  34.822  0.00  0.00     0.119 A 
ATOM     13  O   UNL d   1     -48.918  27.975  35.639  0.00  0.00    -0.304 OA
ATOM     14  C   UNL d   1     -48.550  28.633  35.988  0.00  0.00     0.123 A 
ATOM     15  C   UNL d   1     -48.248  29.100  35.370  0.00  0.00     0.029 A 
ATOM     16  C   UNL d   1     -48.428  28.733  34.653  0.00  0.00     0.028 A 
ENDBRANCH  11  12
ENDBRANCH   9  11
ENDBRANCH   3   8
BRANCH   1  17
ATOM     17  C   UNL d   1     -51.678  25.164  33.388  0.00  0.00     0.067 A 
ATOM     18  C   UNL d   1     -51.545  24.357  33.369  0.00  0.00     0.018 A 
ATOM     19  C   UNL d   1     -52.184  23.832  33.329  0.00  0.00     0.002 A 
ATOM     20  C   UNL d   1     -52.953  24.128  33.307  0.00  0.00     0.000 A 
ATOM     21  C   UNL d   1     -53.084  24.954  33.326  0.00  0.00     0.002 A 
ATOM     22  C   UNL d   1     -52.445  25.464  33.366  0.00  0.00     0.018 A 
ENDBRANCH   1  17
TORSDOF 4
ENDMDL
