MODEL 1
REMARK VINA RESULT:      48.0      0.000      0.000
REMARK  7 active torsions:
REMARK  status: ('A' for Active; 'I' for Inactive)
REMARK    1  A    between atoms: C_8  and  C_1 
REMARK    2  A    between atoms: N_7  and  C_2 
REMARK    3  A    between atoms: C_5  and  N_7 
REMARK    4  A    between atoms: N_9  and  C_5 
REMARK    5  A    between atoms: O_12  and  C_8 
REMARK    6  A    between atoms: C_13  and  N_9 
REMARK    7  A    between atoms: C_16  and  O_12 
ROOT
ATOM      1  C   UNL d   1     -50.604  24.211  33.529  0.00  0.00     0.162 A 
ATOM      2  C   UNL d   1     -51.137  24.829  33.476  0.00  0.00     0.108 A 
ATOM      3  N   UNL d   1     -51.026  23.502  33.506  0.00  0.00    -0.239 NA
ATOM      4  C   UNL d   1     -51.893  24.513  33.420  0.00  0.00     0.037 A 
ATOM      5  C   UNL d   1     -51.830  23.692  33.439  0.00  0.00     0.083 A 
ATOM      6  C   UNL d   1     -52.635  24.867  33.355  0.00  0.00     0.003 A 
ATOM      7  C   UNL d   1     -52.508  23.220  33.392  0.00  0.00     0.019 A 
ATOM      8  C   UNL d   1     -53.316  24.405  33.308  0.00  0.00     0.000 A 
ATOM      9  C   UNL d   1     -53.246  23.576  33.327  0.00  0.00     0.002 A 
ENDROOT
BRANCH   2  10
ATOM     10  N   UNL d   1     -50.950  25.644  33.478  0.00  0.00    -0.216 NA
BRANCH  10  11
ATOM     11  C   UNL d   1     -51.542  26.197  33.647  0.00  0.00     0.221 C 
ATOM     12  S   UNL d   1     -52.294  26.131  33.306  0.00  0.00    -0.037 SA
BRANCH  11  13
ATOM     13  N   UNL d   1     -51.373  26.822  34.165  0.00  0.00    -0.217 NA
BRANCH  13  14
ATOM     14  C   UNL d   1     -50.814  27.390  33.946  0.00  0.00     0.084 A 
ATOM     15  C   UNL d   1     -50.017  27.266  34.111  0.00  0.00     0.019 A 
ATOM     16  C   UNL d   1     -49.449  27.833  33.895  0.00  0.00     0.002 A 
ATOM     17  C   UNL d   1     -49.694  28.525  33.510  0.00  0.00     0.000 A 
ATOM     18  C   UNL d   1     -50.494  28.655  33.342  0.00  0.00     0.002 A 
ATOM     19  C   UNL d   1     -51.046  28.086  33.561  0.00  0.00     0.019 A 
ENDBRANCH  13  14
ENDBRANCH  11  13
ENDBRANCH  10  11
ENDBRANCH   2  10
BRANCH   1  20
ATOM     20  C   UNL d   1     -49.783  24.281  33.593  0.00  0.00     0.320 C 
ATOM     21  O   UNL d   1     -49.407  24.963  33.312  0.00  0.00    -0.257 OA
BRANCH  20  22
ATOM     22  O   UNL d   1     -49.333  23.685  33.933  0.00  0.00    -0.270 OA
BRANCH  22  23
ATOM     23  C   UNL d   1     -48.523  23.640  33.766  0.00  0.00     0.126 C 
ATOM     24  C   UNL d   1     -48.102  24.324  33.604  0.00  0.00     0.029 C 
ENDBRANCH  22  23
ENDBRANCH  20  22
ENDBRANCH   1  20
TORSDOF 7
ENDMDL
