MODEL 1
REMARK VINA RESULT:      -2.6      0.000      0.000
REMARK  2 active torsions:
REMARK  status: ('A' for Active; 'I' for Inactive)
REMARK    1  A    between atoms: O_3  and  C_1 
REMARK    2  A    between atoms: C_2  and  O_3 
REMARK       I    between atoms: N_7  and  C_2 
ROOT
ATOM      1  C   UNL d   1      33.237  20.357 -22.218  0.00  0.00     0.129 A 
ATOM      2  C   UNL d   1      33.234  20.271 -23.039  0.00  0.00     0.105 A 
ATOM      3  C   UNL d   1      33.231  19.532 -23.386  0.00  0.00     0.026 A 
ATOM      4  C   UNL d   1      33.236  19.666 -21.750  0.00  0.00     0.059 A 
ATOM      5  C   UNL d   1      33.230  18.860 -22.920  0.00  0.00     0.037 A 
ATOM      6  C   UNL d   1      33.233  18.937 -22.092  0.00  0.00     0.015 A 
ATOM      7  N   UNL d   1      33.235  20.956 -23.510  0.00  0.00    -0.242 NA
ATOM      8 BR   UNL d   1      33.239  19.708 -20.931  0.00  0.00    -0.047 Br
ATOM      9 BR   UNL d   1      33.227  18.099 -23.278  0.00  0.00    -0.049 Br
ATOM     10  C   UNL d   1      33.228  19.461 -24.201  0.00  0.00     0.004 A 
ATOM     11  C   UNL d   1      33.232  20.887 -24.332  0.00  0.00     0.099 A 
ATOM     12  C   UNL d   1      33.229  20.140 -24.683  0.00  0.00     0.021 A 
ENDROOT
BRANCH   1  13
ATOM     13  O   UNL d   1      33.240  21.105 -21.867  0.00  0.00    -0.257 OA
BRANCH  13  14
ATOM     14  C   UNL d   1      32.597  21.347 -21.471  0.00  0.00     0.378 C 
ATOM     15  N   UNL d   1      32.579  22.146 -21.151  0.00  0.00    -0.252 N 
ATOM     16  C   UNL d   1      33.207  22.642 -21.251  0.00  0.00     0.085 A 
ATOM     17  C   UNL d   1      31.902  22.406 -20.732  0.00  0.00     0.085 A 
ATOM     18  C   UNL d   1      33.190  23.415 -20.942  0.00  0.00     0.019 A 
ATOM     19  C   UNL d   1      32.546  23.689 -20.533  0.00  0.00     0.003 A 
ATOM     20  C   UNL d   1      31.886  23.162 -20.429  0.00  0.00     0.019 A 
ATOM     21  O   UNL d   1      31.966  20.854 -21.368  0.00  0.00    -0.237 OA
ENDBRANCH  13  14
ENDBRANCH   1  13
TORSDOF 2
ENDMDL
MODEL 2
REMARK VINA RESULT:      -2.5      3.667      4.942
REMARK  2 active torsions:
REMARK  status: ('A' for Active; 'I' for Inactive)
REMARK    1  A    between atoms: O_3  and  C_1 
REMARK    2  A    between atoms: C_2  and  O_3 
REMARK       I    between atoms: N_7  and  C_2 
ROOT
ATOM      1  C   UNL d   1      30.832  16.814 -24.089  0.00  0.00     0.129 A 
ATOM      2  C   UNL d   1      30.065  17.030 -24.304  0.00  0.00     0.105 A 
ATOM      3  C   UNL d   1      29.420  16.592 -24.061  0.00  0.00     0.026 A 
ATOM      4  C   UNL d   1      30.932  16.135 -23.614  0.00  0.00     0.059 A 
ATOM      5  C   UNL d   1      29.526  15.929 -23.596  0.00  0.00     0.037 A 
ATOM      6  C   UNL d   1      30.295  15.704 -23.374  0.00  0.00     0.015 A 
ATOM      7  N   UNL d   1      29.961  17.705 -24.777  0.00  0.00    -0.242 NA
ATOM      8 BR   UNL d   1      31.678  15.887 -23.379  0.00  0.00    -0.047 Br
ATOM      9 BR   UNL d   1      28.862  15.478 -23.345  0.00  0.00    -0.049 Br
ATOM     10  C   UNL d   1      28.665  16.818 -24.281  0.00  0.00     0.004 A 
ATOM     11  C   UNL d   1      29.200  17.934 -25.001  0.00  0.00     0.099 A 
ATOM     12  C   UNL d   1      28.548  17.492 -24.755  0.00  0.00     0.021 A 
ENDROOT
BRANCH   1  13
ATOM     13  O   UNL d   1      31.486  17.257 -24.336  0.00  0.00    -0.257 OA
BRANCH  13  14
ATOM     14  C   UNL d   1      31.888  17.679 -23.799  0.00  0.00     0.378 C 
ATOM     15  N   UNL d   1      32.350  18.357 -24.062  0.00  0.00    -0.252 N 
ATOM     16  C   UNL d   1      32.373  18.560 -24.842  0.00  0.00     0.085 A 
ATOM     17  C   UNL d   1      32.777  18.807 -23.499  0.00  0.00     0.085 A 
ATOM     18  C   UNL d   1      32.820  19.216 -25.096  0.00  0.00     0.019 A 
ATOM     19  C   UNL d   1      33.241  19.666 -24.570  0.00  0.00     0.003 A 
ATOM     20  C   UNL d   1      33.213  19.447 -23.748  0.00  0.00     0.019 A 
ATOM     21  O   UNL d   1      31.869  17.480 -23.017  0.00  0.00    -0.237 OA
ENDBRANCH  13  14
ENDBRANCH   1  13
TORSDOF 2
ENDMDL
MODEL 3
REMARK VINA RESULT:      -2.3      2.043      4.360
REMARK  2 active torsions:
REMARK  status: ('A' for Active; 'I' for Inactive)
REMARK    1  A    between atoms: O_3  and  C_1 
REMARK    2  A    between atoms: C_2  and  O_3 
REMARK       I    between atoms: N_7  and  C_2 
ROOT
ATOM      1  C   UNL d   1      33.240  19.676 -23.345  0.00  0.00     0.129 A 
ATOM      2  C   UNL d   1      33.240  20.027 -22.598  0.00  0.00     0.105 A 
ATOM      3  C   UNL d   1      33.240  20.839 -22.513  0.00  0.00     0.026 A 
ATOM      4  C   UNL d   1      33.241  20.174 -24.014  0.00  0.00     0.059 A 
ATOM      5  C   UNL d   1      33.240  21.320 -23.174  0.00  0.00     0.037 A 
ATOM      6  C   UNL d   1      33.241  20.975 -23.931  0.00  0.00     0.015 A 
ATOM      7  N   UNL d   1      33.239  19.535 -21.928  0.00  0.00    -0.242 NA
ATOM      8 BR   UNL d   1      33.241  19.864 -24.774  0.00  0.00    -0.047 Br
ATOM      9 BR   UNL d   1      33.240  22.156 -23.087  0.00  0.00    -0.049 Br
ATOM     10  C   UNL d   1      33.240  21.174 -21.767  0.00  0.00     0.004 A 
ATOM     11  C   UNL d   1      33.239  19.871 -21.174  0.00  0.00     0.099 A 
ATOM     12  C   UNL d   1      33.239  20.691 -21.089  0.00  0.00     0.021 A 
ENDROOT
BRANCH   1  13
ATOM     13  O   UNL d   1      33.240  18.853 -23.430  0.00  0.00    -0.257 OA
BRANCH  13  14
ATOM     14  C   UNL d   1      32.563  18.487 -23.623  0.00  0.00     0.378 C 
ATOM     15  N   UNL d   1      32.528  17.628 -23.583  0.00  0.00    -0.252 N 
ATOM     16  C   UNL d   1      33.172  17.200 -23.353  0.00  0.00     0.085 A 
ATOM     17  C   UNL d   1      31.816  17.236 -23.786  0.00  0.00     0.085 A 
ATOM     18  C   UNL d   1      33.138  16.369 -23.314  0.00  0.00     0.019 A 
ATOM     19  C   UNL d   1      32.460  15.968 -23.505  0.00  0.00     0.003 A 
ATOM     20  C   UNL d   1      31.783  16.423 -23.748  0.00  0.00     0.019 A 
ATOM     21  O   UNL d   1      31.916  18.910 -23.854  0.00  0.00    -0.237 OA
ENDBRANCH  13  14
ENDBRANCH   1  13
TORSDOF 2
ENDMDL
MODEL 4
REMARK VINA RESULT:      -1.5      4.471      5.894
REMARK  2 active torsions:
REMARK  status: ('A' for Active; 'I' for Inactive)
REMARK    1  A    between atoms: O_3  and  C_1 
REMARK    2  A    between atoms: C_2  and  O_3 
REMARK       I    between atoms: N_7  and  C_2 
ROOT
ATOM      1  C   UNL d   1      30.957  17.167 -24.503  0.00  0.00     0.129 A 
ATOM      2  C   UNL d   1      31.623  16.784 -24.201  0.00  0.00     0.105 A 
ATOM      3  C   UNL d   1      32.350  17.156 -24.181  0.00  0.00     0.026 A 
ATOM      4  C   UNL d   1      31.045  17.945 -24.789  0.00  0.00     0.059 A 
ATOM      5  C   UNL d   1      32.428  17.919 -24.463  0.00  0.00     0.037 A 
ATOM      6  C   UNL d   1      31.762  18.312 -24.769  0.00  0.00     0.015 A 
ATOM      7  N   UNL d   1      31.540  16.008 -23.915  0.00  0.00    -0.242 NA
ATOM      8 BR   UNL d   1      30.407  18.360 -25.097  0.00  0.00    -0.047 Br
ATOM      9 BR   UNL d   1      33.176  18.302 -24.443  0.00  0.00    -0.049 Br
ATOM     10  C   UNL d   1      33.002  16.766 -23.879  0.00  0.00     0.004 A 
ATOM     11  C   UNL d   1      32.197  15.613 -23.610  0.00  0.00     0.099 A 
ATOM     12  C   UNL d   1      32.931  15.989 -23.590  0.00  0.00     0.021 A 
ENDROOT
BRANCH   1  13
ATOM     13  O   UNL d   1      30.221  16.790 -24.523  0.00  0.00    -0.257 OA
BRANCH  13  14
ATOM     14  C   UNL d   1      29.687  16.960 -23.961  0.00  0.00     0.378 C 
ATOM     15  N   UNL d   1      28.961  16.499 -23.922  0.00  0.00    -0.252 N 
ATOM     16  C   UNL d   1      28.825  15.902 -24.448  0.00  0.00     0.085 A 
ATOM     17  C   UNL d   1      28.394  16.674 -23.332  0.00  0.00     0.085 A 
ATOM     18  C   UNL d   1      28.123  15.455 -24.410  0.00  0.00     0.019 A 
ATOM     19  C   UNL d   1      27.560  15.607 -23.847  0.00  0.00     0.003 A 
ATOM     20  C   UNL d   1      27.708  16.237 -23.295  0.00  0.00     0.019 A 
ATOM     21  O   UNL d   1      29.818  17.556 -23.433  0.00  0.00    -0.237 OA
ENDBRANCH  13  14
ENDBRANCH   1  13
TORSDOF 2
ENDMDL
MODEL 5
REMARK VINA RESULT:      -1.0      2.714      3.781
REMARK  2 active torsions:
REMARK  status: ('A' for Active; 'I' for Inactive)
REMARK    1  A    between atoms: O_3  and  C_1 
REMARK    2  A    between atoms: C_2  and  O_3 
REMARK       I    between atoms: N_7  and  C_2 
ROOT
ATOM      1  C   UNL d   1      32.039  17.668 -24.301  0.00  0.00     0.129 A 
ATOM      2  C   UNL d   1      31.246  17.609 -24.523  0.00  0.00     0.105 A 
ATOM      3  C   UNL d   1      30.857  16.891 -24.507  0.00  0.00     0.026 A 
ATOM      4  C   UNL d   1      32.434  16.975 -24.060  0.00  0.00     0.059 A 
ATOM      5  C   UNL d   1      31.252  16.215 -24.270  0.00  0.00     0.037 A 
ATOM      6  C   UNL d   1      32.050  16.266 -24.044  0.00  0.00     0.015 A 
ATOM      7  N   UNL d   1      30.848  18.297 -24.764  0.00  0.00    -0.242 NA
ATOM      8 BR   UNL d   1      33.222  16.992 -23.832  0.00  0.00    -0.047 Br
ATOM      9 BR   UNL d   1      30.851  15.476 -24.254  0.00  0.00    -0.049 Br
ATOM     10  C   UNL d   1      30.071  16.845 -24.730  0.00  0.00     0.004 A 
ATOM     11  C   UNL d   1      30.055  18.253 -24.988  0.00  0.00     0.099 A 
ATOM     12  C   UNL d   1      29.662  17.528 -24.973  0.00  0.00     0.021 A 
ENDROOT
BRANCH   1  13
ATOM     13  O   UNL d   1      32.433  18.395 -24.317  0.00  0.00    -0.257 OA
BRANCH  13  14
ATOM     14  C   UNL d   1      32.591  18.762 -23.631  0.00  0.00     0.378 C 
ATOM     15  N   UNL d   1      32.802  19.596 -23.643  0.00  0.00    -0.252 N 
ATOM     16  C   UNL d   1      32.840  20.000 -24.340  0.00  0.00     0.085 A 
ATOM     17  C   UNL d   1      32.970  19.988 -22.922  0.00  0.00     0.085 A 
ATOM     18  C   UNL d   1      33.045  20.808 -24.352  0.00  0.00     0.019 A 
ATOM     19  C   UNL d   1      33.211  21.208 -23.667  0.00  0.00     0.003 A 
ATOM     20  C   UNL d   1      33.170  20.777 -22.934  0.00  0.00     0.019 A 
ATOM     21  O   UNL d   1      32.555  18.362 -22.931  0.00  0.00    -0.237 OA
ENDBRANCH  13  14
ENDBRANCH   1  13
TORSDOF 2
ENDMDL
MODEL 6
REMARK VINA RESULT:      -0.2      4.249      5.852
REMARK  2 active torsions:
REMARK  status: ('A' for Active; 'I' for Inactive)
REMARK    1  A    between atoms: O_3  and  C_1 
REMARK    2  A    between atoms: C_2  and  O_3 
REMARK       I    between atoms: N_7  and  C_2 
ROOT
ATOM      1  C   UNL d   1      31.422  16.466 -23.861  0.00  0.00     0.129 A 
ATOM      2  C   UNL d   1      31.436  17.214 -24.210  0.00  0.00     0.105 A 
ATOM      3  C   UNL d   1      32.031  17.747 -24.042  0.00  0.00     0.026 A 
ATOM      4  C   UNL d   1      32.034  16.268 -23.330  0.00  0.00     0.059 A 
ATOM      5  C   UNL d   1      32.628  17.545 -23.521  0.00  0.00     0.037 A 
ATOM      6  C   UNL d   1      32.622  16.794 -23.165  0.00  0.00     0.015 A 
ATOM      7  N   UNL d   1      30.828  17.416 -24.740  0.00  0.00    -0.242 NA
ATOM      8 BR   UNL d   1      32.057  15.535 -22.962  0.00  0.00    -0.047 Br
ATOM      9 BR   UNL d   1      33.241  18.094 -23.348  0.00  0.00    -0.049 Br
ATOM     10  C   UNL d   1      32.033  18.485 -24.396  0.00  0.00     0.004 A 
ATOM     11  C   UNL d   1      30.828  18.160 -25.097  0.00  0.00     0.099 A 
ATOM     12  C   UNL d   1      31.430  18.699 -24.927  0.00  0.00     0.021 A 
ENDROOT
BRANCH   1  13
ATOM     13  O   UNL d   1      30.819  15.927 -24.031  0.00  0.00    -0.257 OA
BRANCH  13  14
ATOM     14  C   UNL d   1      30.209  15.862 -23.529  0.00  0.00     0.378 C 
ATOM     15  N   UNL d   1      29.421  15.723 -23.847  0.00  0.00    -0.252 N 
ATOM     16  C   UNL d   1      29.303  15.659 -24.642  0.00  0.00     0.085 A 
ATOM     17  C   UNL d   1      28.772  15.654 -23.321  0.00  0.00     0.085 A 
ATOM     18  C   UNL d   1      28.541  15.524 -24.949  0.00  0.00     0.019 A 
ATOM     19  C   UNL d   1      27.898  15.454 -24.460  0.00  0.00     0.003 A 
ATOM     20  C   UNL d   1      28.027  15.522 -23.621  0.00  0.00     0.019 A 
ATOM     21  O   UNL d   1      30.320  15.926 -22.733  0.00  0.00    -0.237 OA
ENDBRANCH  13  14
ENDBRANCH   1  13
TORSDOF 2
ENDMDL
MODEL 7
REMARK VINA RESULT:      -0.1      2.134      3.038
REMARK  2 active torsions:
REMARK  status: ('A' for Active; 'I' for Inactive)
REMARK    1  A    between atoms: O_3  and  C_1 
REMARK    2  A    between atoms: C_2  and  O_3 
REMARK       I    between atoms: N_7  and  C_2 
ROOT
ATOM      1  C   UNL d   1      32.860  22.268 -20.778  0.00  0.00     0.129 A 
ATOM      2  C   UNL d   1      32.815  21.527 -21.138  0.00  0.00     0.105 A 
ATOM      3  C   UNL d   1      32.777  21.455 -21.951  0.00  0.00     0.026 A 
ATOM      4  C   UNL d   1      32.865  22.944 -21.266  0.00  0.00     0.059 A 
ATOM      5  C   UNL d   1      32.782  22.123 -22.423  0.00  0.00     0.037 A 
ATOM      6  C   UNL d   1      32.827  22.874 -22.068  0.00  0.00     0.015 A 
ATOM      7  N   UNL d   1      32.809  20.850 -20.656  0.00  0.00    -0.242 NA
ATOM      8 BR   UNL d   1      32.909  23.699 -20.946  0.00  0.00    -0.047 Br
ATOM      9 BR   UNL d   1      32.743  22.049 -23.259  0.00  0.00    -0.049 Br
ATOM     10  C   UNL d   1      32.733  20.714 -22.296  0.00  0.00     0.004 A 
ATOM     11  C   UNL d   1      32.765  20.102 -21.002  0.00  0.00     0.099 A 
ATOM     12  C   UNL d   1      32.726  20.030 -21.823  0.00  0.00     0.021 A 
ENDROOT
BRANCH   1  13
ATOM     13  O   UNL d   1      32.899  22.340 -19.955  0.00  0.00    -0.257 OA
BRANCH  13  14
ATOM     14  C   UNL d   1      32.413  22.852 -19.591  0.00  0.00     0.378 C 
ATOM     15  N   UNL d   1      32.528  23.011 -18.753  0.00  0.00    -0.252 N 
ATOM     16  C   UNL d   1      33.120  22.648 -18.343  0.00  0.00     0.085 A 
ATOM     17  C   UNL d   1      32.019  23.551 -18.364  0.00  0.00     0.085 A 
ATOM     18  C   UNL d   1      33.231  22.802 -17.532  0.00  0.00     0.019 A 
ATOM     19  C   UNL d   1      32.751  23.320 -17.134  0.00  0.00     0.003 A 
ATOM     20  C   UNL d   1      32.128  23.702 -17.571  0.00  0.00     0.019 A 
ATOM     21  O   UNL d   1      31.820  23.219 -19.997  0.00  0.00    -0.237 OA
ENDBRANCH  13  14
ENDBRANCH   1  13
TORSDOF 2
ENDMDL
MODEL 8
REMARK VINA RESULT:       0.0      5.366      6.221
REMARK  2 active torsions:
REMARK  status: ('A' for Active; 'I' for Inactive)
REMARK    1  A    between atoms: O_3  and  C_1 
REMARK    2  A    between atoms: C_2  and  O_3 
REMARK       I    between atoms: N_7  and  C_2 
ROOT
ATOM      1  C   UNL d   1      29.556  16.505 -23.792  0.00  0.00     0.129 A 
ATOM      2  C   UNL d   1      29.276  17.197 -24.144  0.00  0.00     0.105 A 
ATOM      3  C   UNL d   1      28.557  17.520 -23.927  0.00  0.00     0.026 A 
ATOM      4  C   UNL d   1      29.085  16.142 -23.207  0.00  0.00     0.059 A 
ATOM      5  C   UNL d   1      28.102  17.158 -23.353  0.00  0.00     0.037 A 
ATOM      6  C   UNL d   1      28.376  16.460 -22.993  0.00  0.00     0.015 A 
ATOM      7  N   UNL d   1      29.741  17.562 -24.728  0.00  0.00    -0.242 NA
ATOM      8 BR   UNL d   1      29.327  15.453 -22.833  0.00  0.00    -0.047 Br
ATOM      9 BR   UNL d   1      27.363  17.490 -23.130  0.00  0.00    -0.049 Br
ATOM     10  C   UNL d   1      28.292  18.206 -24.284  0.00  0.00     0.004 A 
ATOM     11  C   UNL d   1      29.475  18.254 -25.089  0.00  0.00     0.099 A 
ATOM     12  C   UNL d   1      28.749  18.580 -24.870  0.00  0.00     0.021 A 
ENDROOT
BRANCH   1  13
ATOM     13  O   UNL d   1      30.283  16.178 -24.012  0.00  0.00    -0.257 OA
BRANCH  13  14
ATOM     14  C   UNL d   1      30.897  16.239 -23.515  0.00  0.00     0.378 C 
ATOM     15  N   UNL d   1      31.678  15.996 -23.784  0.00  0.00    -0.252 N 
ATOM     16  C   UNL d   1      31.784  15.709 -24.531  0.00  0.00     0.085 A 
ATOM     17  C   UNL d   1      32.331  16.058 -23.263  0.00  0.00     0.085 A 
ATOM     18  C   UNL d   1      32.539  15.474 -24.792  0.00  0.00     0.019 A 
ATOM     19  C   UNL d   1      33.186  15.525 -24.305  0.00  0.00     0.003 A 
ATOM     20  C   UNL d   1      33.069  15.828 -23.518  0.00  0.00     0.019 A 
ATOM     21  O   UNL d   1      30.797  16.525 -22.767  0.00  0.00    -0.237 OA
ENDBRANCH  13  14
ENDBRANCH   1  13
TORSDOF 2
ENDMDL
