MODEL 1
REMARK VINA RESULT:      -8.9      0.000      0.000
REMARK  4 active torsions:
REMARK  status: ('A' for Active; 'I' for Inactive)
REMARK    1  A    between atoms: C_6  and  N_1 
REMARK    2  A    between atoms: C_12  and  C_6 
REMARK    3  A    between atoms: O_18  and  C_7 
REMARK    4  A    between atoms: O_19  and  C_10 
ROOT
ATOM      1  N   UNL d   1     -49.040  12.470  22.825  0.00  0.00    -0.251 N 
ATOM      2  C   UNL d   1     -49.158  11.874  22.251  0.00  0.00     0.378 A 
ATOM      3  C   UNL d   1     -49.428  13.153  22.565  0.00  0.00     0.092 A 
ATOM      4  O   UNL d   1     -49.618  12.193  21.640  0.00  0.00    -0.258 OA
ATOM      5  C   UNL d   1     -49.784  12.983  21.834  0.00  0.00     0.121 A 
ATOM      6  O   UNL d   1     -48.865  11.106  22.292  0.00  0.00    -0.237 OA
ATOM      7  C   UNL d   1     -49.498  13.900  22.901  0.00  0.00     0.020 A 
ATOM      8  C   UNL d   1     -50.213  13.575  21.446  0.00  0.00     0.026 A 
ATOM      9  C   UNL d   1     -49.928  14.482  22.506  0.00  0.00     0.002 A 
ATOM     10  C   UNL d   1     -50.284  14.320  21.781  0.00  0.00     0.002 A 
ATOM     11  C   UNL d   1     -49.996  15.234  22.849  0.00  0.00     0.000 C 
ENDROOT
BRANCH   1  12
ATOM     12  C   UNL d   1     -48.620  12.428  23.535  0.00  0.00     0.085 C 
BRANCH  12  13
ATOM     13  C   UNL d   1     -47.832  12.184  23.531  0.00  0.00     0.020 A 
ATOM     14  C   UNL d   1     -47.243  12.724  23.362  0.00  0.00     0.028 A 
ATOM     15  C   UNL d   1     -46.457  12.492  23.356  0.00  0.00     0.116 A 
ATOM     16  C   UNL d   1     -46.265  11.704  23.523  0.00  0.00     0.116 A 
ATOM     17  C   UNL d   1     -46.858  11.162  23.693  0.00  0.00     0.026 A 
ATOM     18  C   UNL d   1     -47.647  11.406  23.697  0.00  0.00     0.004 A 
BRANCH  15  19
ATOM     19  O   UNL d   1     -45.866  13.030  23.187  0.00  0.00    -0.326 OA
ATOM     20  C   UNL d   1     -46.205  13.769  23.322  0.00  0.00     0.181 C 
ENDBRANCH  15  19
BRANCH  16  21
ATOM     21  O   UNL d   1     -45.477  11.465  23.518  0.00  0.00    -0.326 OA
ATOM     22  C   UNL d   1     -45.286  10.691  23.698  0.00  0.00     0.181 C 
ENDBRANCH  16  21
ENDBRANCH  12  13
ENDBRANCH   1  12
TORSDOF 4
ENDMDL
MODEL 2
REMARK VINA RESULT:      -8.6      1.331      2.158
REMARK  4 active torsions:
REMARK  status: ('A' for Active; 'I' for Inactive)
REMARK    1  A    between atoms: C_6  and  N_1 
REMARK    2  A    between atoms: C_12  and  C_6 
REMARK    3  A    between atoms: O_18  and  C_7 
REMARK    4  A    between atoms: O_19  and  C_10 
ROOT
ATOM      1  N   UNL d   1     -48.647  13.850  22.958  0.00  0.00    -0.251 N 
ATOM      2  C   UNL d   1     -48.760  14.443  22.380  0.00  0.00     0.378 A 
ATOM      3  C   UNL d   1     -49.292  13.333  22.922  0.00  0.00     0.092 A 
ATOM      4  O   UNL d   1     -49.475  14.288  21.990  0.00  0.00    -0.258 OA
ATOM      5  C   UNL d   1     -49.803  13.603  22.324  0.00  0.00     0.121 A 
ATOM      6  O   UNL d   1     -48.247  15.068  22.230  0.00  0.00    -0.237 OA
ATOM      7  C   UNL d   1     -49.474  12.658  23.354  0.00  0.00     0.020 A 
ATOM      8  C   UNL d   1     -50.500  13.184  22.168  0.00  0.00     0.026 A 
ATOM      9  C   UNL d   1     -50.171  12.249  23.190  0.00  0.00     0.002 A 
ATOM     10  C   UNL d   1     -50.681  12.510  22.600  0.00  0.00     0.002 A 
ATOM     11  C   UNL d   1     -50.350  11.568  23.629  0.00  0.00     0.000 C 
ENDROOT
BRANCH   1  12
ATOM     12  C   UNL d   1     -48.022  13.758  23.489  0.00  0.00     0.085 C 
BRANCH  12  13
ATOM     13  C   UNL d   1     -47.279  13.526  23.212  0.00  0.00     0.020 A 
ATOM     14  C   UNL d   1     -46.974  12.802  23.433  0.00  0.00     0.028 A 
ATOM     15  C   UNL d   1     -46.239  12.562  23.164  0.00  0.00     0.116 A 
ATOM     16  C   UNL d   1     -45.806  13.063  22.664  0.00  0.00     0.116 A 
ATOM     17  C   UNL d   1     -46.114  13.791  22.443  0.00  0.00     0.026 A 
ATOM     18  C   UNL d   1     -46.857  14.024  22.720  0.00  0.00     0.004 A 
BRANCH  15  19
ATOM     19  O   UNL d   1     -45.930  11.838  23.382  0.00  0.00    -0.326 OA
ATOM     20  C   UNL d   1     -46.568  11.422  23.698  0.00  0.00     0.181 C 
ENDBRANCH  15  19
BRANCH  16  21
ATOM     21  O   UNL d   1     -45.067  12.827  22.390  0.00  0.00    -0.326 OA
ATOM     22  C   UNL d   1     -44.682  13.274  21.825  0.00  0.00     0.181 C 
ENDBRANCH  16  21
ENDBRANCH  12  13
ENDBRANCH   1  12
TORSDOF 4
ENDMDL
MODEL 3
REMARK VINA RESULT:      -8.2      1.174      1.460
REMARK  4 active torsions:
REMARK  status: ('A' for Active; 'I' for Inactive)
REMARK    1  A    between atoms: C_6  and  N_1 
REMARK    2  A    between atoms: C_12  and  C_6 
REMARK    3  A    between atoms: O_18  and  C_7 
REMARK    4  A    between atoms: O_19  and  C_10 
ROOT
ATOM      1  N   UNL d   1     -48.771  12.360  23.266  0.00  0.00    -0.251 N 
ATOM      2  C   UNL d   1     -48.774  11.594  22.933  0.00  0.00     0.378 A 
ATOM      3  C   UNL d   1     -49.497  12.716  23.090  0.00  0.00     0.092 A 
ATOM      4  O   UNL d   1     -49.502  11.481  22.554  0.00  0.00    -0.258 OA
ATOM      5  C   UNL d   1     -49.948  12.174  22.651  0.00  0.00     0.121 A 
ATOM      6  O   UNL d   1     -48.157  11.051  22.978  0.00  0.00    -0.237 OA
ATOM      7  C   UNL d   1     -49.798  13.458  23.275  0.00  0.00     0.020 A 
ATOM      8  C   UNL d   1     -50.708  12.389  22.400  0.00  0.00     0.026 A 
ATOM      9  C   UNL d   1     -50.555  13.662  23.020  0.00  0.00     0.002 A 
ATOM     10  C   UNL d   1     -51.008  13.130  22.584  0.00  0.00     0.002 A 
ATOM     11  C   UNL d   1     -50.855  14.412  23.208  0.00  0.00     0.000 C 
ENDROOT
BRANCH   1  12
ATOM     12  C   UNL d   1     -48.175  12.734  23.698  0.00  0.00     0.085 C 
BRANCH  12  13
ATOM     13  C   UNL d   1     -47.462  12.927  23.330  0.00  0.00     0.020 A 
ATOM     14  C   UNL d   1     -47.376  13.656  22.973  0.00  0.00     0.028 A 
ATOM     15  C   UNL d   1     -46.672  13.858  22.605  0.00  0.00     0.116 A 
ATOM     16  C   UNL d   1     -46.047  13.314  22.598  0.00  0.00     0.116 A 
ATOM     17  C   UNL d   1     -46.135  12.580  22.958  0.00  0.00     0.026 A 
ATOM     18  C   UNL d   1     -46.848  12.387  23.326  0.00  0.00     0.004 A 
BRANCH  15  19
ATOM     19  O   UNL d   1     -46.583  14.587  22.247  0.00  0.00    -0.326 OA
ATOM     20  C   UNL d   1     -47.024  15.107  22.711  0.00  0.00     0.181 C 
ENDBRANCH  15  19
BRANCH  16  21
ATOM     21  O   UNL d   1     -45.338  13.511  22.230  0.00  0.00    -0.326 OA
ATOM     22  C   UNL d   1     -44.800  12.924  22.045  0.00  0.00     0.181 C 
ENDBRANCH  16  21
ENDBRANCH  12  13
ENDBRANCH   1  12
TORSDOF 4
ENDMDL
MODEL 4
REMARK VINA RESULT:      -8.1      1.508      4.262
REMARK  4 active torsions:
REMARK  status: ('A' for Active; 'I' for Inactive)
REMARK    1  A    between atoms: C_6  and  N_1 
REMARK    2  A    between atoms: C_12  and  C_6 
REMARK    3  A    between atoms: O_18  and  C_7 
REMARK    4  A    between atoms: O_19  and  C_10 
ROOT
ATOM      1  N   UNL d   1     -47.394  13.902  23.112  0.00  0.00    -0.251 N 
ATOM      2  C   UNL d   1     -46.973  14.486  22.687  0.00  0.00     0.378 A 
ATOM      3  C   UNL d   1     -46.935  13.213  23.117  0.00  0.00     0.092 A 
ATOM      4  O   UNL d   1     -46.258  14.154  22.433  0.00  0.00    -0.258 OA
ATOM      5  C   UNL d   1     -46.234  13.369  22.699  0.00  0.00     0.121 A 
ATOM      6  O   UNL d   1     -47.232  15.255  22.550  0.00  0.00    -0.237 OA
ATOM      7  C   UNL d   1     -47.069  12.473  23.448  0.00  0.00     0.020 A 
ATOM      8  C   UNL d   1     -45.670  12.768  22.618  0.00  0.00     0.026 A 
ATOM      9  C   UNL d   1     -46.500  11.882  23.361  0.00  0.00     0.002 A 
ATOM     10  C   UNL d   1     -45.803  12.029  22.948  0.00  0.00     0.002 A 
ATOM     11  C   UNL d   1     -46.640  11.137  23.697  0.00  0.00     0.000 C 
ENDROOT
BRANCH   1  12
ATOM     12  C   UNL d   1     -48.133  13.958  23.475  0.00  0.00     0.085 C 
BRANCH  12  13
ATOM     13  C   UNL d   1     -48.808  14.076  23.015  0.00  0.00     0.020 A 
ATOM     14  C   UNL d   1     -49.231  14.769  23.090  0.00  0.00     0.028 A 
ATOM     15  C   UNL d   1     -49.903  14.896  22.637  0.00  0.00     0.116 A 
ATOM     16  C   UNL d   1     -50.149  14.313  22.103  0.00  0.00     0.116 A 
ATOM     17  C   UNL d   1     -49.721  13.615  22.029  0.00  0.00     0.026 A 
ATOM     18  C   UNL d   1     -49.046  13.497  22.489  0.00  0.00     0.004 A 
BRANCH  15  19
ATOM     19  O   UNL d   1     -50.329  15.589  22.709  0.00  0.00    -0.326 OA
ATOM     20  C   UNL d   1     -50.428  15.695  23.521  0.00  0.00     0.181 C 
ENDBRANCH  15  19
BRANCH  16  21
ATOM     21  O   UNL d   1     -50.822  14.435  21.646  0.00  0.00    -0.326 OA
ATOM     22  C   UNL d   1     -51.064  13.860  21.118  0.00  0.00     0.181 C 
ENDBRANCH  16  21
ENDBRANCH  12  13
ENDBRANCH   1  12
TORSDOF 4
ENDMDL
MODEL 5
REMARK VINA RESULT:      -7.8      1.271      4.049
REMARK  4 active torsions:
REMARK  status: ('A' for Active; 'I' for Inactive)
REMARK    1  A    between atoms: C_6  and  N_1 
REMARK    2  A    between atoms: C_12  and  C_6 
REMARK    3  A    between atoms: O_18  and  C_7 
REMARK    4  A    between atoms: O_19  and  C_10 
ROOT
ATOM      1  N   UNL d   1     -48.062  12.388  22.664  0.00  0.00    -0.251 N 
ATOM      2  C   UNL d   1     -48.338  11.791  23.178  0.00  0.00     0.378 A 
ATOM      3  C   UNL d   1     -47.241  12.444  22.755  0.00  0.00     0.092 A 
ATOM      4  O   UNL d   1     -47.686  11.481  23.585  0.00  0.00    -0.258 OA
ATOM      5  C   UNL d   1     -47.009  11.884  23.324  0.00  0.00     0.121 A 
ATOM      6  O   UNL d   1     -49.122  11.556  23.262  0.00  0.00    -0.237 OA
ATOM      7  C   UNL d   1     -46.685  12.930  22.395  0.00  0.00     0.020 A 
ATOM      8  C   UNL d   1     -46.208  11.820  23.525  0.00  0.00     0.026 A 
ATOM      9  C   UNL d   1     -45.890  12.857  22.603  0.00  0.00     0.002 A 
ATOM     10  C   UNL d   1     -45.653  12.305  23.165  0.00  0.00     0.002 A 
ATOM     11  C   UNL d   1     -45.333  13.350  22.236  0.00  0.00     0.000 C 
ENDROOT
BRANCH   1  12
ATOM     12  C   UNL d   1     -48.493  12.861  22.142  0.00  0.00     0.085 C 
BRANCH  12  13
ATOM     13  C   UNL d   1     -49.009  13.433  22.439  0.00  0.00     0.020 A 
ATOM     14  C   UNL d   1     -49.776  13.468  22.162  0.00  0.00     0.028 A 
ATOM     15  C   UNL d   1     -50.296  14.032  22.450  0.00  0.00     0.116 A 
ATOM     16  C   UNL d   1     -50.036  14.568  23.026  0.00  0.00     0.116 A 
ATOM     17  C   UNL d   1     -49.264  14.531  23.304  0.00  0.00     0.026 A 
ATOM     18  C   UNL d   1     -48.748  13.959  23.007  0.00  0.00     0.004 A 
BRANCH  15  19
ATOM     19  O   UNL d   1     -51.064  14.070  22.174  0.00  0.00    -0.326 OA
ATOM     20  C   UNL d   1     -51.064  13.624  21.481  0.00  0.00     0.181 C 
ENDBRANCH  15  19
BRANCH  16  21
ATOM     21  O   UNL d   1     -50.554  15.136  23.319  0.00  0.00    -0.326 OA
ATOM     22  C   UNL d   1     -50.270  15.872  23.534  0.00  0.00     0.181 C 
ENDBRANCH  16  21
ENDBRANCH  12  13
ENDBRANCH   1  12
TORSDOF 4
ENDMDL
MODEL 6
REMARK VINA RESULT:      -7.4      1.315      4.151
REMARK  4 active torsions:
REMARK  status: ('A' for Active; 'I' for Inactive)
REMARK    1  A    between atoms: C_6  and  N_1 
REMARK    2  A    between atoms: C_12  and  C_6 
REMARK    3  A    between atoms: O_18  and  C_7 
REMARK    4  A    between atoms: O_19  and  C_10 
ROOT
ATOM      1  N   UNL d   1     -47.581  13.843  23.135  0.00  0.00    -0.251 N 
ATOM      2  C   UNL d   1     -47.281  14.535  22.776  0.00  0.00     0.378 A 
ATOM      3  C   UNL d   1     -47.007  13.251  23.064  0.00  0.00     0.092 A 
ATOM      4  O   UNL d   1     -46.524  14.367  22.486  0.00  0.00    -0.258 OA
ATOM      5  C   UNL d   1     -46.355  13.574  22.664  0.00  0.00     0.121 A 
ATOM      6  O   UNL d   1     -47.676  15.256  22.723  0.00  0.00    -0.237 OA
ATOM      7  C   UNL d   1     -47.000  12.468  23.313  0.00  0.00     0.020 A 
ATOM      8  C   UNL d   1     -45.694  13.097  22.517  0.00  0.00     0.026 A 
ATOM      9  C   UNL d   1     -46.337  12.002  23.161  0.00  0.00     0.002 A 
ATOM     10  C   UNL d   1     -45.687  12.315  22.765  0.00  0.00     0.002 A 
ATOM     11  C   UNL d   1     -46.334  11.212  23.414  0.00  0.00     0.000 C 
ENDROOT
BRANCH   1  12
ATOM     12  C   UNL d   1     -48.311  13.727  23.504  0.00  0.00     0.085 C 
BRANCH  12  13
ATOM     13  C   UNL d   1     -48.984  13.590  23.047  0.00  0.00     0.020 A 
ATOM     14  C   UNL d   1     -49.458  12.945  23.207  0.00  0.00     0.028 A 
ATOM     15  C   UNL d   1     -50.129  12.801  22.759  0.00  0.00     0.116 A 
ATOM     16  C   UNL d   1     -50.322  13.318  22.141  0.00  0.00     0.116 A 
ATOM     17  C   UNL d   1     -49.845  13.966  21.980  0.00  0.00     0.026 A 
ATOM     18  C   UNL d   1     -49.171  14.103  22.438  0.00  0.00     0.004 A 
BRANCH  15  19
ATOM     19  O   UNL d   1     -50.605  12.157  22.917  0.00  0.00    -0.326 OA
ATOM     20  C   UNL d   1     -50.409  11.930  23.685  0.00  0.00     0.181 C 
ENDBRANCH  15  19
BRANCH  16  21
ATOM     21  O   UNL d   1     -50.995  13.178  21.687  0.00  0.00    -0.326 OA
ATOM     22  C   UNL d   1     -51.026  13.442  20.915  0.00  0.00     0.181 C 
ENDBRANCH  16  21
ENDBRANCH  12  13
ENDBRANCH   1  12
TORSDOF 4
ENDMDL
MODEL 7
REMARK VINA RESULT:      -6.0      8.250      9.928
REMARK  4 active torsions:
REMARK  status: ('A' for Active; 'I' for Inactive)
REMARK    1  A    between atoms: C_6  and  N_1 
REMARK    2  A    between atoms: C_12  and  C_6 
REMARK    3  A    between atoms: O_18  and  C_7 
REMARK    4  A    between atoms: O_19  and  C_10 
ROOT
ATOM      1  N   UNL d   1     -40.284  15.017  20.065  0.00  0.00    -0.251 N 
ATOM      2  C   UNL d   1     -40.814  14.389  20.218  0.00  0.00     0.378 A 
ATOM      3  C   UNL d   1     -39.724  15.030  20.673  0.00  0.00     0.092 A 
ATOM      4  O   UNL d   1     -40.578  14.019  20.920  0.00  0.00    -0.258 OA
ATOM      5  C   UNL d   1     -39.904  14.414  21.201  0.00  0.00     0.121 A 
ATOM      6  O   UNL d   1     -41.457  14.181  19.749  0.00  0.00    -0.237 OA
ATOM      7  C   UNL d   1     -39.079  15.522  20.808  0.00  0.00     0.020 A 
ATOM      8  C   UNL d   1     -39.427  14.300  21.868  0.00  0.00     0.026 A 
ATOM      9  C   UNL d   1     -38.610  15.399  21.476  0.00  0.00     0.002 A 
ATOM     10  C   UNL d   1     -38.783  14.791  22.003  0.00  0.00     0.002 A 
ATOM     11  C   UNL d   1     -37.961  15.898  21.608  0.00  0.00     0.000 C 
ENDROOT
BRANCH   1  12
ATOM     12  C   UNL d   1     -40.283  15.551  19.435  0.00  0.00     0.085 C 
BRANCH  12  13
ATOM     13  C   UNL d   1     -40.087  15.289  18.677  0.00  0.00     0.020 A 
ATOM     14  C   UNL d   1     -40.633  15.351  18.074  0.00  0.00     0.028 A 
ATOM     15  C   UNL d   1     -40.449  15.094  17.318  0.00  0.00     0.116 A 
ATOM     16  C   UNL d   1     -39.700  14.771  17.171  0.00  0.00     0.116 A 
ATOM     17  C   UNL d   1     -39.151  14.709  17.779  0.00  0.00     0.026 A 
ATOM     18  C   UNL d   1     -39.347  14.970  18.537  0.00  0.00     0.004 A 
BRANCH  15  19
ATOM     19  O   UNL d   1     -40.993  15.155  16.712  0.00  0.00    -0.326 OA
ATOM     20  C   UNL d   1     -41.395  15.860  16.857  0.00  0.00     0.181 C 
ENDBRANCH  15  19
BRANCH  16  21
ATOM     21  O   UNL d   1     -39.509  14.511  16.414  0.00  0.00    -0.326 OA
ATOM     22  C   UNL d   1     -38.826  14.077  16.293  0.00  0.00     0.181 C 
ENDBRANCH  16  21
ENDBRANCH  12  13
ENDBRANCH   1  12
TORSDOF 4
ENDMDL
