MODEL 1
REMARK VINA RESULT:      -3.6      0.000      0.000
REMARK  4 active torsions:
REMARK  status: ('A' for Active; 'I' for Inactive)
REMARK    1  A    between atoms: C_6  and  C_1 
REMARK       I    between atoms: N_7  and  C_1 
REMARK    2  A    between atoms: N_3  and  C_5 
REMARK    3  A    between atoms: C_19  and  N_7 
REMARK    4  A    between atoms: C_8  and  C_10 
ROOT
ATOM      1  C   UNL d   1     -41.513-123.136 -52.382  0.00  0.00     0.019 A 
ATOM      2  C   UNL d   1     -41.253-122.987 -54.004  0.00  0.00     0.085 A 
ATOM      3  C   UNL d   1     -41.259-122.425 -52.696  0.00  0.00     0.003 A 
ATOM      4  C   UNL d   1     -41.639-123.781 -52.881  0.00  0.00     0.003 A 
ATOM      5  C   UNL d   1     -41.129-122.350 -53.507  0.00  0.00     0.019 A 
ATOM      6  C   UNL d   1     -41.509-123.707 -53.692  0.00  0.00     0.019 A 
ENDROOT
BRANCH   1   7
ATOM      7  C   UNL d   1     -41.642-123.210 -51.570  0.00  0.00     0.103 A 
ATOM      8  N   UNL d   1     -42.248-122.788 -51.210  0.00  0.00    -0.147 NA
ATOM      9  N   UNL d   1     -42.377-122.862 -50.398  0.00  0.00    -0.130 NA
ATOM     10  C   UNL d   1     -41.902-123.359 -49.948  0.00  0.00     0.169 A 
ATOM     11  C   UNL d   1     -41.294-123.784 -50.309  0.00  0.00     0.041 A 
ATOM     12  C   UNL d   1     -41.164-123.710 -51.121  0.00  0.00     0.024 A 
BRANCH  10  13
ATOM     13  N   UNL d   1     -42.032-123.434 -49.136  0.00  0.00    -0.288 N 
ATOM     14  C   UNL d   1     -41.395-123.466 -48.618  0.00  0.00     0.082 A 
ATOM     15  C   UNL d   1     -41.525-123.540 -47.807  0.00  0.00     0.019 A 
ATOM     16  C   UNL d   1     -42.291-123.583 -47.514  0.00  0.00     0.003 A 
ATOM     17  C   UNL d   1     -42.932-123.551 -48.033  0.00  0.00     0.019 A 
ATOM     18  C   UNL d   1     -42.412-123.657 -46.701  0.00  0.00     0.000 C 
ATOM     19  C   UNL d   1     -42.803-123.476 -48.845  0.00  0.00     0.082 A 
ENDBRANCH  10  13
ENDBRANCH   1   7
BRANCH   2  20
ATOM     20  N   UNL d   1     -41.123-122.913 -54.816  0.00  0.00    -0.206 NA
ATOM     21  C   UNL d   1     -41.634-122.462 -55.276  0.00  0.00     0.302 C 
ATOM     22  O   UNL d   1     -41.504-122.387 -56.091  0.00  0.00    -0.263 OA
BRANCH  21  23
ATOM     23  C   UNL d   1     -42.279-122.084 -54.925  0.00  0.00     0.158 A 
ATOM     24  O   UNL d   1     -43.039-122.392 -55.018  0.00  0.00    -0.300 OA
ATOM     25  C   UNL d   1     -43.568-121.901 -54.608  0.00  0.00     0.123 A 
ATOM     26  C   UNL d   1     -43.130-121.293 -54.263  0.00  0.00     0.029 A 
ATOM     27  C   UNL d   1     -42.341-121.409 -54.460  0.00  0.00     0.032 A 
ENDBRANCH  21  23
ENDBRANCH   2  20
TORSDOF 4
ENDMDL
MODEL 2
REMARK VINA RESULT:      -3.6      2.211      5.639
REMARK  4 active torsions:
REMARK  status: ('A' for Active; 'I' for Inactive)
REMARK    1  A    between atoms: C_6  and  C_1 
REMARK       I    between atoms: N_7  and  C_1 
REMARK    2  A    between atoms: N_3  and  C_5 
REMARK    3  A    between atoms: C_19  and  N_7 
REMARK    4  A    between atoms: C_8  and  C_10 
ROOT
ATOM      1  C   UNL d   1     -41.434-122.765 -50.824  0.00  0.00     0.019 A 
ATOM      2  C   UNL d   1     -41.228-123.022 -49.207  0.00  0.00     0.085 A 
ATOM      3  C   UNL d   1     -41.492-122.143 -50.297  0.00  0.00     0.003 A 
ATOM      4  C   UNL d   1     -41.271-123.524 -50.544  0.00  0.00     0.003 A 
ATOM      5  C   UNL d   1     -41.389-122.271 -49.488  0.00  0.00     0.019 A 
ATOM      6  C   UNL d   1     -41.168-123.653 -49.736  0.00  0.00     0.019 A 
ENDROOT
BRANCH   1   7
ATOM      7  C   UNL d   1     -41.537-122.636 -51.633  0.00  0.00     0.103 A 
ATOM      8  N   UNL d   1     -42.027-122.031 -51.895  0.00  0.00    -0.147 NA
ATOM      9  N   UNL d   1     -42.130-121.903 -52.703  0.00  0.00    -0.130 NA
ATOM     10  C   UNL d   1     -41.742-122.380 -53.250  0.00  0.00     0.169 A 
ATOM     11  C   UNL d   1     -41.249-122.988 -52.987  0.00  0.00     0.041 A 
ATOM     12  C   UNL d   1     -41.147-123.116 -52.179  0.00  0.00     0.024 A 
BRANCH  10  13
ATOM     13  N   UNL d   1     -41.845-122.251 -54.058  0.00  0.00    -0.288 N 
ATOM     14  C   UNL d   1     -41.574-122.805 -54.601  0.00  0.00     0.082 A 
ATOM     15  C   UNL d   1     -41.677-122.677 -55.409  0.00  0.00     0.019 A 
ATOM     16  C   UNL d   1     -42.051-121.994 -55.675  0.00  0.00     0.003 A 
ATOM     17  C   UNL d   1     -42.324-121.437 -55.130  0.00  0.00     0.019 A 
ATOM     18  C   UNL d   1     -42.150-121.874 -56.485  0.00  0.00     0.000 C 
ATOM     19  C   UNL d   1     -42.221-121.566 -54.322  0.00  0.00     0.082 A 
ENDBRANCH  10  13
ENDBRANCH   1   7
BRANCH   2  20
ATOM     20  N   UNL d   1     -41.125-123.150 -48.399  0.00  0.00    -0.206 NA
ATOM     21  C   UNL d   1     -41.779-123.259 -47.912  0.00  0.00     0.302 C 
ATOM     22  O   UNL d   1     -41.675-123.388 -47.099  0.00  0.00    -0.263 OA
BRANCH  21  23
ATOM     23  C   UNL d   1     -42.539-123.239 -48.233  0.00  0.00     0.158 A 
ATOM     24  O   UNL d   1     -42.964-122.531 -48.244  0.00  0.00    -0.300 OA
ATOM     25  C   UNL d   1     -43.702-122.679 -48.597  0.00  0.00     0.123 A 
ATOM     26  C   UNL d   1     -43.726-123.478 -48.801  0.00  0.00     0.029 A 
ATOM     27  C   UNL d   1     -43.012-123.816 -48.576  0.00  0.00     0.032 A 
ENDBRANCH  21  23
ENDBRANCH   2  20
TORSDOF 4
ENDMDL
MODEL 3
REMARK VINA RESULT:      -1.4      0.807      1.152
REMARK  4 active torsions:
REMARK  status: ('A' for Active; 'I' for Inactive)
REMARK    1  A    between atoms: C_6  and  C_1 
REMARK       I    between atoms: N_7  and  C_1 
REMARK    2  A    between atoms: N_3  and  C_5 
REMARK    3  A    between atoms: C_19  and  N_7 
REMARK    4  A    between atoms: C_8  and  C_10 
ROOT
ATOM      1  C   UNL d   1     -41.751-122.120 -52.374  0.00  0.00     0.019 A 
ATOM      2  C   UNL d   1     -41.627-121.636 -53.947  0.00  0.00     0.085 A 
ATOM      3  C   UNL d   1     -41.185-122.449 -52.864  0.00  0.00     0.003 A 
ATOM      4  C   UNL d   1     -42.262-121.543 -52.670  0.00  0.00     0.003 A 
ATOM      5  C   UNL d   1     -41.123-122.207 -53.650  0.00  0.00     0.019 A 
ATOM      6  C   UNL d   1     -42.200-121.301 -53.456  0.00  0.00     0.019 A 
ENDROOT
BRANCH   1   7
ATOM      7  C   UNL d   1     -41.814-122.363 -51.588  0.00  0.00     0.103 A 
ATOM      8  N   UNL d   1     -42.427-122.083 -51.118  0.00  0.00    -0.147 NA
ATOM      9  N   UNL d   1     -42.489-122.325 -50.332  0.00  0.00    -0.130 NA
ATOM     10  C   UNL d   1     -41.938-122.847 -50.016  0.00  0.00     0.169 A 
ATOM     11  C   UNL d   1     -41.321-123.129 -50.487  0.00  0.00     0.041 A 
ATOM     12  C   UNL d   1     -41.259-122.886 -51.273  0.00  0.00     0.024 A 
BRANCH  10  13
ATOM     13  N   UNL d   1     -42.000-123.090 -49.230  0.00  0.00    -0.288 N 
ATOM     14  C   UNL d   1     -41.325-123.280 -48.803  0.00  0.00     0.082 A 
ATOM     15  C   UNL d   1     -41.387-123.522 -48.016  0.00  0.00     0.019 A 
ATOM     16  C   UNL d   1     -42.125-123.574 -47.657  0.00  0.00     0.003 A 
ATOM     17  C   UNL d   1     -42.805-123.383 -48.086  0.00  0.00     0.019 A 
ATOM     18  C   UNL d   1     -42.178-123.817 -46.871  0.00  0.00     0.000 C 
ATOM     19  C   UNL d   1     -42.742-123.141 -48.872  0.00  0.00     0.082 A 
ENDBRANCH  10  13
ENDBRANCH   1   7
BRANCH   2  20
ATOM     20  N   UNL d   1     -41.564-121.393 -54.733  0.00  0.00    -0.206 NA
ATOM     21  C   UNL d   1     -41.884-121.854 -55.334  0.00  0.00     0.302 C 
ATOM     22  O   UNL d   1     -41.822-121.611 -56.124  0.00  0.00    -0.263 OA
BRANCH  21  23
ATOM     23  C   UNL d   1     -42.269-122.561 -55.149  0.00  0.00     0.158 A 
ATOM     24  O   UNL d   1     -43.081-122.563 -55.003  0.00  0.00    -0.300 OA
ATOM     25  C   UNL d   1     -43.311-123.344 -54.834  0.00  0.00     0.123 A 
ATOM     26  C   UNL d   1     -42.637-123.817 -54.876  0.00  0.00     0.029 A 
ATOM     27  C   UNL d   1     -42.002-123.334 -55.069  0.00  0.00     0.032 A 
ENDBRANCH  21  23
ENDBRANCH   2  20
TORSDOF 4
ENDMDL
