MODEL 1
REMARK VINA RESULT:      76.6      0.000      0.000
REMARK  3 active torsions:
REMARK  status: ('A' for Active; 'I' for Inactive)
REMARK    1  A    between atoms: C_8  and  C_1 
REMARK    2  A    between atoms: N_4  and  C_2 
REMARK       I    between atoms: C_6  and  N_4 
REMARK    3  A    between atoms: C_10  and  C_6 
ROOT
ATOM      1  C   UNL d   1      56.118  40.291  55.049  0.00  0.00     0.177 A 
ATOM      2  C   UNL d   1      56.220  39.661  54.512  0.00  0.00     0.114 A 
ATOM      3  O   UNL d   1      56.036  40.976  54.607  0.00  0.00    -0.301 OA
ATOM      4  C   UNL d   1      56.198  39.971  53.751  0.00  0.00     0.043 A 
ATOM      5  C   UNL d   1      56.085  40.781  53.805  0.00  0.00     0.102 A 
ATOM      6  C   UNL d   1      56.268  39.613  53.011  0.00  0.00     0.004 A 
ATOM      7  C   UNL d   1      56.040  41.243  53.123  0.00  0.00     0.025 A 
ATOM      8  C   UNL d   1      56.224  40.073  52.321  0.00  0.00     0.000 A 
ATOM      9  C   UNL d   1      56.110  40.886  52.388  0.00  0.00     0.002 A 
ENDROOT
BRANCH   2  10
ATOM     10  N   UNL d   1      56.324  38.866  54.711  0.00  0.00    -0.206 NA
ATOM     11  C   UNL d   1      57.076  38.581  54.895  0.00  0.00     0.279 C 
ATOM     12  O   UNL d   1      57.181  37.781  55.096  0.00  0.00    -0.265 OA
BRANCH  11  13
ATOM     13  C   UNL d   1      57.724  39.092  54.881  0.00  0.00     0.058 A 
ATOM     14  C   UNL d   1      57.916  39.531  55.552  0.00  0.00     0.005 A 
ATOM     15  C   UNL d   1      58.564  40.041  55.537  0.00  0.00     0.000 A 
ATOM     16  C   UNL d   1      59.020  40.112  54.851  0.00  0.00     0.000 A 
ATOM     17  C   UNL d   1      58.828  39.673  54.180  0.00  0.00     0.000 A 
ATOM     18  C   UNL d   1      58.180  39.162  54.194  0.00  0.00     0.005 A 
ENDBRANCH  11  13
ENDBRANCH   2  10
BRANCH   1  19
ATOM     19  C   UNL d   1      56.101  40.251  55.885  0.00  0.00     0.321 C 
ATOM     20  O   UNL d   1      56.033  39.511  56.261  0.00  0.00    -0.261 OA
ATOM     21  N   UNL d   1      56.149  40.931  56.324  0.00  0.00    -0.101 N 
ENDBRANCH   1  19
TORSDOF 3
ENDMDL
