MODEL 1
REMARK VINA RESULT:      -3.7      0.000      0.000
REMARK  6 active torsions:
REMARK  status: ('A' for Active; 'I' for Inactive)
REMARK    1  A    between atoms: N_2  and  S_1 
REMARK    2  A    between atoms: C_4  and  S_1 
REMARK    3  A    between atoms: C_5  and  N_3 
REMARK    4  A    between atoms: C_10  and  C_4 
REMARK    5  A    between atoms: C_14  and  C_10 
REMARK    6  A    between atoms: O_15  and  C_13 
ROOT
ATOM      1  N   UNL d   1      57.953   0.352  31.126  0.00  0.00    -0.226 N 
ATOM      2  N   UNL d   1      59.170   0.020  30.051  0.00  0.00    -0.300 N 
ATOM      3  C   UNL d   1      58.748   0.356  31.379  0.00  0.00     0.111 A 
ATOM      4  C   UNL d   1      57.783   0.184  30.352  0.00  0.00     0.111 A 
ATOM      5  C   UNL d   1      58.375   0.019  29.815  0.00  0.00     0.100 A 
ATOM      6  C   UNL d   1      59.340   0.191  30.841  0.00  0.00     0.100 A 
ENDROOT
BRANCH   1   7
ATOM      7  S   UNL d   1      57.342   0.519  31.666  0.00  0.00     0.272 S 
ATOM      8  O   UNL d   1      57.894   0.454  32.305  0.00  0.00    -0.200 OA
ATOM      9  O   UNL d   1      56.812   0.580  31.047  0.00  0.00    -0.200 OA
BRANCH   7  10
ATOM     10  C   UNL d   1      56.749   0.682  32.204  0.00  0.00     0.116 C 
BRANCH  10  11
ATOM     11  C   UNL d   1      56.561   0.121  32.797  0.00  0.00     0.014 C 
BRANCH  11  12
ATOM     12  C   UNL d   1      55.919   0.263  33.345  0.00  0.00     0.001 A 
ATOM     13  C   UNL d   1      55.122   0.120  33.107  0.00  0.00     0.000 A 
ATOM     14  C   UNL d   1      54.513   0.261  33.645  0.00  0.00     0.000 A 
ATOM     15  C   UNL d   1      54.670   0.533  34.395  0.00  0.00     0.000 A 
ATOM     16  C   UNL d   1      55.467   0.670  34.618  0.00  0.00     0.000 A 
ATOM     17  C   UNL d   1      56.091   0.536  34.096  0.00  0.00     0.000 A 
ENDBRANCH  11  12
ENDBRANCH  10  11
ENDBRANCH   7  10
ENDBRANCH   1   7
BRANCH   2  18
ATOM     18  C   UNL d   1      59.777  -0.143  29.529  0.00  0.00     0.086 A 
ATOM     19  C   UNL d   1      59.862  -0.924  29.217  0.00  0.00     0.110 A 
ATOM     20  C   UNL d   1      60.476  -1.092  28.687  0.00  0.00     0.026 A 
ATOM     21  C   UNL d   1      61.024  -0.484  28.455  0.00  0.00     0.002 A 
ATOM     22  C   UNL d   1      60.922   0.269  28.772  0.00  0.00     0.002 A 
ATOM     23  C   UNL d   1      60.297   0.431  29.308  0.00  0.00     0.019 A 
BRANCH  19  24
ATOM     24  O   UNL d   1      59.335  -1.513  29.439  0.00  0.00    -0.327 OA
ATOM     25  C   UNL d   1      59.381  -2.269  29.116  0.00  0.00     0.181 C 
ENDBRANCH  19  24
ENDBRANCH   2  18
TORSDOF 6
ENDMDL
MODEL 2
REMARK VINA RESULT:      -3.4      1.118      5.644
REMARK  6 active torsions:
REMARK  status: ('A' for Active; 'I' for Inactive)
REMARK    1  A    between atoms: N_2  and  S_1 
REMARK    2  A    between atoms: C_4  and  S_1 
REMARK    3  A    between atoms: C_5  and  N_3 
REMARK    4  A    between atoms: C_10  and  C_4 
REMARK    5  A    between atoms: C_14  and  C_10 
REMARK    6  A    between atoms: O_15  and  C_13 
ROOT
ATOM      1  N   UNL d   1      56.884  -0.223  31.730  0.00  0.00    -0.226 N 
ATOM      2  N   UNL d   1      55.940   0.122  33.047  0.00  0.00    -0.300 N 
ATOM      3  C   UNL d   1      56.793  -0.786  32.339  0.00  0.00     0.111 A 
ATOM      4  C   UNL d   1      56.508   0.491  31.789  0.00  0.00     0.111 A 
ATOM      5  C   UNL d   1      56.040   0.671  32.434  0.00  0.00     0.100 A 
ATOM      6  C   UNL d   1      56.325  -0.605  32.984  0.00  0.00     0.100 A 
ENDROOT
BRANCH   1   7
ATOM      7  S   UNL d   1      57.359  -0.397  31.068  0.00  0.00     0.272 S 
ATOM      8  O   UNL d   1      57.627   0.406  31.054  0.00  0.00    -0.200 OA
ATOM      9  O   UNL d   1      57.097  -1.171  31.085  0.00  0.00    -0.200 OA
BRANCH   7  10
ATOM     10  C   UNL d   1      57.828  -0.558  30.419  0.00  0.00     0.116 C 
BRANCH  10  11
ATOM     11  C   UNL d   1      58.590  -0.216  30.362  0.00  0.00     0.014 C 
BRANCH  11  12
ATOM     12  C   UNL d   1      59.129  -0.449  29.741  0.00  0.00     0.001 A 
ATOM     13  C   UNL d   1      58.898  -1.036  29.180  0.00  0.00     0.000 A 
ATOM     14  C   UNL d   1      59.428  -1.252  28.586  0.00  0.00     0.000 A 
ATOM     15  C   UNL d   1      60.164  -0.909  28.534  0.00  0.00     0.000 A 
ATOM     16  C   UNL d   1      60.380  -0.327  29.098  0.00  0.00     0.000 A 
ATOM     17  C   UNL d   1      59.865  -0.096  29.701  0.00  0.00     0.000 A 
ENDBRANCH  11  12
ENDBRANCH  10  11
ENDBRANCH   7  10
ENDBRANCH   1   7
BRANCH   2  18
ATOM     18  C   UNL d   1      55.476   0.283  33.701  0.00  0.00     0.086 A 
ATOM     19  C   UNL d   1      55.843   0.518  34.425  0.00  0.00     0.110 A 
ATOM     20  C   UNL d   1      55.376   0.681  35.090  0.00  0.00     0.026 A 
ATOM     21  C   UNL d   1      54.529   0.615  35.049  0.00  0.00     0.002 A 
ATOM     22  C   UNL d   1      54.194   0.385  34.333  0.00  0.00     0.002 A 
ATOM     23  C   UNL d   1      54.674   0.221  33.664  0.00  0.00     0.019 A 
BRANCH  19  24
ATOM     24  O   UNL d   1      56.661   0.582  34.468  0.00  0.00    -0.327 OA
ATOM     25  C   UNL d   1      57.042   0.676  35.192  0.00  0.00     0.181 C 
ENDBRANCH  19  24
ENDBRANCH   2  18
TORSDOF 6
ENDMDL
MODEL 3
REMARK VINA RESULT:      -2.2      0.814      1.282
REMARK  6 active torsions:
REMARK  status: ('A' for Active; 'I' for Inactive)
REMARK    1  A    between atoms: N_2  and  S_1 
REMARK    2  A    between atoms: C_4  and  S_1 
REMARK    3  A    between atoms: C_5  and  N_3 
REMARK    4  A    between atoms: C_10  and  C_4 
REMARK    5  A    between atoms: C_14  and  C_10 
REMARK    6  A    between atoms: O_15  and  C_13 
ROOT
ATOM      1  N   UNL d   1      57.657   0.099  31.509  0.00  0.00    -0.226 N 
ATOM      2  N   UNL d   1      58.687  -0.357  30.293  0.00  0.00    -0.300 N 
ATOM      3  C   UNL d   1      58.198   0.648  31.189  0.00  0.00     0.111 A 
ATOM      4  C   UNL d   1      57.641  -0.657  31.220  0.00  0.00     0.111 A 
ATOM      5  C   UNL d   1      58.145  -0.892  30.621  0.00  0.00     0.100 A 
ATOM      6  C   UNL d   1      58.701   0.413  30.590  0.00  0.00     0.100 A 
ENDROOT
BRANCH   1   7
ATOM      7  S   UNL d   1      57.141   0.329  32.119  0.00  0.00     0.272 S 
ATOM      8  O   UNL d   1      56.480   0.096  31.643  0.00  0.00    -0.200 OA
ATOM      9  O   UNL d   1      57.780   0.552  32.576  0.00  0.00    -0.200 OA
BRANCH   7  10
ATOM     10  C   UNL d   1      56.625   0.551  32.712  0.00  0.00     0.116 C 
BRANCH  10  11
ATOM     11  C   UNL d   1      56.026   0.022  32.963  0.00  0.00     0.014 C 
BRANCH  11  12
ATOM     12  C   UNL d   1      55.533   0.206  33.637  0.00  0.00     0.001 A 
ATOM     13  C   UNL d   1      54.746   0.488  33.519  0.00  0.00     0.000 A 
ATOM     14  C   UNL d   1      54.281   0.662  34.178  0.00  0.00     0.000 A 
ATOM     15  C   UNL d   1      54.569   0.567  34.933  0.00  0.00     0.000 A 
ATOM     16  C   UNL d   1      55.353   0.286  35.035  0.00  0.00     0.000 A 
ATOM     17  C   UNL d   1      55.836   0.106  34.390  0.00  0.00     0.000 A 
ENDBRANCH  11  12
ENDBRANCH  10  11
ENDBRANCH   7  10
ENDBRANCH   1   7
BRANCH   2  18
ATOM     18  C   UNL d   1      59.199  -0.573  29.694  0.00  0.00     0.086 A 
ATOM     19  C   UNL d   1      59.997  -0.292  29.705  0.00  0.00     0.110 A 
ATOM     20  C   UNL d   1      60.519  -0.509  29.099  0.00  0.00     0.026 A 
ATOM     21  C   UNL d   1      60.258  -1.011  28.464  0.00  0.00     0.002 A 
ATOM     22  C   UNL d   1      59.477  -1.272  28.474  0.00  0.00     0.002 A 
ATOM     23  C   UNL d   1      58.954  -1.048  29.092  0.00  0.00     0.019 A 
BRANCH  19  24
ATOM     24  O   UNL d   1      60.252   0.193  30.316  0.00  0.00    -0.327 OA
ATOM     25  C   UNL d   1      61.018   0.497  30.327  0.00  0.00     0.181 C 
ENDBRANCH  19  24
ENDBRANCH   2  18
TORSDOF 6
ENDMDL
