MODEL 1
REMARK VINA RESULT:      -8.0      0.000      0.000
REMARK  4 active torsions:
REMARK  status: ('A' for Active; 'I' for Inactive)
REMARK       I    between atoms: C_3  and  N_1 
REMARK    1  A    between atoms: C_7  and  C_3 
REMARK    2  A    between atoms: C_9  and  C_4 
REMARK    3  A    between atoms: C_12  and  C_5 
REMARK    4  A    between atoms: O_20  and  C_17 
ROOT
ATOM      1  N   UNL d   1     -46.478  12.774  22.869  0.00  0.00    -0.194 N 
ATOM      2  N   UNL d   1     -45.698  12.533  22.927  0.00  0.00    -0.163 NA
ATOM      3  C   UNL d   1     -46.745  13.559  22.693  0.00  0.00     0.286 C 
ATOM      4  C   UNL d   1     -46.953  12.117  23.013  0.00  0.00     0.088 A 
ATOM      5  C   UNL d   1     -45.679  11.735  23.104  0.00  0.00     0.103 A 
ATOM      6  C   UNL d   1     -46.458  11.480  23.157  0.00  0.00     0.040 A 
ATOM      7  O   UNL d   1     -46.175  14.142  22.566  0.00  0.00    -0.265 OA
ENDROOT
BRANCH   4   8
ATOM      8  C   UNL d   1     -47.786  12.179  22.996  0.00  0.00     0.018 A 
ATOM      9  C   UNL d   1     -48.215  12.388  23.686  0.00  0.00     0.004 A 
ATOM     10  C   UNL d   1     -49.038  12.445  23.651  0.00  0.00     0.024 A 
ATOM     11  C   UNL d   1     -49.452  12.301  22.944  0.00  0.00     0.094 A 
ATOM     12  C   UNL d   1     -49.022  12.092  22.253  0.00  0.00     0.024 A 
ATOM     13  C   UNL d   1     -48.191  12.034  22.289  0.00  0.00     0.004 A 
BRANCH  11  14
ATOM     14  O   UNL d   1     -50.285  12.363  22.925  0.00  0.00    -0.328 OA
ATOM     15  C   UNL d   1     -50.748  11.814  23.361  0.00  0.00     0.181 C 
ENDBRANCH  11  14
ENDBRANCH   4   8
BRANCH   3  16
ATOM     16  C   UNL d   1     -47.540  13.737  22.650  0.00  0.00     0.087 A 
ATOM     17  S   UNL d   1     -48.138  13.569  22.089  0.00  0.00    -0.082 SA
ATOM     18  C   UNL d   1     -48.832  13.899  22.355  0.00  0.00     0.036 A 
ATOM     19  C   UNL d   1     -48.695  14.273  23.069  0.00  0.00     0.008 A 
ATOM     20  C   UNL d   1     -47.908  14.178  23.253  0.00  0.00     0.012 A 
ENDBRANCH   3  16
BRANCH   5  21
ATOM     21  C   UNL d   1     -45.053  11.213  23.223  0.00  0.00     0.019 A 
ATOM     22  C   UNL d   1     -44.291  11.432  22.982  0.00  0.00     0.002 A 
ATOM     23  C   UNL d   1     -43.672  10.908  23.103  0.00  0.00     0.000 A 
ATOM     24  C   UNL d   1     -43.795  10.177  23.456  0.00  0.00     0.000 A 
ATOM     25  C   UNL d   1     -44.558   9.957  23.698  0.00  0.00     0.000 A 
ATOM     26  C   UNL d   1     -45.181  10.483  23.577  0.00  0.00     0.002 A 
ENDBRANCH   5  21
TORSDOF 4
ENDMDL
MODEL 2
REMARK VINA RESULT:      -7.4      1.643      4.802
REMARK  4 active torsions:
REMARK  status: ('A' for Active; 'I' for Inactive)
REMARK       I    between atoms: C_3  and  N_1 
REMARK    1  A    between atoms: C_7  and  C_3 
REMARK    2  A    between atoms: C_9  and  C_4 
REMARK    3  A    between atoms: C_12  and  C_5 
REMARK    4  A    between atoms: O_20  and  C_17 
ROOT
ATOM      1  N   UNL d   1     -48.615  12.976  23.204  0.00  0.00    -0.194 N 
ATOM      2  N   UNL d   1     -49.357  13.308  23.293  0.00  0.00    -0.163 NA
ATOM      3  C   UNL d   1     -48.400  12.178  23.394  0.00  0.00     0.286 C 
ATOM      4  C   UNL d   1     -48.118  13.557  22.897  0.00  0.00     0.088 A 
ATOM      5  C   UNL d   1     -49.332  14.087  23.047  0.00  0.00     0.103 A 
ATOM      6  C   UNL d   1     -48.562  14.238  22.802  0.00  0.00     0.040 A 
ATOM      7  O   UNL d   1     -48.984  11.682  23.697  0.00  0.00    -0.265 OA
ENDROOT
BRANCH   4   8
ATOM      8  C   UNL d   1     -47.314  13.392  22.740  0.00  0.00     0.018 A 
ATOM      9  C   UNL d   1     -47.082  13.042  22.013  0.00  0.00     0.004 A 
ATOM     10  C   UNL d   1     -46.283  12.886  21.874  0.00  0.00     0.024 A 
ATOM     11  C   UNL d   1     -45.702  13.068  22.441  0.00  0.00     0.094 A 
ATOM     12  C   UNL d   1     -45.935  13.419  23.168  0.00  0.00     0.024 A 
ATOM     13  C   UNL d   1     -46.741  13.576  23.308  0.00  0.00     0.004 A 
BRANCH  11  14
ATOM     14  O   UNL d   1     -44.898  12.904  22.285  0.00  0.00    -0.328 OA
ATOM     15  C   UNL d   1     -44.465  13.414  21.777  0.00  0.00     0.181 C 
ENDBRANCH  11  14
ENDBRANCH   4   8
BRANCH   3  16
ATOM     16  C   UNL d   1     -47.639  11.906  23.281  0.00  0.00     0.087 A 
ATOM     17  S   UNL d   1     -46.910  12.059  23.663  0.00  0.00    -0.082 SA
ATOM     18  C   UNL d   1     -46.336  11.614  23.297  0.00  0.00     0.036 A 
ATOM     19  C   UNL d   1     -46.677  11.181  22.692  0.00  0.00     0.008 A 
ATOM     20  C   UNL d   1     -47.472  11.356  22.679  0.00  0.00     0.012 A 
ENDBRANCH   3  16
BRANCH   5  21
ATOM     21  C   UNL d   1     -49.909  14.674  23.016  0.00  0.00     0.019 A 
ATOM     22  C   UNL d   1     -50.255  14.864  22.287  0.00  0.00     0.002 A 
ATOM     23  C   UNL d   1     -50.829  15.448  22.261  0.00  0.00     0.000 A 
ATOM     24  C   UNL d   1     -51.064  15.844  22.941  0.00  0.00     0.000 A 
ATOM     25  C   UNL d   1     -50.719  15.654  23.671  0.00  0.00     0.000 A 
ATOM     26  C   UNL d   1     -50.142  15.067  23.698  0.00  0.00     0.002 A 
ENDBRANCH   5  21
TORSDOF 4
ENDMDL
MODEL 3
REMARK VINA RESULT:      -7.2      8.263      9.426
REMARK  4 active torsions:
REMARK  status: ('A' for Active; 'I' for Inactive)
REMARK       I    between atoms: C_3  and  N_1 
REMARK    1  A    between atoms: C_7  and  C_3 
REMARK    2  A    between atoms: C_9  and  C_4 
REMARK    3  A    between atoms: C_12  and  C_5 
REMARK    4  A    between atoms: O_20  and  C_17 
ROOT
ATOM      1  N   UNL d   1     -39.946  15.081  19.564  0.00  0.00    -0.194 N 
ATOM      2  N   UNL d   1     -39.980  15.094  20.382  0.00  0.00    -0.163 NA
ATOM      3  C   UNL d   1     -40.477  15.478  19.037  0.00  0.00     0.286 C 
ATOM      4  C   UNL d   1     -39.302  14.614  19.350  0.00  0.00     0.088 A 
ATOM      5  C   UNL d   1     -39.368  14.642  20.681  0.00  0.00     0.103 A 
ATOM      6  C   UNL d   1     -38.950  14.346  20.038  0.00  0.00     0.040 A 
ATOM      7  O   UNL d   1     -41.090  15.921  19.368  0.00  0.00    -0.265 OA
ENDROOT
BRANCH   4   8
ATOM      8  C   UNL d   1     -39.115  14.489  18.545  0.00  0.00     0.018 A 
ATOM      9  C   UNL d   1     -38.614  15.022  18.133  0.00  0.00     0.004 A 
ATOM     10  C   UNL d   1     -38.439  14.883  17.338  0.00  0.00     0.024 A 
ATOM     11  C   UNL d   1     -38.749  14.225  16.936  0.00  0.00     0.094 A 
ATOM     12  C   UNL d   1     -39.250  13.691  17.348  0.00  0.00     0.024 A 
ATOM     13  C   UNL d   1     -39.427  13.832  18.150  0.00  0.00     0.004 A 
BRANCH  11  14
ATOM     14  O   UNL d   1     -38.562  14.099  16.131  0.00  0.00    -0.328 OA
ATOM     15  C   UNL d   1     -37.957  13.551  15.930  0.00  0.00     0.181 C 
ENDBRANCH  11  14
ENDBRANCH   4   8
BRANCH   3  16
ATOM     16  C   UNL d   1     -40.390  15.427  18.228  0.00  0.00     0.087 A 
ATOM     17  S   UNL d   1     -39.844  15.756  17.685  0.00  0.00    -0.082 SA
ATOM     18  C   UNL d   1     -40.045  15.499  16.940  0.00  0.00     0.036 A 
ATOM     19  C   UNL d   1     -40.703  15.017  16.990  0.00  0.00     0.008 A 
ATOM     20  C   UNL d   1     -40.918  14.969  17.774  0.00  0.00     0.012 A 
ENDBRANCH   3  16
BRANCH   5  21
ATOM     21  C   UNL d   1     -39.141  14.464  21.452  0.00  0.00     0.019 A 
ATOM     22  C   UNL d   1     -39.335  13.724  21.772  0.00  0.00     0.002 A 
ATOM     23  C   UNL d   1     -39.107  13.552  22.540  0.00  0.00     0.000 A 
ATOM     24  C   UNL d   1     -38.692  14.098  22.993  0.00  0.00     0.000 A 
ATOM     25  C   UNL d   1     -38.497  14.839  22.674  0.00  0.00     0.000 A 
ATOM     26  C   UNL d   1     -38.726  15.012  21.901  0.00  0.00     0.002 A 
ENDBRANCH   5  21
TORSDOF 4
ENDMDL
MODEL 4
REMARK VINA RESULT:      -6.9      7.642      9.669
REMARK  4 active torsions:
REMARK  status: ('A' for Active; 'I' for Inactive)
REMARK       I    between atoms: C_3  and  N_1 
REMARK    1  A    between atoms: C_7  and  C_3 
REMARK    2  A    between atoms: C_9  and  C_4 
REMARK    3  A    between atoms: C_12  and  C_5 
REMARK    4  A    between atoms: O_20  and  C_17 
ROOT
ATOM      1  N   UNL d   1     -39.917  14.385  18.423  0.00  0.00    -0.194 N 
ATOM      2  N   UNL d   1     -39.845  14.193  17.631  0.00  0.00    -0.163 NA
ATOM      3  C   UNL d   1     -40.625  14.336  18.886  0.00  0.00     0.286 C 
ATOM      4  C   UNL d   1     -39.177  14.635  18.686  0.00  0.00     0.088 A 
ATOM      5  C   UNL d   1     -39.073  14.319  17.395  0.00  0.00     0.103 A 
ATOM      6  C   UNL d   1     -38.661  14.593  18.052  0.00  0.00     0.040 A 
ATOM      7  O   UNL d   1     -41.312  14.070  18.514  0.00  0.00    -0.265 OA
ENDROOT
BRANCH   4   8
ATOM      8  C   UNL d   1     -39.063  14.872  19.479  0.00  0.00     0.018 A 
ATOM      9  C   UNL d   1     -38.844  14.314  20.067  0.00  0.00     0.004 A 
ATOM     10  C   UNL d   1     -38.736  14.566  20.846  0.00  0.00     0.024 A 
ATOM     11  C   UNL d   1     -38.839  15.363  21.061  0.00  0.00     0.094 A 
ATOM     12  C   UNL d   1     -39.058  15.921  20.473  0.00  0.00     0.024 A 
ATOM     13  C   UNL d   1     -39.168  15.667  19.686  0.00  0.00     0.004 A 
BRANCH  11  14
ATOM     14  O   UNL d   1     -38.726  15.602  21.854  0.00  0.00    -0.328 OA
ATOM     15  C   UNL d   1     -37.964  15.856  22.101  0.00  0.00     0.181 C 
ENDBRANCH  11  14
ENDBRANCH   4   8
BRANCH   3  16
ATOM     16  C   UNL d   1     -40.632  14.542  19.675  0.00  0.00     0.087 A 
ATOM     17  S   UNL d   1     -40.591  15.275  20.079  0.00  0.00    -0.082 SA
ATOM     18  C   UNL d   1     -40.623  15.124  20.877  0.00  0.00     0.036 A 
ATOM     19  C   UNL d   1     -40.684  14.317  20.996  0.00  0.00     0.008 A 
ATOM     20  C   UNL d   1     -40.690  13.958  20.265  0.00  0.00     0.012 A 
ENDBRANCH   3  16
BRANCH   5  21
ATOM     21  C   UNL d   1     -38.695  14.219  16.670  0.00  0.00     0.019 A 
ATOM     22  C   UNL d   1     -38.393  13.474  16.469  0.00  0.00     0.002 A 
ATOM     23  C   UNL d   1     -38.019  13.379  15.746  0.00  0.00     0.000 A 
ATOM     24  C   UNL d   1     -37.940  14.008  15.223  0.00  0.00     0.000 A 
ATOM     25  C   UNL d   1     -38.242  14.754  15.423  0.00  0.00     0.000 A 
ATOM     26  C   UNL d   1     -38.618  14.850  16.150  0.00  0.00     0.002 A 
ENDBRANCH   5  21
TORSDOF 4
ENDMDL
MODEL 5
REMARK VINA RESULT:      -6.5      8.480      9.303
REMARK  4 active torsions:
REMARK  status: ('A' for Active; 'I' for Inactive)
REMARK       I    between atoms: C_3  and  N_1 
REMARK    1  A    between atoms: C_7  and  C_3 
REMARK    2  A    between atoms: C_9  and  C_4 
REMARK    3  A    between atoms: C_12  and  C_5 
REMARK    4  A    between atoms: O_20  and  C_17 
ROOT
ATOM      1  N   UNL d   1     -38.853  14.074  19.406  0.00  0.00    -0.194 N 
ATOM      2  N   UNL d   1     -38.609  13.922  20.173  0.00  0.00    -0.163 NA
ATOM      3  C   UNL d   1     -38.543  13.714  18.704  0.00  0.00     0.286 C 
ATOM      4  C   UNL d   1     -39.452  14.638  19.443  0.00  0.00     0.088 A 
ATOM      5  C   UNL d   1     -39.047  14.383  20.687  0.00  0.00     0.103 A 
ATOM      6  C   UNL d   1     -39.568  14.826  20.231  0.00  0.00     0.040 A 
ATOM      7  O   UNL d   1     -37.940  13.158  18.790  0.00  0.00    -0.265 OA
ENDROOT
BRANCH   4   8
ATOM      8  C   UNL d   1     -39.821  14.914  18.747  0.00  0.00     0.018 A 
ATOM      9  C   UNL d   1     -39.511  15.573  18.328  0.00  0.00     0.004 A 
ATOM     10  C   UNL d   1     -39.889  15.833  17.641  0.00  0.00     0.024 A 
ATOM     11  C   UNL d   1     -40.572  15.455  17.355  0.00  0.00     0.094 A 
ATOM     12  C   UNL d   1     -40.883  14.797  17.773  0.00  0.00     0.024 A 
ATOM     13  C   UNL d   1     -40.501  14.534  18.467  0.00  0.00     0.004 A 
BRANCH  11  14
ATOM     14  O   UNL d   1     -40.943  15.731  16.658  0.00  0.00    -0.328 OA
ATOM     15  C   UNL d   1     -41.761  15.922  16.676  0.00  0.00     0.181 C 
ENDBRANCH  11  14
ENDBRANCH   4   8
BRANCH   3  16
ATOM     16  C   UNL d   1     -38.829  13.908  17.966  0.00  0.00     0.087 A 
ATOM     17  S   UNL d   1     -38.773  14.593  17.488  0.00  0.00    -0.082 SA
ATOM     18  C   UNL d   1     -39.179  14.452  16.798  0.00  0.00     0.036 A 
ATOM     19  C   UNL d   1     -39.493  13.697  16.820  0.00  0.00     0.008 A 
ATOM     20  C   UNL d   1     -39.282  13.361  17.530  0.00  0.00     0.012 A 
ENDBRANCH   3  16
BRANCH   5  21
ATOM     21  C   UNL d   1     -39.035  14.454  21.507  0.00  0.00     0.019 A 
ATOM     22  C   UNL d   1     -39.330  13.835  21.972  0.00  0.00     0.002 A 
ATOM     23  C   UNL d   1     -39.316  13.911  22.789  0.00  0.00     0.000 A 
ATOM     24  C   UNL d   1     -39.017  14.586  23.148  0.00  0.00     0.000 A 
ATOM     25  C   UNL d   1     -38.722  15.207  22.683  0.00  0.00     0.000 A 
ATOM     26  C   UNL d   1     -38.735  15.131  21.863  0.00  0.00     0.002 A 
ENDBRANCH   5  21
TORSDOF 4
ENDMDL
