MODEL 1
REMARK VINA RESULT:      -6.6      0.000      0.000
REMARK  4 active torsions:
REMARK  status: ('A' for Active; 'I' for Inactive)
REMARK    1  A    between atoms: C_2  and  C_1 
REMARK       I    between atoms: N_7  and  C_1 
REMARK    2  A    between atoms: N_6  and  C_5 
REMARK    3  A    between atoms: C_12  and  N_7 
REMARK    4  A    between atoms: C_8  and  C_9 
ROOT
ATOM      1  C   UNL d   1     -47.168  12.289  23.129  0.00  0.00     0.021 A 
ATOM      2  C   UNL d   1     -48.398  12.892  23.534  0.00  0.00     0.085 A 
ATOM      3  C   UNL d   1     -47.628  12.964  23.249  0.00  0.00     0.021 A 
ATOM      4  C   UNL d   1     -47.479  11.543  23.295  0.00  0.00     0.002 A 
ATOM      5  C   UNL d   1     -48.243  11.476  23.578  0.00  0.00     0.002 A 
ATOM      6  C   UNL d   1     -48.703  12.151  23.698  0.00  0.00     0.019 A 
ENDROOT
BRANCH   1   7
ATOM      7  C   UNL d   1     -46.390  12.366  22.840  0.00  0.00     0.103 A 
ATOM      8  N   UNL d   1     -45.778  11.959  23.200  0.00  0.00    -0.147 NA
ATOM      9  N   UNL d   1     -45.009  12.037  22.911  0.00  0.00    -0.130 NA
ATOM     10  C   UNL d   1     -44.860  12.524  22.262  0.00  0.00     0.170 A 
ATOM     11  C   UNL d   1     -45.484  12.933  21.901  0.00  0.00     0.041 A 
ATOM     12  C   UNL d   1     -46.241  12.852  22.191  0.00  0.00     0.024 A 
BRANCH  10  13
ATOM     13  N   UNL d   1     -44.100  12.604  21.973  0.00  0.00    -0.284 N 
ATOM     14  C   UNL d   1     -43.514  12.073  22.208  0.00  0.00     0.108 A 
ATOM     15  C   UNL d   1     -42.745  12.150  21.919  0.00  0.00     0.142 A 
ATOM     16  O   UNL d   1     -42.561  12.759  21.393  0.00  0.00    -0.300 OA
ATOM     17  C   UNL d   1     -43.147  13.291  21.157  0.00  0.00     0.142 A 
ATOM     18  C   UNL d   1     -43.916  13.213  21.447  0.00  0.00     0.108 A 
ENDBRANCH  10  13
ENDBRANCH   1   7
BRANCH   2  19
ATOM     19  N   UNL d   1     -48.858  13.566  23.654  0.00  0.00    -0.208 NA
ATOM     20  C   UNL d   1     -49.335  13.853  23.054  0.00  0.00     0.280 C 
ATOM     21  O   UNL d   1     -49.354  13.463  22.327  0.00  0.00    -0.265 OA
BRANCH  20  22
ATOM     22  C   UNL d   1     -49.792  14.523  23.173  0.00  0.00     0.069 A 
ATOM     23  C   UNL d   1     -50.605  14.489  23.091  0.00  0.00     0.062 A 
ATOM     24 CL   UNL d   1     -50.972  13.770  22.885  0.00  0.00    -0.082 Cl
ATOM     25  C   UNL d   1     -51.064  15.163  23.211  0.00  0.00     0.012 A 
ATOM     26  C   UNL d   1     -50.711  15.872  23.413  0.00  0.00     0.001 A 
ATOM     27  C   UNL d   1     -49.891  15.912  23.497  0.00  0.00     0.000 A 
ATOM     28  C   UNL d   1     -49.431  15.238  23.377  0.00  0.00     0.006 A 
ENDBRANCH  20  22
ENDBRANCH   2  19
TORSDOF 4
ENDMDL
MODEL 2
REMARK VINA RESULT:      -6.1      7.629      9.530
REMARK  4 active torsions:
REMARK  status: ('A' for Active; 'I' for Inactive)
REMARK    1  A    between atoms: C_2  and  C_1 
REMARK       I    between atoms: N_7  and  C_1 
REMARK    2  A    between atoms: N_6  and  C_5 
REMARK    3  A    between atoms: C_12  and  N_7 
REMARK    4  A    between atoms: C_8  and  C_9 
ROOT
ATOM      1  C   UNL d   1     -40.175  14.578  19.048  0.00  0.00     0.021 A 
ATOM      2  C   UNL d   1     -40.154  14.776  20.463  0.00  0.00     0.085 A 
ATOM      3  C   UNL d   1     -39.778  14.820  19.730  0.00  0.00     0.021 A 
ATOM      4  C   UNL d   1     -40.948  14.293  19.100  0.00  0.00     0.002 A 
ATOM      5  C   UNL d   1     -41.317  14.251  19.829  0.00  0.00     0.002 A 
ATOM      6  C   UNL d   1     -40.919  14.493  20.511  0.00  0.00     0.019 A 
ENDROOT
BRANCH   1   7
ATOM      7  C   UNL d   1     -39.793  14.624  18.309  0.00  0.00     0.103 A 
ATOM      8  N   UNL d   1     -38.980  14.549  18.265  0.00  0.00    -0.147 NA
ATOM      9  N   UNL d   1     -38.605  14.595  17.530  0.00  0.00    -0.130 NA
ATOM     10  C   UNL d   1     -39.050  14.715  16.846  0.00  0.00     0.170 A 
ATOM     11  C   UNL d   1     -39.873  14.790  16.899  0.00  0.00     0.041 A 
ATOM     12  C   UNL d   1     -40.238  14.744  17.625  0.00  0.00     0.024 A 
BRANCH  10  13
ATOM     13  N   UNL d   1     -38.682  14.761  16.118  0.00  0.00    -0.284 N 
ATOM     14  C   UNL d   1     -38.617  15.490  15.737  0.00  0.00     0.108 A 
ATOM     15  C   UNL d   1     -38.246  15.541  15.001  0.00  0.00     0.142 A 
ATOM     16  O   UNL d   1     -37.940  14.861  14.647  0.00  0.00    -0.300 OA
ATOM     17  C   UNL d   1     -38.004  14.132  15.028  0.00  0.00     0.142 A 
ATOM     18  C   UNL d   1     -38.375  14.082  15.763  0.00  0.00     0.108 A 
ENDBRANCH  10  13
ENDBRANCH   1   7
BRANCH   2  19
ATOM     19  N   UNL d   1     -39.757  15.018  21.145  0.00  0.00    -0.208 NA
ATOM     20  C   UNL d   1     -39.409  14.465  21.638  0.00  0.00     0.280 C 
ATOM     21  O   UNL d   1     -39.457  13.663  21.450  0.00  0.00    -0.265 OA
BRANCH  20  22
ATOM     22  C   UNL d   1     -39.014  14.706  22.315  0.00  0.00     0.069 A 
ATOM     23  C   UNL d   1     -38.619  14.159  22.778  0.00  0.00     0.062 A 
ATOM     24 CL   UNL d   1     -38.617  13.354  22.562  0.00  0.00    -0.082 Cl
ATOM     25  C   UNL d   1     -38.222  14.401  23.460  0.00  0.00     0.012 A 
ATOM     26  C   UNL d   1     -38.219  15.189  23.678  0.00  0.00     0.001 A 
ATOM     27  C   UNL d   1     -38.616  15.744  23.214  0.00  0.00     0.000 A 
ATOM     28  C   UNL d   1     -39.014  15.502  22.532  0.00  0.00     0.006 A 
ENDBRANCH  20  22
ENDBRANCH   2  19
TORSDOF 4
ENDMDL
MODEL 3
REMARK VINA RESULT:      -5.2      2.528      6.517
REMARK  4 active torsions:
REMARK  status: ('A' for Active; 'I' for Inactive)
REMARK    1  A    between atoms: C_2  and  C_1 
REMARK       I    between atoms: N_7  and  C_1 
REMARK    2  A    between atoms: N_6  and  C_5 
REMARK    3  A    between atoms: C_12  and  N_7 
REMARK    4  A    between atoms: C_8  and  C_9 
ROOT
ATOM      1  C   UNL d   1     -44.304  12.944  21.912  0.00  0.00     0.021 A 
ATOM      2  C   UNL d   1     -43.059  13.127  21.234  0.00  0.00     0.085 A 
ATOM      3  C   UNL d   1     -43.822  13.388  21.410  0.00  0.00     0.021 A 
ATOM      4  C   UNL d   1     -44.022  12.240  22.238  0.00  0.00     0.002 A 
ATOM      5  C   UNL d   1     -43.265  11.986  22.061  0.00  0.00     0.002 A 
ATOM      6  C   UNL d   1     -42.784  12.429  21.559  0.00  0.00     0.019 A 
ENDROOT
BRANCH   1   7
ATOM      7  C   UNL d   1     -45.074  13.211  22.087  0.00  0.00     0.103 A 
ATOM      8  N   UNL d   1     -45.180  13.879  22.547  0.00  0.00    -0.147 NA
ATOM      9  N   UNL d   1     -45.945  14.139  22.718  0.00  0.00    -0.130 NA
ATOM     10  C   UNL d   1     -46.597  13.726  22.426  0.00  0.00     0.170 A 
ATOM     11  C   UNL d   1     -46.481  13.050  21.961  0.00  0.00     0.041 A 
ATOM     12  C   UNL d   1     -45.725  12.798  21.795  0.00  0.00     0.024 A 
BRANCH  10  13
ATOM     13  N   UNL d   1     -47.355  13.982  22.594  0.00  0.00    -0.284 N 
ATOM     14  C   UNL d   1     -47.906  13.452  22.906  0.00  0.00     0.108 A 
ATOM     15  C   UNL d   1     -48.672  13.706  23.076  0.00  0.00     0.142 A 
ATOM     16  O   UNL d   1     -48.888  14.489  22.935  0.00  0.00    -0.300 OA
ATOM     17  C   UNL d   1     -48.338  15.019  22.623  0.00  0.00     0.142 A 
ATOM     18  C   UNL d   1     -47.571  14.765  22.452  0.00  0.00     0.108 A 
ENDBRANCH  10  13
ENDBRANCH   1   7
BRANCH   2  19
ATOM     19  N   UNL d   1     -42.577  13.571  20.733  0.00  0.00    -0.208 NA
ATOM     20  C   UNL d   1     -41.867  13.874  21.003  0.00  0.00     0.280 C 
ATOM     21  O   UNL d   1     -41.634  13.734  21.783  0.00  0.00    -0.265 OA
BRANCH  20  22
ATOM     22  C   UNL d   1     -41.389  14.315  20.505  0.00  0.00     0.069 A 
ATOM     23  C   UNL d   1     -41.270  15.112  20.645  0.00  0.00     0.062 A 
ATOM     24 CL   UNL d   1     -41.636  15.480  21.297  0.00  0.00    -0.082 Cl
ATOM     25  C   UNL d   1     -40.788  15.556  20.143  0.00  0.00     0.012 A 
ATOM     26  C   UNL d   1     -40.425  15.202  19.501  0.00  0.00     0.001 A 
ATOM     27  C   UNL d   1     -40.542  14.399  19.355  0.00  0.00     0.000 A 
ATOM     28  C   UNL d   1     -41.024  13.955  19.857  0.00  0.00     0.006 A 
ENDBRANCH  20  22
ENDBRANCH   2  19
TORSDOF 4
ENDMDL
MODEL 4
REMARK VINA RESULT:      -5.1      0.790      1.151
REMARK  4 active torsions:
REMARK  status: ('A' for Active; 'I' for Inactive)
REMARK    1  A    between atoms: C_2  and  C_1 
REMARK       I    between atoms: N_7  and  C_1 
REMARK    2  A    between atoms: N_6  and  C_5 
REMARK    3  A    between atoms: C_12  and  N_7 
REMARK    4  A    between atoms: C_8  and  C_9 
ROOT
ATOM      1  C   UNL d   1     -46.132  12.387  22.975  0.00  0.00     0.021 A 
ATOM      2  C   UNL d   1     -47.437  12.847  23.331  0.00  0.00     0.085 A 
ATOM      3  C   UNL d   1     -46.707  12.979  22.970  0.00  0.00     0.021 A 
ATOM      4  C   UNL d   1     -46.287  11.664  23.341  0.00  0.00     0.002 A 
ATOM      5  C   UNL d   1     -47.012  11.538  23.698  0.00  0.00     0.002 A 
ATOM      6  C   UNL d   1     -47.588  12.129  23.693  0.00  0.00     0.019 A 
ENDROOT
BRANCH   1   7
ATOM      7  C   UNL d   1     -45.396  12.524  22.610  0.00  0.00     0.103 A 
ATOM      8  N   UNL d   1     -44.793  11.977  22.688  0.00  0.00    -0.147 NA
ATOM      9  N   UNL d   1     -44.065  12.116  22.324  0.00  0.00    -0.130 NA
ATOM     10  C   UNL d   1     -43.948  12.805  21.884  0.00  0.00     0.170 A 
ATOM     11  C   UNL d   1     -44.563  13.355  21.810  0.00  0.00     0.041 A 
ATOM     12  C   UNL d   1     -45.279  13.213  22.170  0.00  0.00     0.024 A 
BRANCH  10  13
ATOM     13  N   UNL d   1     -43.229  12.946  21.523  0.00  0.00    -0.284 N 
ATOM     14  C   UNL d   1     -43.204  13.139  20.721  0.00  0.00     0.108 A 
ATOM     15  C   UNL d   1     -42.480  13.282  20.352  0.00  0.00     0.142 A 
ATOM     16  O   UNL d   1     -41.779  13.232  20.786  0.00  0.00    -0.300 OA
ATOM     17  C   UNL d   1     -41.804  13.039  21.588  0.00  0.00     0.142 A 
ATOM     18  C   UNL d   1     -42.529  12.896  21.956  0.00  0.00     0.108 A 
ENDBRANCH  10  13
ENDBRANCH   1   7
BRANCH   2  19
ATOM     19  N   UNL d   1     -48.012  13.438  23.326  0.00  0.00    -0.208 NA
ATOM     20  C   UNL d   1     -48.601  13.437  22.758  0.00  0.00     0.280 C 
ATOM     21  O   UNL d   1     -48.618  12.840  22.188  0.00  0.00    -0.265 OA
BRANCH  20  22
ATOM     22  C   UNL d   1     -49.173  14.025  22.753  0.00  0.00     0.069 A 
ATOM     23  C   UNL d   1     -49.964  13.831  22.682  0.00  0.00     0.062 A 
ATOM     24 CL   UNL d   1     -50.193  13.032  22.614  0.00  0.00    -0.082 Cl
ATOM     25  C   UNL d   1     -50.539  14.422  22.677  0.00  0.00     0.012 A 
ATOM     26  C   UNL d   1     -50.323  15.208  22.743  0.00  0.00     0.001 A 
ATOM     27  C   UNL d   1     -49.526  15.409  22.815  0.00  0.00     0.000 A 
ATOM     28  C   UNL d   1     -48.951  14.817  22.820  0.00  0.00     0.006 A 
ENDBRANCH  20  22
ENDBRANCH   2  19
TORSDOF 4
ENDMDL
MODEL 5
REMARK VINA RESULT:      -5.0      2.484      4.217
REMARK  4 active torsions:
REMARK  status: ('A' for Active; 'I' for Inactive)
REMARK    1  A    between atoms: C_2  and  C_1 
REMARK       I    between atoms: N_7  and  C_1 
REMARK    2  A    between atoms: N_6  and  C_5 
REMARK    3  A    between atoms: C_12  and  N_7 
REMARK    4  A    between atoms: C_8  and  C_9 
ROOT
ATOM      1  C   UNL d   1     -43.130  12.938  21.470  0.00  0.00     0.021 A 
ATOM      2  C   UNL d   1     -44.488  12.924  21.915  0.00  0.00     0.085 A 
ATOM      3  C   UNL d   1     -43.869  13.301  21.520  0.00  0.00     0.021 A 
ATOM      4  C   UNL d   1     -43.010  12.197  21.815  0.00  0.00     0.002 A 
ATOM      5  C   UNL d   1     -43.626  11.828  22.205  0.00  0.00     0.002 A 
ATOM      6  C   UNL d   1     -44.365  12.191  22.255  0.00  0.00     0.019 A 
ENDROOT
BRANCH   1   7
ATOM      7  C   UNL d   1     -42.507  13.322  21.071  0.00  0.00     0.103 A 
ATOM      8  N   UNL d   1     -42.363  13.155  20.283  0.00  0.00    -0.147 NA
ATOM      9  N   UNL d   1     -41.745  13.537  19.891  0.00  0.00    -0.130 NA
ATOM     10  C   UNL d   1     -41.277  14.084  20.293  0.00  0.00     0.170 A 
ATOM     11  C   UNL d   1     -41.429  14.249  21.091  0.00  0.00     0.041 A 
ATOM     12  C   UNL d   1     -42.039  13.869  21.473  0.00  0.00     0.024 A 
BRANCH  10  13
ATOM     13  N   UNL d   1     -40.665  14.465  19.908  0.00  0.00    -0.284 N 
ATOM     14  C   UNL d   1     -39.883  14.277  20.095  0.00  0.00     0.108 A 
ATOM     15  C   UNL d   1     -39.262  14.658  19.708  0.00  0.00     0.142 A 
ATOM     16  O   UNL d   1     -39.422  15.229  19.134  0.00  0.00    -0.300 OA
ATOM     17  C   UNL d   1     -40.204  15.418  18.947  0.00  0.00     0.142 A 
ATOM     18  C   UNL d   1     -40.825  15.035  19.334  0.00  0.00     0.108 A 
ENDBRANCH  10  13
ENDBRANCH   1   7
BRANCH   2  19
ATOM     19  N   UNL d   1     -45.227  13.288  21.966  0.00  0.00    -0.208 NA
ATOM     20  C   UNL d   1     -45.690  13.191  22.633  0.00  0.00     0.280 C 
ATOM     21  O   UNL d   1     -45.415  12.726  23.257  0.00  0.00    -0.265 OA
BRANCH  20  22
ATOM     22  C   UNL d   1     -46.425  13.552  22.683  0.00  0.00     0.069 A 
ATOM     23  C   UNL d   1     -47.099  13.103  22.793  0.00  0.00     0.062 A 
ATOM     24 CL   UNL d   1     -47.042  12.274  22.856  0.00  0.00    -0.082 Cl
ATOM     25  C   UNL d   1     -47.838  13.466  22.843  0.00  0.00     0.012 A 
ATOM     26  C   UNL d   1     -47.902  14.279  22.783  0.00  0.00     0.001 A 
ATOM     27  C   UNL d   1     -47.225  14.737  22.671  0.00  0.00     0.000 A 
ATOM     28  C   UNL d   1     -46.486  14.373  22.621  0.00  0.00     0.006 A 
ENDBRANCH  20  22
ENDBRANCH   2  19
TORSDOF 4
ENDMDL
MODEL 6
REMARK VINA RESULT:      -5.0      1.824      5.754
REMARK  4 active torsions:
REMARK  status: ('A' for Active; 'I' for Inactive)
REMARK    1  A    between atoms: C_2  and  C_1 
REMARK       I    between atoms: N_7  and  C_1 
REMARK    2  A    between atoms: N_6  and  C_5 
REMARK    3  A    between atoms: C_12  and  N_7 
REMARK    4  A    between atoms: C_8  and  C_9 
ROOT
ATOM      1  C   UNL d   1     -47.159  12.789  23.190  0.00  0.00     0.021 A 
ATOM      2  C   UNL d   1     -45.765  12.561  22.972  0.00  0.00     0.085 A 
ATOM      3  C   UNL d   1     -46.422  13.058  22.934  0.00  0.00     0.021 A 
ATOM      4  C   UNL d   1     -47.238  12.021  23.484  0.00  0.00     0.002 A 
ATOM      5  C   UNL d   1     -46.584  11.532  23.520  0.00  0.00     0.002 A 
ATOM      6  C   UNL d   1     -45.847  11.801  23.264  0.00  0.00     0.019 A 
ENDROOT
BRANCH   1   7
ATOM      7  C   UNL d   1     -47.820  13.294  23.149  0.00  0.00     0.103 A 
ATOM      8  N   UNL d   1     -48.560  13.017  23.363  0.00  0.00    -0.147 NA
ATOM      9  N   UNL d   1     -49.212  13.521  23.321  0.00  0.00    -0.130 NA
ATOM     10  C   UNL d   1     -49.117  14.300  23.066  0.00  0.00     0.170 A 
ATOM     11  C   UNL d   1     -48.365  14.574  22.851  0.00  0.00     0.041 A 
ATOM     12  C   UNL d   1     -47.725  14.073  22.894  0.00  0.00     0.024 A 
BRANCH  10  13
ATOM     13  N   UNL d   1     -49.761  14.802  23.024  0.00  0.00    -0.284 N 
ATOM     14  C   UNL d   1     -50.329  14.691  22.435  0.00  0.00     0.108 A 
ATOM     15  C   UNL d   1     -50.980  15.195  22.389  0.00  0.00     0.142 A 
ATOM     16  O   UNL d   1     -51.064  15.811  22.932  0.00  0.00    -0.300 OA
ATOM     17  C   UNL d   1     -50.497  15.922  23.522  0.00  0.00     0.142 A 
ATOM     18  C   UNL d   1     -49.845  15.417  23.567  0.00  0.00     0.108 A 
ENDBRANCH  10  13
ENDBRANCH   1   7
BRANCH   2  19
ATOM     19  N   UNL d   1     -45.028  12.830  22.717  0.00  0.00    -0.208 NA
ATOM     20  C   UNL d   1     -44.711  12.559  22.013  0.00  0.00     0.280 C 
ATOM     21  O   UNL d   1     -45.131  12.013  21.559  0.00  0.00    -0.265 OA
BRANCH  20  22
ATOM     22  C   UNL d   1     -43.979  12.827  21.759  0.00  0.00     0.069 A 
ATOM     23  C   UNL d   1     -43.316  12.355  21.839  0.00  0.00     0.062 A 
ATOM     24 CL   UNL d   1     -43.383  11.597  22.179  0.00  0.00    -0.082 Cl
ATOM     25  C   UNL d   1     -42.579  12.624  21.583  0.00  0.00     0.012 A 
ATOM     26  C   UNL d   1     -42.505  13.366  21.248  0.00  0.00     0.001 A 
ATOM     27  C   UNL d   1     -43.171  13.847  21.166  0.00  0.00     0.000 A 
ATOM     28  C   UNL d   1     -43.908  13.577  21.421  0.00  0.00     0.006 A 
ENDBRANCH  20  22
ENDBRANCH   2  19
TORSDOF 4
ENDMDL
MODEL 7
REMARK VINA RESULT:      -4.1      5.099      9.384
REMARK  4 active torsions:
REMARK  status: ('A' for Active; 'I' for Inactive)
REMARK    1  A    between atoms: C_2  and  C_1 
REMARK       I    between atoms: N_7  and  C_1 
REMARK    2  A    between atoms: N_6  and  C_5 
REMARK    3  A    between atoms: C_12  and  N_7 
REMARK    4  A    between atoms: C_8  and  C_9 
ROOT
ATOM      1  C   UNL d   1     -40.487  14.758  19.895  0.00  0.00     0.021 A 
ATOM      2  C   UNL d   1     -39.643  14.992  18.766  0.00  0.00     0.085 A 
ATOM      3  C   UNL d   1     -40.243  14.559  19.133  0.00  0.00     0.021 A 
ATOM      4  C   UNL d   1     -40.131  15.389  20.291  0.00  0.00     0.002 A 
ATOM      5  C   UNL d   1     -39.537  15.815  19.923  0.00  0.00     0.002 A 
ATOM      6  C   UNL d   1     -39.294  15.616  19.161  0.00  0.00     0.019 A 
ENDROOT
BRANCH   1   7
ATOM      7  C   UNL d   1     -41.093  14.319  20.263  0.00  0.00     0.103 A 
ATOM      8  N   UNL d   1     -41.353  13.621  19.926  0.00  0.00    -0.147 NA
ATOM      9  N   UNL d   1     -41.954  13.189  20.293  0.00  0.00    -0.130 NA
ATOM     10  C   UNL d   1     -42.287  13.462  20.996  0.00  0.00     0.170 A 
ATOM     11  C   UNL d   1     -42.019  14.170  21.332  0.00  0.00     0.041 A 
ATOM     12  C   UNL d   1     -41.427  14.592  20.966  0.00  0.00     0.024 A 
BRANCH  10  13
ATOM     13  N   UNL d   1     -42.882  13.037  21.362  0.00  0.00    -0.284 N 
ATOM     14  C   UNL d   1     -43.667  13.279  21.284  0.00  0.00     0.108 A 
ATOM     15  C   UNL d   1     -44.270  12.853  21.652  0.00  0.00     0.142 A 
ATOM     16  O   UNL d   1     -44.088  12.184  22.099  0.00  0.00    -0.300 OA
ATOM     17  C   UNL d   1     -43.303  11.941  22.178  0.00  0.00     0.142 A 
ATOM     18  C   UNL d   1     -42.700  12.368  21.809  0.00  0.00     0.108 A 
ENDBRANCH  10  13
ENDBRANCH   1   7
BRANCH   2  19
ATOM     19  N   UNL d   1     -39.400  14.793  18.003  0.00  0.00    -0.208 NA
ATOM     20  C   UNL d   1     -38.705  14.377  17.887  0.00  0.00     0.280 C 
ATOM     21  O   UNL d   1     -38.246  14.157  18.538  0.00  0.00    -0.265 OA
BRANCH  20  22
ATOM     22  C   UNL d   1     -38.462  14.180  17.129  0.00  0.00     0.069 A 
ATOM     23  C   UNL d   1     -38.277  13.405  16.943  0.00  0.00     0.062 A 
ATOM     24 CL   UNL d   1     -38.334  12.812  17.526  0.00  0.00    -0.082 Cl
ATOM     25  C   UNL d   1     -38.033  13.206  16.181  0.00  0.00     0.012 A 
ATOM     26  C   UNL d   1     -37.974  13.782  15.604  0.00  0.00     0.001 A 
ATOM     27  C   UNL d   1     -38.160  14.565  15.786  0.00  0.00     0.000 A 
ATOM     28  C   UNL d   1     -38.404  14.764  16.549  0.00  0.00     0.006 A 
ENDBRANCH  20  22
ENDBRANCH   2  19
TORSDOF 4
ENDMDL
