MODEL 1
REMARK VINA RESULT:      -5.4      0.000      0.000
REMARK  3 active torsions:
REMARK  status: ('A' for Active; 'I' for Inactive)
REMARK    1  A    between atoms: C_6  and  C_1 
REMARK    2  A    between atoms: C_7  and  C_4 
REMARK    3  A    between atoms: O_14  and  C_6 
ROOT
ATOM      1  C   UNL d   1     -41.431-122.844 -51.969  0.00  0.00     0.167 A 
ATOM      2  C   UNL d   1     -41.249-122.317 -51.354  0.00  0.00     0.047 A 
ATOM      3  N   UNL d   1     -41.916-123.781 -51.025  0.00  0.00    -0.148 NA
ATOM      4  C   UNL d   1     -41.736-123.258 -50.411  0.00  0.00     0.105 A 
ATOM      5  N   UNL d   1     -41.765-123.578 -51.806  0.00  0.00    -0.143 NA
ENDROOT
BRANCH   4   6
ATOM      6  C   UNL d   1     -41.808-123.273 -49.590  0.00  0.00     0.019 A 
ATOM      7  C   UNL d   1     -42.497-122.987 -49.237  0.00  0.00     0.002 A 
ATOM      8  C   UNL d   1     -42.569-123.002 -48.418  0.00  0.00     0.000 A 
ATOM      9  C   UNL d   1     -43.107-122.690 -49.697  0.00  0.00     0.000 C 
ATOM     10  C   UNL d   1     -41.952-123.303 -47.951  0.00  0.00     0.000 A 
ATOM     11  C   UNL d   1     -41.269-123.586 -48.312  0.00  0.00     0.000 A 
ATOM     12  C   UNL d   1     -42.028-123.316 -47.128  0.00  0.00     0.000 C 
ATOM     13  C   UNL d   1     -41.194-123.572 -49.127  0.00  0.00     0.002 A 
ENDBRANCH   4   6
BRANCH   1  14
ATOM     14  C   UNL d   1     -41.274-122.628 -52.751  0.00  0.00     0.316 C 
ATOM     15  O   UNL d   1     -41.127-121.840 -52.936  0.00  0.00    -0.257 OA
BRANCH  14  16
ATOM     16  O   UNL d   1     -41.265-123.196 -53.341  0.00  0.00    -0.294 OA
ATOM     17  C   UNL d   1     -41.204-122.964 -54.164  0.00  0.00     0.185 C 
ENDBRANCH  14  16
ENDBRANCH   1  14
TORSDOF 3
ENDMDL
MODEL 2
REMARK VINA RESULT:      -5.3      1.284      1.996
REMARK  3 active torsions:
REMARK  status: ('A' for Active; 'I' for Inactive)
REMARK    1  A    between atoms: C_6  and  C_1 
REMARK    2  A    between atoms: C_7  and  C_4 
REMARK    3  A    between atoms: O_14  and  C_6 
ROOT
ATOM      1  C   UNL d   1     -41.496-122.518 -53.711  0.00  0.00     0.167 A 
ATOM      2  C   UNL d   1     -41.792-123.189 -53.323  0.00  0.00     0.047 A 
ATOM      3  N   UNL d   1     -41.123-121.960 -52.465  0.00  0.00    -0.148 NA
ATOM      4  C   UNL d   1     -41.416-122.627 -52.076  0.00  0.00     0.105 A 
ATOM      5  N   UNL d   1     -41.160-121.901 -53.283  0.00  0.00    -0.143 NA
ENDROOT
BRANCH   4   6
ATOM      6  C   UNL d   1     -41.471-122.869 -51.290  0.00  0.00     0.019 A 
ATOM      7  C   UNL d   1     -41.874-122.397 -50.747  0.00  0.00     0.002 A 
ATOM      8  C   UNL d   1     -41.929-122.639 -49.962  0.00  0.00     0.000 A 
ATOM      9  C   UNL d   1     -42.219-121.692 -50.983  0.00  0.00     0.000 C 
ATOM     10  C   UNL d   1     -41.581-123.352 -49.721  0.00  0.00     0.000 A 
ATOM     11  C   UNL d   1     -41.180-123.816 -50.270  0.00  0.00     0.000 A 
ATOM     12  C   UNL d   1     -41.637-123.592 -48.932  0.00  0.00     0.000 C 
ATOM     13  C   UNL d   1     -41.124-123.579 -51.052  0.00  0.00     0.002 A 
ENDBRANCH   4   6
BRANCH   1  14
ATOM     14  C   UNL d   1     -41.540-122.471 -54.536  0.00  0.00     0.316 C 
ATOM     15  O   UNL d   1     -41.179-123.047 -54.997  0.00  0.00    -0.257 OA
BRANCH  14  16
ATOM     16  O   UNL d   1     -41.943-121.852 -54.891  0.00  0.00    -0.294 OA
ATOM     17  C   UNL d   1     -42.240-121.933 -55.691  0.00  0.00     0.185 C 
ENDBRANCH  14  16
ENDBRANCH   1  14
TORSDOF 3
ENDMDL
MODEL 3
REMARK VINA RESULT:      -5.0      1.518      4.722
REMARK  3 active torsions:
REMARK  status: ('A' for Active; 'I' for Inactive)
REMARK    1  A    between atoms: C_6  and  C_1 
REMARK    2  A    between atoms: C_7  and  C_4 
REMARK    3  A    between atoms: O_14  and  C_6 
ROOT
ATOM      1  C   UNL d   1     -41.386-122.801 -51.282  0.00  0.00     0.167 A 
ATOM      2  C   UNL d   1     -41.179-122.128 -51.721  0.00  0.00     0.047 A 
ATOM      3  N   UNL d   1     -41.931-123.397 -52.444  0.00  0.00    -0.148 NA
ATOM      4  C   UNL d   1     -41.727-122.729 -52.884  0.00  0.00     0.105 A 
ATOM      5  N   UNL d   1     -41.762-123.438 -51.641  0.00  0.00    -0.143 NA
ENDROOT
BRANCH   4   6
ATOM      6  C   UNL d   1     -41.806-122.501 -53.672  0.00  0.00     0.019 A 
ATOM      7  C   UNL d   1     -41.502-122.985 -54.268  0.00  0.00     0.002 A 
ATOM      8  C   UNL d   1     -41.581-122.758 -55.055  0.00  0.00     0.000 A 
ATOM      9  C   UNL d   1     -41.123-123.687 -54.080  0.00  0.00     0.000 C 
ATOM     10  C   UNL d   1     -41.965-122.048 -55.247  0.00  0.00     0.000 A 
ATOM     11  C   UNL d   1     -42.265-121.572 -54.646  0.00  0.00     0.000 A 
ATOM     12  C   UNL d   1     -42.043-121.823 -56.037  0.00  0.00     0.000 C 
ATOM     13  C   UNL d   1     -42.188-121.795 -53.862  0.00  0.00     0.002 A 
ENDBRANCH   4   6
BRANCH   1  14
ATOM     14  C   UNL d   1     -41.210-122.830 -50.474  0.00  0.00     0.316 C 
ATOM     15  O   UNL d   1     -41.123-122.131 -50.050  0.00  0.00    -0.257 OA
BRANCH  14  16
ATOM     16  O   UNL d   1     -41.123-123.552 -50.097  0.00  0.00    -0.294 OA
ATOM     17  C   UNL d   1     -41.232-123.614 -49.249  0.00  0.00     0.185 C 
ENDBRANCH  14  16
ENDBRANCH   1  14
TORSDOF 3
ENDMDL
MODEL 4
REMARK VINA RESULT:      -4.4      2.004      4.171
REMARK  3 active torsions:
REMARK  status: ('A' for Active; 'I' for Inactive)
REMARK    1  A    between atoms: C_6  and  C_1 
REMARK    2  A    between atoms: C_7  and  C_4 
REMARK    3  A    between atoms: O_14  and  C_6 
ROOT
ATOM      1  C   UNL d   1     -42.275-123.145 -49.193  0.00  0.00     0.167 A 
ATOM      2  C   UNL d   1     -42.718-122.865 -49.837  0.00  0.00     0.047 A 
ATOM      3  N   UNL d   1     -41.206-123.464 -50.064  0.00  0.00    -0.148 NA
ATOM      4  C   UNL d   1     -41.644-123.186 -50.707  0.00  0.00     0.105 A 
ATOM      5  N   UNL d   1     -41.517-123.446 -49.305  0.00  0.00    -0.143 NA
ENDROOT
BRANCH   4   6
ATOM      6  C   UNL d   1     -41.515-123.121 -51.518  0.00  0.00     0.019 A 
ATOM      7  C   UNL d   1     -41.270-122.399 -51.833  0.00  0.00     0.002 A 
ATOM      8  C   UNL d   1     -41.141-122.333 -52.644  0.00  0.00     0.000 A 
ATOM      9  C   UNL d   1     -41.155-121.750 -51.347  0.00  0.00     0.000 C 
ATOM     10  C   UNL d   1     -41.258-122.989 -53.138  0.00  0.00     0.000 A 
ATOM     11  C   UNL d   1     -41.502-123.706 -52.814  0.00  0.00     0.000 A 
ATOM     12  C   UNL d   1     -41.128-122.920 -53.951  0.00  0.00     0.000 C 
ATOM     13  C   UNL d   1     -41.631-123.774 -52.008  0.00  0.00     0.002 A 
ENDBRANCH   4   6
BRANCH   1  14
ATOM     14  C   UNL d   1     -42.601-123.121 -48.433  0.00  0.00     0.316 C 
ATOM     15  O   UNL d   1     -42.808-122.398 -48.100  0.00  0.00    -0.257 OA
BRANCH  14  16
ATOM     16  O   UNL d   1     -42.717-123.815 -48.013  0.00  0.00    -0.294 OA
ATOM     17  C   UNL d   1     -42.877-123.789 -47.171  0.00  0.00     0.185 C 
ENDBRANCH  14  16
ENDBRANCH   1  14
TORSDOF 3
ENDMDL
