MODEL 1
REMARK VINA RESULT:      -2.4      0.000      0.000
REMARK  3 active torsions:
REMARK  status: ('A' for Active; 'I' for Inactive)
REMARK    1  A    between atoms: C_4  and  C_1 
REMARK    2  A    between atoms: C_9  and  N_2 
REMARK    3  A    between atoms: C_8  and  N_3 
ROOT
ATOM      1  C   UNL d   1      30.434  17.185 -24.322  0.00  0.00     0.139 A 
ATOM      2  N   UNL d   1      30.835  17.866 -24.558  0.00  0.00    -0.290 N 
ATOM      3  N   UNL d   1      29.642  17.257 -24.543  0.00  0.00    -0.290 N 
ATOM      4  C   UNL d   1      30.300  18.357 -24.921  0.00  0.00     0.101 A 
ATOM      5  C   UNL d   1      29.571  17.989 -24.914  0.00  0.00     0.101 A 
ENDROOT
BRANCH   2   6
ATOM      6  C   UNL d   1      31.636  18.099 -24.482  0.00  0.00     0.066 A 
ATOM      7  C   UNL d   1      32.163  17.997 -25.096  0.00  0.00     0.018 A 
ATOM      8  C   UNL d   1      32.941  18.226 -25.018  0.00  0.00     0.002 A 
ATOM      9  C   UNL d   1      33.200  18.564 -24.311  0.00  0.00     0.000 A 
ATOM     10  C   UNL d   1      32.672  18.666 -23.695  0.00  0.00     0.002 A 
ATOM     11  C   UNL d   1      31.888  18.436 -23.773  0.00  0.00     0.018 A 
ENDBRANCH   2   6
BRANCH   1  12
ATOM     12  C   UNL d   1      30.793  16.548 -23.930  0.00  0.00     0.063 A 
ATOM     13  S   UNL d   1      31.209  16.082 -24.509  0.00  0.00    -0.083 SA
ATOM     14  C   UNL d   1      31.562  15.453 -24.105  0.00  0.00     0.035 A 
ATOM     15  C   UNL d   1      31.383  15.511 -23.310  0.00  0.00     0.008 A 
ATOM     16  C   UNL d   1      30.905  16.190 -23.190  0.00  0.00     0.010 A 
ENDBRANCH   1  12
BRANCH   3  17
ATOM     17  C   UNL d   1      29.108  16.660 -24.380  0.00  0.00     0.066 A 
ATOM     18  C   UNL d   1      28.981  16.049 -24.916  0.00  0.00     0.018 A 
ATOM     19  C   UNL d   1      28.435  15.453 -24.731  0.00  0.00     0.002 A 
ATOM     20  C   UNL d   1      28.024  15.462 -24.031  0.00  0.00     0.000 A 
ATOM     21  C   UNL d   1      28.141  16.075 -23.477  0.00  0.00     0.002 A 
ATOM     22  C   UNL d   1      28.683  16.672 -23.654  0.00  0.00     0.018 A 
ENDBRANCH   3  17
TORSDOF 3
ENDMDL
MODEL 2
REMARK VINA RESULT:      -0.8      1.063      3.930
REMARK  3 active torsions:
REMARK  status: ('A' for Active; 'I' for Inactive)
REMARK    1  A    between atoms: C_4  and  C_1 
REMARK    2  A    between atoms: C_9  and  N_2 
REMARK    3  A    between atoms: C_8  and  N_3 
ROOT
ATOM      1  C   UNL d   1      30.442  16.520 -23.808  0.00  0.00     0.139 A 
ATOM      2  N   UNL d   1      29.906  15.981 -23.489  0.00  0.00    -0.290 N 
ATOM      3  N   UNL d   1      31.199  16.322 -23.547  0.00  0.00    -0.290 N 
ATOM      4  C   UNL d   1      30.324  15.453 -23.036  0.00  0.00     0.101 A 
ATOM      5  C   UNL d   1      31.113  15.657 -23.069  0.00  0.00     0.101 A 
ENDROOT
BRANCH   2   6
ATOM      6  C   UNL d   1      29.074  15.909 -23.560  0.00  0.00     0.066 A 
ATOM      7  C   UNL d   1      28.738  15.537 -24.203  0.00  0.00     0.018 A 
ATOM      8  C   UNL d   1      27.928  15.469 -24.268  0.00  0.00     0.002 A 
ATOM      9  C   UNL d   1      27.443  15.780 -23.677  0.00  0.00     0.000 A 
ATOM     10  C   UNL d   1      27.779  16.153 -23.032  0.00  0.00     0.002 A 
ATOM     11  C   UNL d   1      28.595  16.222 -22.966  0.00  0.00     0.018 A 
ENDBRANCH   2   6
BRANCH   1  12
ATOM     12  C   UNL d   1      30.227  17.149 -24.305  0.00  0.00     0.063 A 
ATOM     13  S   UNL d   1      29.973  17.798 -23.815  0.00  0.00    -0.083 SA
ATOM     14  C   UNL d   1      29.762  18.416 -24.322  0.00  0.00     0.035 A 
ATOM     15  C   UNL d   1      29.873  18.177 -25.096  0.00  0.00     0.008 A 
ATOM     16  C   UNL d   1      30.162  17.390 -25.096  0.00  0.00     0.010 A 
ENDBRANCH   1  12
BRANCH   3  17
ATOM     17  C   UNL d   1      31.848  16.764 -23.778  0.00  0.00     0.066 A 
ATOM     18  C   UNL d   1      32.140  17.365 -23.298  0.00  0.00     0.018 A 
ATOM     19  C   UNL d   1      32.798  17.802 -23.550  0.00  0.00     0.002 A 
ATOM     20  C   UNL d   1      33.159  17.646 -24.260  0.00  0.00     0.000 A 
ATOM     21  C   UNL d   1      32.876  17.039 -24.757  0.00  0.00     0.002 A 
ATOM     22  C   UNL d   1      32.220  16.600 -24.513  0.00  0.00     0.018 A 
ENDBRANCH   3  17
TORSDOF 3
ENDMDL
