MODEL 1
REMARK VINA RESULT:       1.7      0.000      0.000
REMARK  6 active torsions:
REMARK  status: ('A' for Active; 'I' for Inactive)
REMARK    1  A    between atoms: C_6  and  C_1 
REMARK    2  A    between atoms: C_8  and  C_2 
REMARK    3  A    between atoms: C_9  and  C_4 
REMARK    4  A    between atoms: C_12  and  C_8 
REMARK    5  A    between atoms: O_27  and  C_11 
REMARK    6  A    between atoms: C_30  and  O_27 
ROOT
ATOM      1  C   UNL d   1      31.267  16.194 -23.619  0.00  0.00     0.306 A 
ATOM      2  C   UNL d   1      31.447  16.975 -23.821  0.00  0.00     0.114 A 
ATOM      3  N   UNL d   1      31.869  15.711 -23.309  0.00  0.00    -0.152 NA
ATOM      4  C   UNL d   1      32.210  17.267 -23.715  0.00  0.00     0.094 A 
ATOM      5  C   UNL d   1      32.629  16.006 -23.204  0.00  0.00     0.371 A 
ATOM      6  N   UNL d   1      32.802  16.794 -23.410  0.00  0.00    -0.191 NA
ATOM      7  O   UNL d   1      33.232  15.523 -22.894  0.00  0.00    -0.242 OA
ATOM      8  O   UNL d   1      30.979  15.453 -23.458  0.00  0.00    -0.266 OA
ENDROOT
BRANCH   4   9
ATOM      9  C   UNL d   1      32.383  18.054 -23.921  0.00  0.00     0.020 A 
ATOM     10  C   UNL d   1      32.438  18.632 -23.340  0.00  0.00     0.029 A 
ATOM     11  C   UNL d   1      32.611  19.419 -23.545  0.00  0.00     0.139 A 
ATOM     12  C   UNL d   1      32.728  19.627 -24.341  0.00  0.00     0.218 A 
ATOM     13  C   UNL d   1      32.671  19.040 -24.926  0.00  0.00     0.044 A 
ATOM     14  O   UNL d   1      32.896  20.396 -24.542  0.00  0.00    -0.284 OA
ATOM     15  C   UNL d   1      32.499  18.253 -24.720  0.00  0.00     0.005 A 
BRANCH  11  16
ATOM     16  O   UNL d   1      32.665  19.990 -22.961  0.00  0.00    -0.302 OA
BRANCH  16  17
ATOM     17  C   UNL d   1      32.848  19.779 -22.206  0.00  0.00     0.123 C 
ATOM     18  C   UNL d   1      33.129  20.339 -21.680  0.00  0.00     0.029 C 
ENDBRANCH  16  17
ENDBRANCH  11  16
ENDBRANCH   4   9
BRANCH   2  19
ATOM     19  C   UNL d   1      30.844  17.459 -24.132  0.00  0.00     0.201 C 
ATOM     20  O   UNL d   1      31.128  17.523 -24.808  0.00  0.00    -0.286 OA
BRANCH  19  21
ATOM     21  C   UNL d   1      30.271  17.813 -24.133  0.00  0.00     0.039 A 
ATOM     22  C   UNL d   1      29.833  18.153 -23.526  0.00  0.00     0.004 A 
ATOM     23  C   UNL d   1      29.144  18.559 -23.705  0.00  0.00     0.011 A 
ATOM     24  C   UNL d   1      28.887  18.631 -24.485  0.00  0.00     0.058 A 
ATOM     25  C   UNL d   1      29.333  18.285 -25.097  0.00  0.00     0.011 A 
ATOM     26 CL   UNL d   1      28.200  19.037 -24.652  0.00  0.00    -0.082 Cl
ATOM     27  C   UNL d   1      30.021  17.879 -24.918  0.00  0.00     0.004 A 
ENDBRANCH  19  21
ENDBRANCH   2  19
BRANCH   1  28
ATOM     28  C   UNL d   1      30.508  16.016 -23.760  0.00  0.00     0.470 C 
ATOM     29  F   UNL d   1      29.916  15.798 -23.238  0.00  0.00    -0.162 F 
ATOM     30  F   UNL d   1      29.823  15.856 -23.897  0.00  0.00    -0.162 F 
ATOM     31  F   UNL d   1      30.107  16.003 -24.484  0.00  0.00    -0.162 F 
ENDBRANCH   1  28
TORSDOF 6
ENDMDL
