MODEL 1
REMARK VINA RESULT:      14.9      0.000      0.000
REMARK  5 active torsions:
REMARK  status: ('A' for Active; 'I' for Inactive)
REMARK    1  A    between atoms: N_3  and  S_1 
REMARK    2  A    between atoms: C_13  and  S_1 
REMARK    3  A    between atoms: C_2  and  N_3 
REMARK    4  A    between atoms: N_9  and  C_4 
REMARK       I    between atoms: C_8  and  N_10 
REMARK    5  A    between atoms: C_19  and  C_8 
ROOT
ATOM      1  C   UNL d   1     -41.387-122.416 -50.755  0.00  0.00     0.110 A 
ATOM      2  C   UNL d   1     -41.384-121.998 -51.731  0.00  0.00     0.083 A 
ATOM      3  C   UNL d   1     -41.303-121.748 -50.287  0.00  0.00     0.020 A 
ATOM      4  C   UNL d   1     -41.298-121.189 -51.590  0.00  0.00     0.018 A 
ATOM      5  C   UNL d   1     -41.257-121.098 -50.773  0.00  0.00     0.003 A 
ATOM      6  C   UNL d   1     -41.169-120.346 -50.446  0.00  0.00     0.000 A 
ATOM      7  C   UNL d   1     -41.263-121.672 -49.461  0.00  0.00     0.002 A 
ATOM      8  C   UNL d   1     -41.253-120.540 -52.074  0.00  0.00     0.002 A 
ATOM      9  C   UNL d   1     -41.174-120.905 -49.144  0.00  0.00     0.000 A 
ATOM     10  C   UNL d   1     -41.164-119.769 -51.760  0.00  0.00     0.000 A 
ATOM     11  C   UNL d   1     -41.128-120.248 -49.632  0.00  0.00     0.000 A 
ATOM     12  C   UNL d   1     -41.123-119.690 -50.935  0.00  0.00     0.000 A 
ENDROOT
BRANCH   2  13
ATOM     13  N   UNL d   1     -41.441-122.271 -52.500  0.00  0.00    -0.300 N 
ATOM     14  C   UNL d   1     -41.136-123.011 -52.692  0.00  0.00     0.100 A 
ATOM     15  C   UNL d   1     -41.196-123.268 -53.441  0.00  0.00     0.102 A 
ATOM     16  N   UNL d   1     -41.560-122.818 -54.060  0.00  0.00    -0.269 N 
ATOM     17  C   UNL d   1     -41.625-123.080 -54.839  0.00  0.00     0.265 C 
ATOM     18  C   UNL d   1     -41.863-122.085 -53.869  0.00  0.00     0.102 A 
ATOM     19  O   UNL d   1     -41.336-123.816 -55.091  0.00  0.00    -0.267 OA
ATOM     20  C   UNL d   1     -41.800-121.798 -53.049  0.00  0.00     0.100 A 
BRANCH  17  21
ATOM     21  C   UNL d   1     -41.991-122.591 -55.385  0.00  0.00     0.057 A 
ATOM     22  C   UNL d   1     -42.797-122.685 -55.577  0.00  0.00     0.005 A 
ATOM     23  C   UNL d   1     -43.161-122.185 -56.131  0.00  0.00     0.000 A 
ATOM     24  C   UNL d   1     -42.719-121.581 -56.502  0.00  0.00     0.000 A 
ATOM     25  C   UNL d   1     -41.919-121.491 -56.309  0.00  0.00     0.000 A 
ATOM     26  C   UNL d   1     -41.560-121.993 -55.755  0.00  0.00     0.005 A 
ENDBRANCH  17  21
ENDBRANCH   2  13
BRANCH   1  27
ATOM     27  N   UNL d   1     -41.449-123.161 -50.430  0.00  0.00    -0.157 NA
BRANCH  27  28
ATOM     28  S   UNL d   1     -41.980-123.324 -49.822  0.00  0.00     0.285 S 
ATOM     29  O   UNL d   1     -41.356-123.601 -49.362  0.00  0.00    -0.198 OA
ATOM     30  O   UNL d   1     -42.596-123.047 -50.285  0.00  0.00    -0.198 OA
BRANCH  28  31
ATOM     31  C   UNL d   1     -42.503-123.487 -49.217  0.00  0.00     0.105 A 
ATOM     32  C   UNL d   1     -43.317-123.534 -49.364  0.00  0.00     0.013 A 
ATOM     33  C   UNL d   1     -43.837-123.697 -48.755  0.00  0.00     0.001 A 
ATOM     34  C   UNL d   1     -43.558-123.816 -47.997  0.00  0.00     0.000 A 
ATOM     35  C   UNL d   1     -42.736-123.772 -47.830  0.00  0.00     0.001 A 
ATOM     36  C   UNL d   1     -42.223-123.606 -48.455  0.00  0.00     0.013 A 
ENDBRANCH  28  31
ENDBRANCH  27  28
ENDBRANCH   1  27
TORSDOF 5
ENDMDL
