MODEL 1
REMARK VINA RESULT:      43.1      0.000      0.000
REMARK  6 active torsions:
REMARK  status: ('A' for Active; 'I' for Inactive)
REMARK    1  A    between atoms: C_3  and  C_1 
REMARK    2  A    between atoms: C_5  and  C_1 
REMARK    3  A    between atoms: C_2  and  C_5 
REMARK    4  A    between atoms: C_4  and  C_2 
REMARK    5  A    between atoms: C_8  and  C_3 
REMARK    6  A    between atoms: C_7  and  C_4 
ROOT
ATOM      1  C   UNL d   1      60.730  49.172  50.662  0.00  0.00     0.196 C 
ATOM      2  O   UNL d   1      61.377  49.659  50.857  0.00  0.00    -0.287 OA
ENDROOT
BRANCH   1   3
ATOM      3  C   UNL d   1      59.965  49.426  50.813  0.00  0.00     0.042 C 
BRANCH   3   4
ATOM      4  C   UNL d   1      59.479  49.707  50.208  0.00  0.00     0.003 C 
BRANCH   4   5
ATOM      5  C   UNL d   1      58.626  49.707  50.273  0.00  0.00     0.000 A 
ATOM      6  C   UNL d   1      58.258  49.706  51.012  0.00  0.00     0.002 A 
ATOM      7  C   UNL d   1      57.444  49.706  51.065  0.00  0.00     0.030 A 
ATOM      8  C   UNL d   1      56.991  49.707  50.381  0.00  0.00     0.140 A 
ATOM      9  C   UNL d   1      57.359  49.707  49.642  0.00  0.00     0.030 A 
ATOM     10  F   UNL d   1      56.157  49.707  50.424  0.00  0.00    -0.204 F 
ATOM     11  C   UNL d   1      58.191  49.707  49.566  0.00  0.00     0.002 A 
ENDBRANCH   4   5
ENDBRANCH   3   4
ENDBRANCH   1   3
BRANCH   1  12
ATOM     12  C   UNL d   1      60.855  48.441  50.318  0.00  0.00     0.042 C 
BRANCH  12  13
ATOM     13  C   UNL d   1      61.396  47.914  50.650  0.00  0.00     0.003 C 
BRANCH  13  14
ATOM     14  C   UNL d   1      61.518  47.163  50.287  0.00  0.00     0.000 A 
ATOM     15  C   UNL d   1      60.916  46.595  50.354  0.00  0.00     0.002 A 
ATOM     16  C   UNL d   1      61.024  45.860  50.004  0.00  0.00     0.030 A 
ATOM     17  C   UNL d   1      61.730  45.693  49.589  0.00  0.00     0.140 A 
ATOM     18  C   UNL d   1      62.320  46.274  49.532  0.00  0.00     0.030 A 
ATOM     19  F   UNL d   1      61.823  44.948  49.242  0.00  0.00    -0.204 F 
ATOM     20  C   UNL d   1      62.212  47.009  49.882  0.00  0.00     0.002 A 
ENDBRANCH  13  14
ENDBRANCH  12  13
ENDBRANCH   1  12
TORSDOF 6
ENDMDL
MODEL 2
REMARK VINA RESULT:      44.5      0.483      4.633
REMARK  6 active torsions:
REMARK  status: ('A' for Active; 'I' for Inactive)
REMARK    1  A    between atoms: C_3  and  C_1 
REMARK    2  A    between atoms: C_5  and  C_1 
REMARK    3  A    between atoms: C_2  and  C_5 
REMARK    4  A    between atoms: C_4  and  C_2 
REMARK    5  A    between atoms: C_8  and  C_3 
REMARK    6  A    between atoms: C_7  and  C_4 
ROOT
ATOM      1  C   UNL d   1      60.576  49.271  51.258  0.00  0.00     0.196 C 
ATOM      2  O   UNL d   1      60.920  49.375  52.009  0.00  0.00    -0.287 OA
ENDROOT
BRANCH   1   3
ATOM      3  C   UNL d   1      60.895  48.728  50.731  0.00  0.00     0.042 C 
BRANCH   3   4
ATOM      4  C   UNL d   1      61.356  48.097  50.994  0.00  0.00     0.003 C 
BRANCH   4   5
ATOM      5  C   UNL d   1      61.426  47.369  50.549  0.00  0.00     0.000 A 
ATOM      6  C   UNL d   1      61.723  47.371  49.779  0.00  0.00     0.002 A 
ATOM      7  C   UNL d   1      61.787  46.672  49.362  0.00  0.00     0.030 A 
ATOM      8  C   UNL d   1      61.552  45.968  49.710  0.00  0.00     0.140 A 
ATOM      9  C   UNL d   1      61.254  45.966  50.480  0.00  0.00     0.030 A 
ATOM     10  F   UNL d   1      61.613  45.248  49.291  0.00  0.00    -0.204 F 
ATOM     11  C   UNL d   1      61.182  46.669  50.924  0.00  0.00     0.002 A 
ENDBRANCH   4   5
ENDBRANCH   3   4
ENDBRANCH   1   3
BRANCH   1  12
ATOM     12  C   UNL d   1      59.919  49.707  51.042  0.00  0.00     0.042 C 
BRANCH  12  13
ATOM     13  C   UNL d   1      59.531  49.549  50.332  0.00  0.00     0.003 C 
BRANCH  13  14
ATOM     14  C   UNL d   1      58.690  49.584  50.303  0.00  0.00     0.000 A 
ATOM     15  C   UNL d   1      58.325  49.602  49.557  0.00  0.00     0.002 A 
ATOM     16  C   UNL d   1      57.505  49.636  49.518  0.00  0.00     0.030 A 
ATOM     17  C   UNL d   1      57.052  49.652  50.220  0.00  0.00     0.140 A 
ATOM     18  C   UNL d   1      57.434  49.633  50.956  0.00  0.00     0.030 A 
ATOM     19  F   UNL d   1      56.227  49.686  50.163  0.00  0.00    -0.204 F 
ATOM     20  C   UNL d   1      58.255  49.599  50.996  0.00  0.00     0.002 A 
ENDBRANCH  13  14
ENDBRANCH  12  13
ENDBRANCH   1  12
TORSDOF 6
ENDMDL
