MODEL 1
REMARK VINA RESULT:      72.9      0.000      0.000
REMARK  5 active torsions:
REMARK  status: ('A' for Active; 'I' for Inactive)
REMARK    1  A    between atoms: N_2  and  S_1 
REMARK    2  A    between atoms: C_4  and  S_1 
REMARK    3  A    between atoms: C_5  and  C_9 
REMARK       I    between atoms: N_8  and  C_5 
REMARK    4  A    between atoms: C_17  and  N_8 
REMARK    5  A    between atoms: C_18  and  C_17 
ROOT
ATOM      1  C   UNL d   1     -49.803  27.401  34.313  0.00  0.00     0.104 A 
ATOM      2  C   UNL d   1     -48.645  28.362  34.846  0.00  0.00     0.058 A 
ATOM      3  C   UNL d   1     -49.339  27.790  33.788  0.00  0.00     0.013 A 
ATOM      4  C   UNL d   1     -49.692  27.489  35.117  0.00  0.00     0.013 A 
ATOM      5  C   UNL d   1     -48.758  28.272  34.055  0.00  0.00     0.005 A 
ATOM      6  C   UNL d   1     -49.103  27.977  35.371  0.00  0.00     0.005 A 
ENDROOT
BRANCH   1   7
ATOM      7  S   UNL d   1     -50.389  26.915  34.054  0.00  0.00     0.271 S 
ATOM      8  O   UNL d   1     -50.310  27.190  33.315  0.00  0.00    -0.200 OA
ATOM      9  O   UNL d   1     -50.429  26.632  34.954  0.00  0.00    -0.200 OA
BRANCH   7  10
ATOM     10  N   UNL d   1     -51.034  26.355  33.857  0.00  0.00    -0.231 N 
ATOM     11  C   UNL d   1     -50.831  25.520  33.681  0.00  0.00     0.075 A 
ATOM     12  C   UNL d   1     -51.471  24.957  33.484  0.00  0.00     0.017 A 
ATOM     13  C   UNL d   1     -50.014  25.238  33.698  0.00  0.00     0.018 A 
ATOM     14  C   UNL d   1     -51.289  24.122  33.306  0.00  0.00     0.002 A 
ATOM     15  C   UNL d   1     -52.311  25.226  33.462  0.00  0.00     0.003 A 
ATOM     16  C   UNL d   1     -50.467  23.850  33.326  0.00  0.00     0.000 A 
ATOM     17  C   UNL d   1     -49.821  24.410  33.523  0.00  0.00     0.002 A 
ATOM     18  C   UNL d   1     -52.500  26.059  33.639  0.00  0.00     0.020 A 
ATOM     19  C   UNL d   1     -51.856  26.627  33.838  0.00  0.00     0.092 A 
ENDBRANCH   7  10
ENDBRANCH   1   7
BRANCH   2  20
ATOM     20  C   UNL d   1     -48.059  28.848  35.113  0.00  0.00     0.279 C 
ATOM     21  N   UNL d   1     -48.190  29.643  35.169  0.00  0.00    -0.206 NA
ATOM     22  O   UNL d   1     -47.348  28.551  35.323  0.00  0.00    -0.265 OA
BRANCH  21  23
ATOM     23  C   UNL d   1     -47.611  30.128  35.433  0.00  0.00     0.102 C 
BRANCH  23  24
ATOM     24  C   UNL d   1     -47.566  30.909  35.173  0.00  0.00     0.019 A 
ATOM     25  C   UNL d   1     -47.027  31.419  35.526  0.00  0.00     0.002 A 
ATOM     26  C   UNL d   1     -46.976  32.201  35.272  0.00  0.00     0.000 A 
ATOM     27  C   UNL d   1     -47.471  32.475  34.655  0.00  0.00     0.000 A 
ATOM     28  C   UNL d   1     -48.008  31.954  34.309  0.00  0.00     0.000 A 
ATOM     29  C   UNL d   1     -48.057  31.168  34.567  0.00  0.00     0.002 A 
ENDBRANCH  23  24
ENDBRANCH  21  23
ENDBRANCH   2  20
TORSDOF 5
ENDMDL
