MODEL 1
REMARK VINA RESULT:      -7.0      0.000      0.000
REMARK  7 active torsions:
REMARK  status: ('A' for Active; 'I' for Inactive)
REMARK    1  A    between atoms: C_2  and  C_1 
REMARK    2  A    between atoms: O_12  and  C_1 
REMARK       I    between atoms: C_3  and  N_4 
REMARK    3  A    between atoms: C_11  and  C_3 
REMARK    4  A    between atoms: N_4  and  C_7 
REMARK    5  A    between atoms: C_5  and  C_13 
REMARK    6  A    between atoms: O_14  and  C_5 
REMARK    7  A    between atoms: C_13  and  C_11 
ROOT
ATOM      1  C   UNL d   1     -49.608  12.223  22.725  0.00  0.00     0.063 A 
ATOM      2  C   UNL d   1     -49.396  13.012  22.831  0.00  0.00     0.023 A 
ATOM      3  C   UNL d   1     -49.063  13.454  22.219  0.00  0.00     0.059 A 
ATOM      4  C   UNL d   1     -49.485  11.857  21.981  0.00  0.00     0.006 A 
ATOM      5  C   UNL d   1     -49.150  12.302  21.364  0.00  0.00     0.002 A 
ATOM      6  C   UNL d   1     -48.944  13.096  21.493  0.00  0.00     0.017 A 
ENDROOT
BRANCH   3   7
ATOM      7  N   UNL d   1     -48.850  14.262  22.338  0.00  0.00    -0.321 N 
ATOM      8  C   UNL d   1     -48.080  14.448  22.568  0.00  0.00     0.258 C 
ATOM      9  O   UNL d   1     -47.869  15.244  22.686  0.00  0.00    -0.267 OA
ATOM     10  H   UNL d   1     -49.416  14.853  22.223  0.00  0.00     0.169 HD
BRANCH   8  11
ATOM     11  C   UNL d   1     -47.505  13.865  22.687  0.00  0.00     0.067 C 
BRANCH  11  12
ATOM     12  C   UNL d   1     -46.756  14.045  22.946  0.00  0.00     0.072 C 
BRANCH  12  13
ATOM     13  C   UNL d   1     -46.194  13.455  23.016  0.00  0.00     0.178 C 
ATOM     14  O   UNL d   1     -46.187  12.990  23.698  0.00  0.00    -0.646 OA
BRANCH  13  15
ATOM     15  O   UNL d   1     -45.648  13.326  22.424  0.00  0.00    -0.773 OA
ATOM     16  H   UNL d   1     -45.320  13.949  22.029  0.00  0.00     0.167 HD
ENDBRANCH  13  15
ENDBRANCH  12  13
ENDBRANCH  11  12
ENDBRANCH   8  11
ENDBRANCH   3   7
BRANCH   1  17
ATOM     17  C   UNL d   1     -49.940  11.795  23.347  0.00  0.00     0.178 C 
ATOM     18  O   UNL d   1     -49.499  11.186  23.698  0.00  0.00    -0.646 OA
BRANCH  17  19
ATOM     19  O   UNL d   1     -50.688  11.969  23.611  0.00  0.00    -0.773 OA
ATOM     20  H   UNL d   1     -51.151  11.397  23.986  0.00  0.00     0.167 HD
ENDBRANCH  17  19
ENDBRANCH   1  17
TORSDOF 7
ENDMDL
MODEL 2
REMARK VINA RESULT:      -6.8      1.052      3.446
REMARK  7 active torsions:
REMARK  status: ('A' for Active; 'I' for Inactive)
REMARK    1  A    between atoms: C_2  and  C_1 
REMARK    2  A    between atoms: O_12  and  C_1 
REMARK       I    between atoms: C_3  and  N_4 
REMARK    3  A    between atoms: C_11  and  C_3 
REMARK    4  A    between atoms: N_4  and  C_7 
REMARK    5  A    between atoms: C_5  and  C_13 
REMARK    6  A    between atoms: O_14  and  C_5 
REMARK    7  A    between atoms: C_13  and  C_11 
ROOT
ATOM      1  C   UNL d   1     -46.629  13.275  22.689  0.00  0.00     0.063 A 
ATOM      2  C   UNL d   1     -47.152  13.020  22.105  0.00  0.00     0.023 A 
ATOM      3  C   UNL d   1     -47.841  13.439  21.932  0.00  0.00     0.059 A 
ATOM      4  C   UNL d   1     -46.798  13.975  23.118  0.00  0.00     0.006 A 
ATOM      5  C   UNL d   1     -47.492  14.398  22.944  0.00  0.00     0.002 A 
ATOM      6  C   UNL d   1     -48.004  14.122  22.352  0.00  0.00     0.017 A 
ENDROOT
BRANCH   3   7
ATOM      7  N   UNL d   1     -48.370  13.168  21.332  0.00  0.00    -0.321 N 
ATOM      8  C   UNL d   1     -49.009  12.691  21.540  0.00  0.00     0.258 C 
ATOM      9  O   UNL d   1     -49.531  12.424  20.949  0.00  0.00    -0.267 OA
ATOM     10  H   UNL d   1     -48.237  13.385  20.546  0.00  0.00     0.169 HD
BRANCH   8  11
ATOM     11  C   UNL d   1     -49.153  12.468  22.324  0.00  0.00     0.067 C 
BRANCH  11  12
ATOM     12  C   UNL d   1     -49.718  11.917  22.519  0.00  0.00     0.072 C 
BRANCH  12  13
ATOM     13  C   UNL d   1     -49.912  11.788  23.302  0.00  0.00     0.178 C 
ATOM     14  O   UNL d   1     -49.590  11.134  23.690  0.00  0.00    -0.646 OA
BRANCH  13  15
ATOM     15  O   UNL d   1     -50.413  12.295  23.698  0.00  0.00    -0.773 OA
ATOM     16  H   UNL d   1     -50.845  12.841  23.290  0.00  0.00     0.167 HD
ENDBRANCH  13  15
ENDBRANCH  12  13
ENDBRANCH  11  12
ENDBRANCH   8  11
ENDBRANCH   3   7
BRANCH   1  17
ATOM     17  C   UNL d   1     -45.944  12.845  22.850  0.00  0.00     0.178 C 
ATOM     18  O   UNL d   1     -45.257  13.003  22.415  0.00  0.00    -0.646 OA
BRANCH  17  19
ATOM     19  O   UNL d   1     -45.946  12.274  23.429  0.00  0.00    -0.773 OA
ATOM     20  H   UNL d   1     -46.560  12.228  23.979  0.00  0.00     0.167 HD
ENDBRANCH  17  19
ENDBRANCH   1  17
TORSDOF 7
ENDMDL
MODEL 3
REMARK VINA RESULT:      -6.8      1.610      3.356
REMARK  7 active torsions:
REMARK  status: ('A' for Active; 'I' for Inactive)
REMARK    1  A    between atoms: C_2  and  C_1 
REMARK    2  A    between atoms: O_12  and  C_1 
REMARK       I    between atoms: C_3  and  N_4 
REMARK    3  A    between atoms: C_11  and  C_3 
REMARK    4  A    between atoms: N_4  and  C_7 
REMARK    5  A    between atoms: C_5  and  C_13 
REMARK    6  A    between atoms: O_14  and  C_5 
REMARK    7  A    between atoms: C_13  and  C_11 
ROOT
ATOM      1  C   UNL d   1     -46.736  13.160  22.881  0.00  0.00     0.063 A 
ATOM      2  C   UNL d   1     -47.269  13.164  22.252  0.00  0.00     0.023 A 
ATOM      3  C   UNL d   1     -47.946  12.692  22.261  0.00  0.00     0.059 A 
ATOM      4  C   UNL d   1     -46.881  12.669  23.545  0.00  0.00     0.006 A 
ATOM      5  C   UNL d   1     -47.562  12.194  23.553  0.00  0.00     0.002 A 
ATOM      6  C   UNL d   1     -48.086  12.213  22.908  0.00  0.00     0.017 A 
ENDROOT
BRANCH   3   7
ATOM      7  N   UNL d   1     -48.486  12.703  21.611  0.00  0.00    -0.321 N 
ATOM      8  C   UNL d   1     -49.105  13.247  21.609  0.00  0.00     0.258 C 
ATOM      9  O   UNL d   1     -49.637  13.258  20.969  0.00  0.00    -0.267 OA
ATOM     10  H   UNL d   1     -48.383  12.169  20.989  0.00  0.00     0.169 HD
BRANCH   8  11
ATOM     11  C   UNL d   1     -49.218  13.786  22.225  0.00  0.00     0.067 C 
BRANCH  11  12
ATOM     12  C   UNL d   1     -49.873  14.267  22.264  0.00  0.00     0.072 C 
BRANCH  12  13
ATOM     13  C   UNL d   1     -49.834  14.980  22.661  0.00  0.00     0.178 C 
ATOM     14  O   UNL d   1     -49.965  14.990  23.476  0.00  0.00    -0.646 OA
BRANCH  13  15
ATOM     15  O   UNL d   1     -49.670  15.672  22.262  0.00  0.00    -0.773 OA
ATOM     16  H   UNL d   1     -48.952  16.031  22.347  0.00  0.00     0.167 HD
ENDBRANCH  13  15
ENDBRANCH  12  13
ENDBRANCH  11  12
ENDBRANCH   8  11
ENDBRANCH   3   7
BRANCH   1  17
ATOM     17  C   UNL d   1     -46.064  13.638  22.858  0.00  0.00     0.178 C 
ATOM     18  O   UNL d   1     -45.407  13.388  22.418  0.00  0.00    -0.646 OA
BRANCH  17  19
ATOM     19  O   UNL d   1     -46.048  14.343  23.262  0.00  0.00    -0.773 OA
ATOM     20  H   UNL d   1     -46.232  15.054  22.884  0.00  0.00     0.167 HD
ENDBRANCH  17  19
ENDBRANCH   1  17
TORSDOF 7
ENDMDL
MODEL 4
REMARK VINA RESULT:      -6.5      1.173      1.593
REMARK  7 active torsions:
REMARK  status: ('A' for Active; 'I' for Inactive)
REMARK    1  A    between atoms: C_2  and  C_1 
REMARK    2  A    between atoms: O_12  and  C_1 
REMARK       I    between atoms: C_3  and  N_4 
REMARK    3  A    between atoms: C_11  and  C_3 
REMARK    4  A    between atoms: N_4  and  C_7 
REMARK    5  A    between atoms: C_5  and  C_13 
REMARK    6  A    between atoms: O_14  and  C_5 
REMARK    7  A    between atoms: C_13  and  C_11 
ROOT
ATOM      1  C   UNL d   1     -49.734  13.237  22.077  0.00  0.00     0.063 A 
ATOM      2  C   UNL d   1     -49.230  13.880  21.962  0.00  0.00     0.023 A 
ATOM      3  C   UNL d   1     -48.997  14.360  22.591  0.00  0.00     0.059 A 
ATOM      4  C   UNL d   1     -50.018  13.065  22.846  0.00  0.00     0.006 A 
ATOM      5  C   UNL d   1     -49.784  13.550  23.480  0.00  0.00     0.002 A 
ATOM      6  C   UNL d   1     -49.275  14.192  23.341  0.00  0.00     0.017 A 
ENDROOT
BRANCH   3   7
ATOM      7  N   UNL d   1     -48.481  15.016  22.463  0.00  0.00    -0.321 N 
ATOM      8  C   UNL d   1     -47.669  14.919  22.567  0.00  0.00     0.258 C 
ATOM      9  O   UNL d   1     -47.160  15.564  22.441  0.00  0.00    -0.267 OA
ATOM     10  H   UNL d   1     -48.798  15.745  22.235  0.00  0.00     0.169 HD
BRANCH   8  11
ATOM     11  C   UNL d   1     -47.340  14.195  22.795  0.00  0.00     0.067 C 
BRANCH  11  12
ATOM     12  C   UNL d   1     -46.547  14.112  22.952  0.00  0.00     0.072 C 
BRANCH  12  13
ATOM     13  C   UNL d   1     -46.209  13.368  22.975  0.00  0.00     0.178 C 
ATOM     14  O   UNL d   1     -46.165  12.972  23.698  0.00  0.00    -0.646 OA
BRANCH  13  15
ATOM     15  O   UNL d   1     -45.919  13.020  22.297  0.00  0.00    -0.773 OA
ATOM     16  H   UNL d   1     -45.438  12.374  22.344  0.00  0.00     0.167 HD
ENDBRANCH  13  15
ENDBRANCH  12  13
ENDBRANCH  11  12
ENDBRANCH   8  11
ENDBRANCH   3   7
BRANCH   1  17
ATOM     17  C   UNL d   1     -49.957  12.766  21.438  0.00  0.00     0.178 C 
ATOM     18  O   UNL d   1     -50.686  12.906  21.069  0.00  0.00    -0.646 OA
BRANCH  17  19
ATOM     19  O   UNL d   1     -49.468  12.173  21.175  0.00  0.00    -0.773 OA
ATOM     20  H   UNL d   1     -49.752  11.573  20.683  0.00  0.00     0.167 HD
ENDBRANCH  17  19
ENDBRANCH   1  17
TORSDOF 7
ENDMDL
MODEL 5
REMARK VINA RESULT:      -6.4      1.543      3.830
REMARK  7 active torsions:
REMARK  status: ('A' for Active; 'I' for Inactive)
REMARK    1  A    between atoms: C_2  and  C_1 
REMARK    2  A    between atoms: O_12  and  C_1 
REMARK       I    between atoms: C_3  and  N_4 
REMARK    3  A    between atoms: C_11  and  C_3 
REMARK    4  A    between atoms: N_4  and  C_7 
REMARK    5  A    between atoms: C_5  and  C_13 
REMARK    6  A    between atoms: O_14  and  C_5 
REMARK    7  A    between atoms: C_13  and  C_11 
ROOT
ATOM      1  C   UNL d   1     -45.890  13.119  22.728  0.00  0.00     0.063 A 
ATOM      2  C   UNL d   1     -46.358  12.517  23.042  0.00  0.00     0.023 A 
ATOM      3  C   UNL d   1     -47.095  12.676  23.377  0.00  0.00     0.059 A 
ATOM      4  C   UNL d   1     -46.165  13.910  22.748  0.00  0.00     0.006 A 
ATOM      5  C   UNL d   1     -46.907  14.071  23.085  0.00  0.00     0.002 A 
ATOM      6  C   UNL d   1     -47.362  13.449  23.395  0.00  0.00     0.017 A 
ENDROOT
BRANCH   3   7
ATOM      7  N   UNL d   1     -47.567  12.052  23.695  0.00  0.00    -0.321 N 
ATOM      8  C   UNL d   1     -48.243  11.809  23.291  0.00  0.00     0.258 C 
ATOM      9  O   UNL d   1     -48.708  11.194  23.604  0.00  0.00    -0.267 OA
ATOM     10  H   UNL d   1     -47.343  11.696  24.407  0.00  0.00     0.169 HD
BRANCH   8  11
ATOM     11  C   UNL d   1     -48.477  12.157  22.578  0.00  0.00     0.067 C 
BRANCH  11  12
ATOM     12  C   UNL d   1     -49.135  11.907  22.172  0.00  0.00     0.072 C 
BRANCH  12  13
ATOM     13  C   UNL d   1     -49.378  12.306  21.500  0.00  0.00     0.178 C 
ATOM     14  O   UNL d   1     -50.056  12.775  21.539  0.00  0.00    -0.646 OA
BRANCH  13  15
ATOM     15  O   UNL d   1     -48.960  12.243  20.803  0.00  0.00    -0.773 OA
ATOM     16  H   UNL d   1     -49.154  11.677  20.261  0.00  0.00     0.167 HD
ENDBRANCH  13  15
ENDBRANCH  12  13
ENDBRANCH  11  12
ENDBRANCH   8  11
ENDBRANCH   3   7
BRANCH   1  17
ATOM     17  C   UNL d   1     -45.156  12.943  22.397  0.00  0.00     0.178 C 
ATOM     18  O   UNL d   1     -44.787  12.227  22.592  0.00  0.00    -0.646 OA
BRANCH  17  19
ATOM     19  O   UNL d   1     -44.800  13.467  21.887  0.00  0.00    -0.773 OA
ATOM     20  H   UNL d   1     -44.817  14.280  22.033  0.00  0.00     0.167 HD
ENDBRANCH  17  19
ENDBRANCH   1  17
TORSDOF 7
ENDMDL
MODEL 6
REMARK VINA RESULT:      -6.4      1.603      2.379
REMARK  7 active torsions:
REMARK  status: ('A' for Active; 'I' for Inactive)
REMARK    1  A    between atoms: C_2  and  C_1 
REMARK    2  A    between atoms: O_12  and  C_1 
REMARK       I    between atoms: C_3  and  N_4 
REMARK    3  A    between atoms: C_11  and  C_3 
REMARK    4  A    between atoms: N_4  and  C_7 
REMARK    5  A    between atoms: C_5  and  C_13 
REMARK    6  A    between atoms: O_14  and  C_5 
REMARK    7  A    between atoms: C_13  and  C_11 
ROOT
ATOM      1  C   UNL d   1     -50.038  14.628  23.081  0.00  0.00     0.063 A 
ATOM      2  C   UNL d   1     -49.628  14.321  22.435  0.00  0.00     0.023 A 
ATOM      3  C   UNL d   1     -49.457  13.516  22.378  0.00  0.00     0.059 A 
ATOM      4  C   UNL d   1     -50.288  14.115  23.695  0.00  0.00     0.006 A 
ATOM      5  C   UNL d   1     -50.116  13.304  23.638  0.00  0.00     0.002 A 
ATOM      6  C   UNL d   1     -49.701  13.017  22.978  0.00  0.00     0.017 A 
ENDROOT
BRANCH   3   7
ATOM      7  N   UNL d   1     -49.036  13.212  21.712  0.00  0.00    -0.321 N 
ATOM      8  C   UNL d   1     -48.217  13.132  21.753  0.00  0.00     0.258 C 
ATOM      9  O   UNL d   1     -47.802  12.833  21.096  0.00  0.00    -0.267 OA
ATOM     10  H   UNL d   1     -49.453  12.999  21.031  0.00  0.00     0.169 HD
BRANCH   8  11
ATOM     11  C   UNL d   1     -47.789  13.341  22.429  0.00  0.00     0.067 C 
BRANCH  11  12
ATOM     12  C   UNL d   1     -46.980  13.263  22.469  0.00  0.00     0.072 C 
BRANCH  12  13
ATOM     13  C   UNL d   1     -46.567  13.589  23.095  0.00  0.00     0.178 C 
ATOM     14  O   UNL d   1     -46.295  13.092  23.694  0.00  0.00    -0.646 OA
BRANCH  13  15
ATOM     15  O   UNL d   1     -46.426  14.391  23.129  0.00  0.00    -0.773 OA
ATOM     16  H   UNL d   1     -47.041  14.914  23.134  0.00  0.00     0.167 HD
ENDBRANCH  13  15
ENDBRANCH  12  13
ENDBRANCH  11  12
ENDBRANCH   8  11
ENDBRANCH   3   7
BRANCH   1  17
ATOM     17  C   UNL d   1     -50.202  15.435  23.123  0.00  0.00     0.178 C 
ATOM     18  O   UNL d   1     -50.830  15.743  22.678  0.00  0.00    -0.646 OA
BRANCH  17  19
ATOM     19  O   UNL d   1     -49.752  15.920  23.595  0.00  0.00    -0.773 OA
ATOM     20  H   UNL d   1     -49.838  15.914  24.416  0.00  0.00     0.167 HD
ENDBRANCH  17  19
ENDBRANCH   1  17
TORSDOF 7
ENDMDL
MODEL 7
REMARK VINA RESULT:      -6.3      1.336      1.854
REMARK  7 active torsions:
REMARK  status: ('A' for Active; 'I' for Inactive)
REMARK    1  A    between atoms: C_2  and  C_1 
REMARK    2  A    between atoms: O_12  and  C_1 
REMARK       I    between atoms: C_3  and  N_4 
REMARK    3  A    between atoms: C_11  and  C_3 
REMARK    4  A    between atoms: N_4  and  C_7 
REMARK    5  A    between atoms: C_5  and  C_13 
REMARK    6  A    between atoms: O_14  and  C_5 
REMARK    7  A    between atoms: C_13  and  C_11 
ROOT
ATOM      1  C   UNL d   1     -49.837  12.736  22.880  0.00  0.00     0.063 A 
ATOM      2  C   UNL d   1     -49.240  12.298  23.243  0.00  0.00     0.023 A 
ATOM      3  C   UNL d   1     -48.681  11.884  22.799  0.00  0.00     0.059 A 
ATOM      4  C   UNL d   1     -49.880  12.764  22.043  0.00  0.00     0.006 A 
ATOM      5  C   UNL d   1     -49.317  12.347  21.597  0.00  0.00     0.002 A 
ATOM      6  C   UNL d   1     -48.724  11.912  21.983  0.00  0.00     0.017 A 
ENDROOT
BRANCH   3   7
ATOM      7  N   UNL d   1     -48.074  11.438  23.181  0.00  0.00    -0.321 N 
ATOM      8  C   UNL d   1     -47.341  11.789  23.322  0.00  0.00     0.258 C 
ATOM      9  O   UNL d   1     -46.743  11.350  23.698  0.00  0.00    -0.267 OA
ATOM     10  H   UNL d   1     -48.224  10.657  23.407  0.00  0.00     0.169 HD
BRANCH   8  11
ATOM     11  C   UNL d   1     -47.179  12.569  23.100  0.00  0.00     0.067 C 
BRANCH  11  12
ATOM     12  C   UNL d   1     -46.466  12.924  23.264  0.00  0.00     0.072 C 
BRANCH  12  13
ATOM     13  C   UNL d   1     -46.276  13.640  22.917  0.00  0.00     0.178 C 
ATOM     14  O   UNL d   1     -46.601  14.332  23.228  0.00  0.00    -0.646 OA
BRANCH  13  15
ATOM     15  O   UNL d   1     -45.775  13.673  22.275  0.00  0.00    -0.773 OA
ATOM     16  H   UNL d   1     -46.055  13.888  21.549  0.00  0.00     0.167 HD
ENDBRANCH  13  15
ENDBRANCH  12  13
ENDBRANCH  11  12
ENDBRANCH   8  11
ENDBRANCH   3   7
BRANCH   1  17
ATOM     17  C   UNL d   1     -50.388  13.144  23.338  0.00  0.00     0.178 C 
ATOM     18  O   UNL d   1     -50.252  13.942  23.516  0.00  0.00    -0.646 OA
BRANCH  17  19
ATOM     19  O   UNL d   1     -51.055  12.767  23.609  0.00  0.00    -0.773 OA
ATOM     20  H   UNL d   1     -51.079  11.944  23.680  0.00  0.00     0.167 HD
ENDBRANCH  17  19
ENDBRANCH   1  17
TORSDOF 7
ENDMDL
MODEL 8
REMARK VINA RESULT:      -5.7      1.448      2.140
REMARK  7 active torsions:
REMARK  status: ('A' for Active; 'I' for Inactive)
REMARK    1  A    between atoms: C_2  and  C_1 
REMARK    2  A    between atoms: O_12  and  C_1 
REMARK       I    between atoms: C_3  and  N_4 
REMARK    3  A    between atoms: C_11  and  C_3 
REMARK    4  A    between atoms: N_4  and  C_7 
REMARK    5  A    between atoms: C_5  and  C_13 
REMARK    6  A    between atoms: O_14  and  C_5 
REMARK    7  A    between atoms: C_13  and  C_11 
ROOT
ATOM      1  C   UNL d   1     -49.462  14.039  22.117  0.00  0.00     0.063 A 
ATOM      2  C   UNL d   1     -48.711  14.188  22.423  0.00  0.00     0.023 A 
ATOM      3  C   UNL d   1     -48.039  13.829  22.107  0.00  0.00     0.059 A 
ATOM      4  C   UNL d   1     -49.549  13.512  21.471  0.00  0.00     0.006 A 
ATOM      5  C   UNL d   1     -48.873  13.150  21.153  0.00  0.00     0.002 A 
ATOM      6  C   UNL d   1     -48.126  13.315  21.477  0.00  0.00     0.017 A 
ENDROOT
BRANCH   3   7
ATOM      7  N   UNL d   1     -47.275  13.988  22.429  0.00  0.00    -0.321 N 
ATOM      8  C   UNL d   1     -46.915  13.428  22.914  0.00  0.00     0.258 C 
ATOM      9  O   UNL d   1     -46.161  13.585  23.231  0.00  0.00    -0.267 OA
ATOM     10  H   UNL d   1     -46.901  14.704  22.251  0.00  0.00     0.169 HD
BRANCH   8  11
ATOM     11  C   UNL d   1     -47.279  12.709  23.099  0.00  0.00     0.067 C 
BRANCH  11  12
ATOM     12  C   UNL d   1     -47.009  12.230  23.698  0.00  0.00     0.072 C 
BRANCH  12  13
ATOM     13  C   UNL d   1     -47.112  11.420  23.654  0.00  0.00     0.178 C 
ATOM     14  O   UNL d   1     -47.878  11.114  23.685  0.00  0.00    -0.646 OA
BRANCH  13  15
ATOM     15  O   UNL d   1     -46.472  10.921  23.580  0.00  0.00    -0.773 OA
ATOM     16  H   UNL d   1     -46.569  10.173  23.293  0.00  0.00     0.167 HD
ENDBRANCH  13  15
ENDBRANCH  12  13
ENDBRANCH  11  12
ENDBRANCH   8  11
ENDBRANCH   3   7
BRANCH   1  17
ATOM     17  C   UNL d   1     -50.124  14.407  22.445  0.00  0.00     0.178 C 
ATOM     18  O   UNL d   1     -50.854  14.014  22.426  0.00  0.00    -0.646 OA
BRANCH  17  19
ATOM     19  O   UNL d   1     -50.059  15.144  22.780  0.00  0.00    -0.773 OA
ATOM     20  H   UNL d   1     -50.423  15.316  23.502  0.00  0.00     0.167 HD
ENDBRANCH  17  19
ENDBRANCH   1  17
TORSDOF 7
ENDMDL
MODEL 9
REMARK VINA RESULT:      -5.6      1.541      2.597
REMARK  7 active torsions:
REMARK  status: ('A' for Active; 'I' for Inactive)
REMARK    1  A    between atoms: C_2  and  C_1 
REMARK    2  A    between atoms: O_12  and  C_1 
REMARK       I    between atoms: C_3  and  N_4 
REMARK    3  A    between atoms: C_11  and  C_3 
REMARK    4  A    between atoms: N_4  and  C_7 
REMARK    5  A    between atoms: C_5  and  C_13 
REMARK    6  A    between atoms: O_14  and  C_5 
REMARK    7  A    between atoms: C_13  and  C_11 
ROOT
ATOM      1  C   UNL d   1     -48.387  12.211  22.519  0.00  0.00     0.063 A 
ATOM      2  C   UNL d   1     -48.142  12.936  22.211  0.00  0.00     0.023 A 
ATOM      3  C   UNL d   1     -47.634  13.431  22.632  0.00  0.00     0.059 A 
ATOM      4  C   UNL d   1     -48.117  11.969  23.274  0.00  0.00     0.006 A 
ATOM      5  C   UNL d   1     -47.605  12.468  23.698  0.00  0.00     0.002 A 
ATOM      6  C   UNL d   1     -47.371  13.194  23.369  0.00  0.00     0.017 A 
ENDROOT
BRANCH   3   7
ATOM      7  N   UNL d   1     -47.390  14.172  22.308  0.00  0.00    -0.321 N 
ATOM      8  C   UNL d   1     -47.879  14.830  22.386  0.00  0.00     0.258 C 
ATOM      9  O   UNL d   1     -47.639  15.560  22.067  0.00  0.00    -0.267 OA
ATOM     10  H   UNL d   1     -46.663  14.224  21.917  0.00  0.00     0.169 HD
BRANCH   8  11
ATOM     11  C   UNL d   1     -48.608  14.790  22.775  0.00  0.00     0.067 C 
BRANCH  11  12
ATOM     12  C   UNL d   1     -49.065  15.450  22.904  0.00  0.00     0.072 C 
BRANCH  12  13
ATOM     13  C   UNL d   1     -49.878  15.381  22.965  0.00  0.00     0.178 C 
ATOM     14  O   UNL d   1     -50.208  15.198  23.698  0.00  0.00    -0.646 OA
BRANCH  13  15
ATOM     15  O   UNL d   1     -50.356  15.491  22.313  0.00  0.00    -0.773 OA
ATOM     16  H   UNL d   1     -51.159  15.475  22.389  0.00  0.00     0.167 HD
ENDBRANCH  13  15
ENDBRANCH  12  13
ENDBRANCH  11  12
ENDBRANCH   8  11
ENDBRANCH   3   7
BRANCH   1  17
ATOM     17  C   UNL d   1     -48.896  11.727  22.086  0.00  0.00     0.178 C 
ATOM     18  O   UNL d   1     -49.659  11.583  22.375  0.00  0.00    -0.646 OA
BRANCH  17  19
ATOM     19  O   UNL d   1     -48.649  11.397  21.385  0.00  0.00    -0.773 OA
ATOM     20  H   UNL d   1     -47.974  11.676  20.998  0.00  0.00     0.167 HD
ENDBRANCH  17  19
ENDBRANCH   1  17
TORSDOF 7
ENDMDL
