MODEL 1
REMARK VINA RESULT:      64.1      0.000      0.000
REMARK  8 active torsions:
REMARK  status: ('A' for Active; 'I' for Inactive)
REMARK    1  A    between atoms: N_3  and  S_1 
REMARK    2  A    between atoms: C_5  and  S_1 
REMARK    3  A    between atoms: N_2  and  C_7 
REMARK    4  A    between atoms: C_6  and  N_3 
REMARK    5  A    between atoms: C_18  and  N_4 
REMARK    6  A    between atoms: C_7  and  C_6 
REMARK    7  A    between atoms: C_12  and  C_7 
REMARK    8  A    between atoms: O_23  and  C_17 
ROOT
ATOM      1  C   UNL d   1      13.478  13.473  -3.683  0.00  0.00     0.086 C 
ENDROOT
BRANCH   1   2
ATOM      2  N   UNL d   1      13.800  14.234  -3.786  0.00  0.00    -0.300 N 
ATOM      3  C   UNL d   1      14.613  14.324  -3.866  0.00  0.00     0.100 A 
ATOM      4  C   UNL d   1      14.937  15.076  -3.968  0.00  0.00     0.100 A 
ATOM      5  N   UNL d   1      14.445  15.735  -3.989  0.00  0.00    -0.301 N 
ATOM      6  C   UNL d   1      13.629  15.643  -3.909  0.00  0.00     0.100 A 
ATOM      7  C   UNL d   1      13.308  14.894  -3.807  0.00  0.00     0.100 A 
BRANCH   5   8
ATOM      8  C   UNL d   1      14.764  16.485  -4.091  0.00  0.00     0.064 A 
ATOM      9  C   UNL d   1      14.676  17.057  -3.500  0.00  0.00     0.018 A 
ATOM     10  C   UNL d   1      14.996  17.807  -3.602  0.00  0.00     0.002 A 
ATOM     11  C   UNL d   1      15.408  17.992  -4.297  0.00  0.00     0.000 A 
ATOM     12  C   UNL d   1      15.496  17.420  -4.888  0.00  0.00     0.002 A 
ATOM     13  C   UNL d   1      15.176  16.670  -4.786  0.00  0.00     0.018 A 
ENDBRANCH   5   8
ENDBRANCH   1   2
BRANCH   1  14
ATOM     14  C   UNL d   1      13.333  13.189  -2.922  0.00  0.00     0.130 C 
BRANCH  14  15
ATOM     15  N   UNL d   1      13.944  12.825  -2.491  0.00  0.00    -0.155 NA
BRANCH  15  16
ATOM     16  S   UNL d   1      13.765  12.281  -1.902  0.00  0.00     0.285 S 
ATOM     17  O   UNL d   1      13.100  11.931  -2.419  0.00  0.00    -0.198 OA
ATOM     18  O   UNL d   1      13.613  11.785  -1.344  0.00  0.00    -0.198 OA
BRANCH  16  19
ATOM     19  C   UNL d   1      14.367  12.595  -1.430  0.00  0.00     0.105 A 
ATOM     20  C   UNL d   1      14.236  13.288  -1.009  0.00  0.00     0.015 A 
ATOM     21  C   UNL d   1      14.836  13.607  -0.535  0.00  0.00     0.023 A 
ATOM     22  C   UNL d   1      14.704  14.305  -0.112  0.00  0.00     0.002 C 
ATOM     23  C   UNL d   1      15.572  13.222  -0.487  0.00  0.00     0.094 A 
ATOM     24  C   UNL d   1      15.700  12.523  -0.912  0.00  0.00     0.025 A 
ATOM     25  C   UNL d   1      15.103  12.210  -1.381  0.00  0.00     0.015 A 
BRANCH  23  26
ATOM     26  O   UNL d   1      16.174  13.536  -0.015  0.00  0.00    -0.328 OA
ATOM     27  C   UNL d   1      16.655  14.151  -0.303  0.00  0.00     0.181 C 
ENDBRANCH  23  26
ENDBRANCH  16  19
ENDBRANCH  15  16
ENDBRANCH  14  15
ENDBRANCH   1  14
BRANCH   1  28
ATOM     28  C   UNL d   1      13.304  13.004  -4.336  0.00  0.00     0.037 A 
ATOM     29  C   UNL d   1      13.442  13.292  -5.097  0.00  0.00     0.100 A 
ATOM     30  N   UNL d   1      13.267  12.820  -5.754  0.00  0.00    -0.242 NA
ATOM     31  C   UNL d   1      12.956  12.064  -5.647  0.00  0.00     0.099 A 
ATOM     32  C   UNL d   1      12.820  11.780  -4.889  0.00  0.00     0.021 A 
ATOM     33  C   UNL d   1      12.995  12.252  -4.232  0.00  0.00     0.005 A 
ENDBRANCH   1  28
TORSDOF 8
ENDMDL
