MODEL 1
REMARK VINA RESULT:      -8.1      0.000      0.000
REMARK  5 active torsions:
REMARK  status: ('A' for Active; 'I' for Inactive)
REMARK    1  A    between atoms: C_3  and  S_1 
REMARK    2  A    between atoms: N_5  and  S_1 
REMARK    3  A    between atoms: C_2  and  C_8 
REMARK       I    between atoms: N_4  and  C_2 
REMARK    4  A    between atoms: C_9  and  N_4 
REMARK    5  A    between atoms: O_17  and  C_16 
ROOT
ATOM      1  C   UNL d   1      49.779  34.602  52.185  0.00  0.00     0.104 A 
ATOM      2  C   UNL d   1      51.300  34.131  52.713  0.00  0.00     0.058 A 
ATOM      3  C   UNL d   1      49.941  34.524  52.959  0.00  0.00     0.013 A 
ATOM      4  C   UNL d   1      50.374  34.447  51.658  0.00  0.00     0.013 A 
ATOM      5  C   UNL d   1      51.132  34.214  51.885  0.00  0.00     0.005 A 
ATOM      6  C   UNL d   1      50.692  34.291  53.223  0.00  0.00     0.005 A 
ENDROOT
BRANCH   2   7
ATOM      7  C   UNL d   1      52.069  33.893  52.983  0.00  0.00     0.279 C 
ATOM      8  N   UNL d   1      52.179  33.274  53.448  0.00  0.00    -0.208 NA
ATOM      9  O   UNL d   1      52.726  34.368  52.721  0.00  0.00    -0.265 OA
BRANCH   8  10
ATOM     10  C   UNL d   1      52.938  33.065  53.695  0.00  0.00     0.087 A 
ATOM     11  C   UNL d   1      53.217  33.350  54.398  0.00  0.00     0.043 A 
ATOM     12  C   UNL d   1      53.976  33.141  54.645  0.00  0.00     0.096 A 
ATOM     13  C   UNL d   1      54.456  32.648  54.189  0.00  0.00     0.024 A 
ATOM     14  C   UNL d   1      54.156  32.359  53.463  0.00  0.00     0.004 A 
ATOM     15  C   UNL d   1      53.397  32.571  53.221  0.00  0.00     0.019 A 
BRANCH  12  16
ATOM     16  O   UNL d   1      54.195  33.366  55.198  0.00  0.00    -0.328 OA
ATOM     17  C   UNL d   1      54.935  33.646  55.400  0.00  0.00     0.181 C 
ENDBRANCH  12  16
ENDBRANCH   8  10
ENDBRANCH   2   7
BRANCH   1  18
ATOM     18  S   UNL d   1      48.999  34.847  51.834  0.00  0.00     0.271 S 
ATOM     19  O   UNL d   1      49.110  34.419  51.116  0.00  0.00    -0.200 OA
ATOM     20  O   UNL d   1      48.899  35.254  52.522  0.00  0.00    -0.200 OA
BRANCH  18  21
ATOM     21  N   UNL d   1      48.217  35.126  51.547  0.00  0.00    -0.226 N 
ATOM     22  C   UNL d   1      47.796  35.701  51.984  0.00  0.00     0.111 C 
ATOM     23  C   UNL d   1      47.898  34.822  50.848  0.00  0.00     0.111 C 
ENDBRANCH  18  21
ENDBRANCH   1  18
TORSDOF 5
ENDMDL
MODEL 2
REMARK VINA RESULT:      -7.9      1.527      5.326
REMARK  5 active torsions:
REMARK  status: ('A' for Active; 'I' for Inactive)
REMARK    1  A    between atoms: C_3  and  S_1 
REMARK    2  A    between atoms: N_5  and  S_1 
REMARK    3  A    between atoms: C_2  and  C_8 
REMARK       I    between atoms: N_4  and  C_2 
REMARK    4  A    between atoms: C_9  and  N_4 
REMARK    5  A    between atoms: O_17  and  C_16 
ROOT
ATOM      1  C   UNL d   1      52.525  33.510  53.579  0.00  0.00     0.104 A 
ATOM      2  C   UNL d   1      51.145  34.125  52.850  0.00  0.00     0.058 A 
ATOM      3  C   UNL d   1      51.898  33.046  53.426  0.00  0.00     0.013 A 
ATOM      4  C   UNL d   1      52.476  34.291  53.371  0.00  0.00     0.013 A 
ATOM      5  C   UNL d   1      51.812  34.624  53.012  0.00  0.00     0.005 A 
ATOM      6  C   UNL d   1      51.214  33.348  53.066  0.00  0.00     0.005 A 
ENDROOT
BRANCH   2   7
ATOM      7  C   UNL d   1      50.445  34.433  52.482  0.00  0.00     0.279 C 
ATOM      8  N   UNL d   1      49.802  34.619  52.887  0.00  0.00    -0.208 NA
ATOM      9  O   UNL d   1      50.474  34.532  51.636  0.00  0.00    -0.265 OA
BRANCH   8  10
ATOM     10  C   UNL d   1      49.136  34.917  52.502  0.00  0.00     0.087 A 
ATOM     11  C   UNL d   1      48.738  35.541  52.827  0.00  0.00     0.043 A 
ATOM     12  C   UNL d   1      48.072  35.838  52.442  0.00  0.00     0.096 A 
ATOM     13  C   UNL d   1      47.804  35.512  51.733  0.00  0.00     0.024 A 
ATOM     14  C   UNL d   1      48.224  34.866  51.406  0.00  0.00     0.004 A 
ATOM     15  C   UNL d   1      48.889  34.572  51.795  0.00  0.00     0.019 A 
BRANCH  12  16
ATOM     16  O   UNL d   1      47.760  36.329  52.697  0.00  0.00    -0.328 OA
ATOM     17  C   UNL d   1      46.964  36.515  52.685  0.00  0.00     0.181 C 
ENDBRANCH  12  16
ENDBRANCH   8  10
ENDBRANCH   2   7
BRANCH   1  18
ATOM     18  S   UNL d   1      53.287  33.254  53.961  0.00  0.00     0.271 S 
ATOM     19  O   UNL d   1      53.169  33.709  54.661  0.00  0.00    -0.200 OA
ATOM     20  O   UNL d   1      53.394  32.822  53.289  0.00  0.00    -0.200 OA
BRANCH  18  21
ATOM     21  N   UNL d   1      54.052  32.962  54.279  0.00  0.00    -0.226 N 
ATOM     22  C   UNL d   1      54.662  32.739  53.753  0.00  0.00     0.111 C 
ATOM     23  C   UNL d   1      54.168  32.907  55.095  0.00  0.00     0.111 C 
ENDBRANCH  18  21
ENDBRANCH   1  18
TORSDOF 5
ENDMDL
MODEL 3
REMARK VINA RESULT:      -7.8      1.271      1.776
REMARK  5 active torsions:
REMARK  status: ('A' for Active; 'I' for Inactive)
REMARK    1  A    between atoms: C_3  and  S_1 
REMARK    2  A    between atoms: N_5  and  S_1 
REMARK    3  A    between atoms: C_2  and  C_8 
REMARK       I    between atoms: N_4  and  C_2 
REMARK    4  A    between atoms: C_9  and  N_4 
REMARK    5  A    between atoms: O_17  and  C_16 
ROOT
ATOM      1  C   UNL d   1      48.788  35.167  52.363  0.00  0.00     0.104 A 
ATOM      2  C   UNL d   1      50.278  34.421  52.559  0.00  0.00     0.058 A 
ATOM      3  C   UNL d   1      49.171  35.187  53.059  0.00  0.00     0.013 A 
ATOM      4  C   UNL d   1      49.141  34.773  51.749  0.00  0.00     0.013 A 
ATOM      5  C   UNL d   1      49.872  34.397  51.813  0.00  0.00     0.005 A 
ATOM      6  C   UNL d   1      49.908  34.819  53.159  0.00  0.00     0.005 A 
ENDROOT
BRANCH   2   7
ATOM      7  C   UNL d   1      51.032  34.045  52.660  0.00  0.00     0.279 C 
ATOM      8  N   UNL d   1      51.151  33.475  53.183  0.00  0.00    -0.208 NA
ATOM      9  O   UNL d   1      51.664  34.320  52.160  0.00  0.00    -0.265 OA
BRANCH   8  10
ATOM     10  C   UNL d   1      51.896  33.127  53.260  0.00  0.00     0.087 A 
ATOM     11  C   UNL d   1      52.038  32.414  52.906  0.00  0.00     0.043 A 
ATOM     12  C   UNL d   1      52.782  32.067  52.984  0.00  0.00     0.096 A 
ATOM     13  C   UNL d   1      53.383  32.431  53.415  0.00  0.00     0.024 A 
ATOM     14  C   UNL d   1      53.225  33.169  53.778  0.00  0.00     0.004 A 
ATOM     15  C   UNL d   1      52.479  33.512  53.697  0.00  0.00     0.019 A 
BRANCH  12  16
ATOM     16  O   UNL d   1      52.892  31.507  52.705  0.00  0.00    -0.328 OA
ATOM     17  C   UNL d   1      52.903  30.752  53.018  0.00  0.00     0.181 C 
ENDBRANCH  12  16
ENDBRANCH   8  10
ENDBRANCH   2   7
BRANCH   1  18
ATOM     18  S   UNL d   1      47.999  35.538  52.187  0.00  0.00     0.271 S 
ATOM     19  O   UNL d   1      47.910  35.159  51.440  0.00  0.00    -0.200 OA
ATOM     20  O   UNL d   1      48.090  35.898  52.903  0.00  0.00    -0.200 OA
BRANCH  18  21
ATOM     21  N   UNL d   1      47.225  35.938  52.077  0.00  0.00    -0.226 N 
ATOM     22  C   UNL d   1      46.673  35.631  51.529  0.00  0.00     0.111 C 
ATOM     23  C   UNL d   1      47.042  36.616  52.513  0.00  0.00     0.111 C 
ENDBRANCH  18  21
ENDBRANCH   1  18
TORSDOF 5
ENDMDL
MODEL 4
REMARK VINA RESULT:      -5.7     10.417     11.065
REMARK  5 active torsions:
REMARK  status: ('A' for Active; 'I' for Inactive)
REMARK    1  A    between atoms: C_3  and  S_1 
REMARK    2  A    between atoms: N_5  and  S_1 
REMARK    3  A    between atoms: C_2  and  C_8 
REMARK       I    between atoms: N_4  and  C_2 
REMARK    4  A    between atoms: C_9  and  N_4 
REMARK    5  A    between atoms: O_17  and  C_16 
ROOT
ATOM      1  C   UNL d   1      45.004  28.796  58.122  0.00  0.00     0.104 A 
ATOM      2  C   UNL d   1      45.028  27.372  57.235  0.00  0.00     0.058 A 
ATOM      3  C   UNL d   1      45.426  28.167  58.363  0.00  0.00     0.013 A 
ATOM      4  C   UNL d   1      44.585  28.727  57.432  0.00  0.00     0.013 A 
ATOM      5  C   UNL d   1      44.576  28.042  56.973  0.00  0.00     0.005 A 
ATOM      6  C   UNL d   1      45.440  27.462  57.926  0.00  0.00     0.005 A 
ENDROOT
BRANCH   2   7
ATOM      7  C   UNL d   1      45.042  26.650  56.788  0.00  0.00     0.279 C 
ATOM      8  N   UNL d   1      44.439  26.153  56.772  0.00  0.00    -0.208 NA
ATOM      9  O   UNL d   1      45.755  26.490  56.350  0.00  0.00    -0.265 OA
BRANCH   8  10
ATOM     10  C   UNL d   1      44.480  25.458  56.328  0.00  0.00     0.087 A 
ATOM     11  C   UNL d   1      44.681  24.766  56.695  0.00  0.00     0.043 A 
ATOM     12  C   UNL d   1      44.722  24.073  56.251  0.00  0.00     0.096 A 
ATOM     13  C   UNL d   1      44.563  24.070  55.441  0.00  0.00     0.024 A 
ATOM     14  C   UNL d   1      44.356  24.792  55.072  0.00  0.00     0.004 A 
ATOM     15  C   UNL d   1      44.316  25.484  55.521  0.00  0.00     0.019 A 
BRANCH  12  16
ATOM     16  O   UNL d   1      44.880  23.529  56.540  0.00  0.00    -0.328 OA
ATOM     17  C   UNL d   1      45.074  22.800  56.227  0.00  0.00     0.181 C 
ENDBRANCH  12  16
ENDBRANCH   8  10
ENDBRANCH   2   7
BRANCH   1  18
ATOM     18  S   UNL d   1      44.944  29.579  58.539  0.00  0.00     0.271 S 
ATOM     19  O   UNL d   1      44.746  29.245  59.287  0.00  0.00    -0.200 OA
ATOM     20  O   UNL d   1      45.134  29.894  57.821  0.00  0.00    -0.200 OA
BRANCH  18  21
ATOM     21  N   UNL d   1      44.903  30.385  58.888  0.00  0.00    -0.226 N 
ATOM     22  C   UNL d   1      45.074  31.052  58.414  0.00  0.00     0.111 C 
ATOM     23  C   UNL d   1      44.695  30.483  59.681  0.00  0.00     0.111 C 
ENDBRANCH  18  21
ENDBRANCH   1  18
TORSDOF 5
ENDMDL
MODEL 5
REMARK VINA RESULT:      -5.5     10.281     11.006
REMARK  5 active torsions:
REMARK  status: ('A' for Active; 'I' for Inactive)
REMARK    1  A    between atoms: C_3  and  S_1 
REMARK    2  A    between atoms: N_5  and  S_1 
REMARK    3  A    between atoms: C_2  and  C_8 
REMARK       I    between atoms: N_4  and  C_2 
REMARK    4  A    between atoms: C_9  and  N_4 
REMARK    5  A    between atoms: O_17  and  C_16 
ROOT
ATOM      1  C   UNL d   1      44.742  26.144  56.858  0.00  0.00     0.104 A 
ATOM      2  C   UNL d   1      44.978  27.585  57.686  0.00  0.00     0.058 A 
ATOM      3  C   UNL d   1      44.316  26.323  57.506  0.00  0.00     0.013 A 
ATOM      4  C   UNL d   1      45.295  26.682  56.611  0.00  0.00     0.013 A 
ATOM      5  C   UNL d   1      45.435  27.398  56.995  0.00  0.00     0.005 A 
ATOM      6  C   UNL d   1      44.431  27.034  57.917  0.00  0.00     0.005 A 
ENDROOT
BRANCH   2   7
ATOM      7  C   UNL d   1      45.095  28.313  58.107  0.00  0.00     0.279 C 
ATOM      8  N   UNL d   1      44.501  28.734  58.393  0.00  0.00    -0.208 NA
ATOM      9  O   UNL d   1      45.902  28.568  58.205  0.00  0.00    -0.265 OA
BRANCH   8  10
ATOM     10  C   UNL d   1      44.645  29.438  58.799  0.00  0.00     0.087 A 
ATOM     11  C   UNL d   1      44.684  29.429  59.606  0.00  0.00     0.043 A 
ATOM     12  C   UNL d   1      44.827  30.134  60.010  0.00  0.00     0.096 A 
ATOM     13  C   UNL d   1      44.932  30.846  59.608  0.00  0.00     0.024 A 
ATOM     14  C   UNL d   1      44.889  30.844  58.772  0.00  0.00     0.004 A 
ATOM     15  C   UNL d   1      44.745  30.137  58.372  0.00  0.00     0.019 A 
BRANCH  12  16
ATOM     16  O   UNL d   1      44.858  30.126  60.645  0.00  0.00    -0.328 OA
ATOM     17  C   UNL d   1      44.705  30.715  61.190  0.00  0.00     0.181 C 
ENDBRANCH  12  16
ENDBRANCH   8  10
ENDBRANCH   2   7
BRANCH   1  18
ATOM     18  S   UNL d   1      44.671  25.404  56.372  0.00  0.00     0.271 S 
ATOM     19  O   UNL d   1      44.790  24.881  57.023  0.00  0.00    -0.200 OA
ATOM     20  O   UNL d   1      44.558  25.908  55.753  0.00  0.00    -0.200 OA
BRANCH  18  21
ATOM     21  N   UNL d   1      44.591  24.714  55.833  0.00  0.00    -0.226 N 
ATOM     22  C   UNL d   1      44.782  23.948  56.108  0.00  0.00     0.111 C 
ATOM     23  C   UNL d   1      44.329  24.821  55.057  0.00  0.00     0.111 C 
ENDBRANCH  18  21
ENDBRANCH   1  18
TORSDOF 5
ENDMDL
