MODEL 1
REMARK VINA RESULT:      57.3      0.000      0.000
REMARK  4 active torsions:
REMARK  status: ('A' for Active; 'I' for Inactive)
REMARK    1  A    between atoms: C_7  and  C_1 
REMARK    2  A    between atoms: N_5  and  C_2 
REMARK    3  A    between atoms: C_12  and  N_5 
REMARK    4  A    between atoms: O_21  and  C_14 
ROOT
ATOM      1  C   UNL d   1      60.220  49.472  51.507  0.00  0.00     0.101 A 
ATOM      2  C   UNL d   1      60.280  49.269  50.698  0.00  0.00     0.187 A 
ATOM      3  C   UNL d   1      59.475  49.616  51.831  0.00  0.00     0.010 A 
ATOM      4  O   UNL d   1      59.594  49.216  50.238  0.00  0.00    -0.289 OA
ATOM      5  C   UNL d   1      58.852  49.360  50.568  0.00  0.00     0.104 A 
ATOM      6  C   UNL d   1      58.792  49.564  51.378  0.00  0.00     0.023 A 
ATOM      7  C   UNL d   1      58.166  49.307  50.109  0.00  0.00     0.049 A 
ATOM      8  C   UNL d   1      58.047  49.707  51.702  0.00  0.00     0.004 A 
ATOM      9  C   UNL d   1      57.421  49.452  50.439  0.00  0.00     0.096 A 
ATOM     10  C   UNL d   1      57.360  49.655  51.249  0.00  0.00     0.024 A 
ENDROOT
BRANCH   2  11
ATOM     11  N   UNL d   1      61.019  49.125  50.367  0.00  0.00    -0.222 NA
BRANCH  11  12
ATOM     12  C   UNL d   1      61.257  48.338  50.210  0.00  0.00     0.084 A 
ATOM     13  C   UNL d   1      60.982  47.723  50.684  0.00  0.00     0.019 A 
ATOM     14  C   UNL d   1      61.217  46.944  50.529  0.00  0.00     0.002 A 
ATOM     15  C   UNL d   1      61.723  46.798  49.903  0.00  0.00     0.000 A 
ATOM     16  C   UNL d   1      62.000  47.400  49.429  0.00  0.00     0.002 A 
ATOM     17  C   UNL d   1      61.967  46.029  49.735  0.00  0.00     0.000 C 
ATOM     18  C   UNL d   1      61.765  48.179  49.584  0.00  0.00     0.019 A 
ENDBRANCH  11  12
ENDBRANCH   2  11
BRANCH   1  19
ATOM     19  C   UNL d   1      60.899  49.529  51.978  0.00  0.00     0.300 C 
ATOM     20  O   UNL d   1      61.644  49.476  51.640  0.00  0.00    -0.264 OA
ATOM     21  N   UNL d   1      60.814  49.640  52.792  0.00  0.00    -0.102 N 
ENDBRANCH   1  19
BRANCH   9  22
ATOM     22  O   UNL d   1      56.744  49.400  49.989  0.00  0.00    -0.328 OA
ATOM     23  C   UNL d   1      56.793  49.500  49.172  0.00  0.00     0.181 C 
ENDBRANCH   9  22
TORSDOF 4
ENDMDL
MODEL 2
REMARK VINA RESULT:      58.3      2.085      3.376
REMARK  4 active torsions:
REMARK  status: ('A' for Active; 'I' for Inactive)
REMARK    1  A    between atoms: C_7  and  C_1 
REMARK    2  A    between atoms: N_5  and  C_2 
REMARK    3  A    between atoms: C_12  and  N_5 
REMARK    4  A    between atoms: O_21  and  C_14 
ROOT
ATOM      1  C   UNL d   1      57.537  49.576  51.123  0.00  0.00     0.101 A 
ATOM      2  C   UNL d   1      58.267  49.660  51.525  0.00  0.00     0.187 A 
ATOM      3  C   UNL d   1      56.839  49.538  51.561  0.00  0.00     0.010 A 
ATOM      4  O   UNL d   1      58.275  49.702  52.351  0.00  0.00    -0.289 OA
ATOM      5  C   UNL d   1      57.574  49.663  52.784  0.00  0.00     0.104 A 
ATOM      6  C   UNL d   1      56.844  49.579  52.382  0.00  0.00     0.023 A 
ATOM      7  C   UNL d   1      57.582  49.705  53.610  0.00  0.00     0.049 A 
ATOM      8  C   UNL d   1      56.146  49.541  52.820  0.00  0.00     0.004 A 
ATOM      9  C   UNL d   1      56.879  49.666  54.045  0.00  0.00     0.096 A 
ATOM     10  C   UNL d   1      56.149  49.582  53.643  0.00  0.00     0.024 A 
ENDROOT
BRANCH   2  11
ATOM     11  N   UNL d   1      58.967  49.699  51.095  0.00  0.00    -0.222 NA
BRANCH  11  12
ATOM     12  C   UNL d   1      59.686  49.462  51.451  0.00  0.00     0.084 A 
ATOM     13  C   UNL d   1      60.219  48.995  51.030  0.00  0.00     0.019 A 
ATOM     14  C   UNL d   1      60.931  48.760  51.382  0.00  0.00     0.002 A 
ATOM     15  C   UNL d   1      61.094  48.998  52.147  0.00  0.00     0.000 A 
ATOM     16  C   UNL d   1      60.573  49.460  52.571  0.00  0.00     0.002 A 
ATOM     17  C   UNL d   1      61.798  48.773  52.513  0.00  0.00     0.000 C 
ATOM     18  C   UNL d   1      59.861  49.694  52.219  0.00  0.00     0.019 A 
ENDBRANCH  11  12
ENDBRANCH   2  11
BRANCH   1  19
ATOM     19  C   UNL d   1      57.515  49.533  50.296  0.00  0.00     0.300 C 
ATOM     20  O   UNL d   1      58.200  49.628  49.857  0.00  0.00    -0.264 OA
ATOM     21  N   UNL d   1      56.793  49.393  49.922  0.00  0.00    -0.102 N 
ENDBRANCH   1  19
BRANCH   9  22
ATOM     22  O   UNL d   1      56.884  49.707  54.858  0.00  0.00    -0.328 OA
ATOM     23  C   UNL d   1      56.885  49.009  55.298  0.00  0.00     0.181 C 
ENDBRANCH   9  22
TORSDOF 4
ENDMDL
MODEL 3
REMARK VINA RESULT:      60.2      1.167      3.743
REMARK  4 active torsions:
REMARK  status: ('A' for Active; 'I' for Inactive)
REMARK    1  A    between atoms: C_7  and  C_1 
REMARK    2  A    between atoms: N_5  and  C_2 
REMARK    3  A    between atoms: C_12  and  N_5 
REMARK    4  A    between atoms: O_21  and  C_14 
ROOT
ATOM      1  C   UNL d   1      61.190  48.827  51.512  0.00  0.00     0.101 A 
ATOM      2  C   UNL d   1      60.759  48.983  50.811  0.00  0.00     0.187 A 
ATOM      3  C   UNL d   1      61.595  48.113  51.585  0.00  0.00     0.010 A 
ATOM      4  O   UNL d   1      60.748  48.420  50.206  0.00  0.00    -0.289 OA
ATOM      5  C   UNL d   1      61.156  47.707  50.284  0.00  0.00     0.104 A 
ATOM      6  C   UNL d   1      61.587  47.551  50.985  0.00  0.00     0.023 A 
ATOM      7  C   UNL d   1      61.145  47.143  49.678  0.00  0.00     0.049 A 
ATOM      8  C   UNL d   1      61.992  46.837  51.057  0.00  0.00     0.004 A 
ATOM      9  C   UNL d   1      61.554  46.428  49.756  0.00  0.00     0.096 A 
ATOM     10  C   UNL d   1      61.984  46.272  50.456  0.00  0.00     0.024 A 
ENDROOT
BRANCH   2  11
ATOM     11  N   UNL d   1      60.352  49.693  50.732  0.00  0.00    -0.222 NA
BRANCH  11  12
ATOM     12  C   UNL d   1      59.583  49.696  50.402  0.00  0.00     0.084 A 
ATOM     13  C   UNL d   1      58.924  49.694  50.896  0.00  0.00     0.019 A 
ATOM     14  C   UNL d   1      58.163  49.697  50.570  0.00  0.00     0.002 A 
ATOM     15  C   UNL d   1      58.079  49.702  49.757  0.00  0.00     0.000 A 
ATOM     16  C   UNL d   1      58.725  49.705  49.260  0.00  0.00     0.002 A 
ATOM     17  C   UNL d   1      57.328  49.706  49.415  0.00  0.00     0.000 C 
ATOM     18  C   UNL d   1      59.486  49.702  49.586  0.00  0.00     0.019 A 
ENDBRANCH  11  12
ENDBRANCH   2  11
BRANCH   1  19
ATOM     19  C   UNL d   1      61.209  49.384  52.126  0.00  0.00     0.300 C 
ATOM     20  O   UNL d   1      61.920  49.702  52.376  0.00  0.00    -0.264 OA
ATOM     21  N   UNL d   1      60.499  49.611  52.481  0.00  0.00    -0.102 N 
ENDBRANCH   1  19
BRANCH   9  22
ATOM     22  O   UNL d   1      61.545  45.871  49.161  0.00  0.00    -0.328 OA
ATOM     23  C   UNL d   1      61.903  45.139  49.287  0.00  0.00     0.181 C 
ENDBRANCH   9  22
TORSDOF 4
ENDMDL
