MODEL 1
REMARK VINA RESULT:      43.5      0.000      0.000
REMARK  8 active torsions:
REMARK  status: ('A' for Active; 'I' for Inactive)
REMARK    1  A    between atoms: N_5  and  C_1 
REMARK    2  A    between atoms: C_2  and  N_5 
REMARK    3  A    between atoms: N_3  and  C_2 
REMARK       I    between atoms: C_6  and  N_3 
REMARK    4  A    between atoms: C_13  and  C_6 
REMARK    5  A    between atoms: C_9  and  C_7 
REMARK    6  A    between atoms: C_11  and  C_9 
REMARK    7  A    between atoms: O_21  and  C_11 
REMARK    8  A    between atoms: C_23  and  O_21 
ROOT
ATOM      1  C   UNL d   1     -55.685-102.358 -40.512  0.00  0.00     0.225 C 
ATOM      2  S   UNL d   1     -56.209-102.879 -40.851  0.00  0.00    -0.037 SA
ENDROOT
BRANCH   1   3
ATOM      3  N   UNL d   1     -55.401-101.721 -40.953  0.00  0.00    -0.192 NA
BRANCH   3   4
ATOM      4  C   UNL d   1     -55.278-101.807 -41.776  0.00  0.00     0.196 A 
ATOM      5  N   UNL d   1     -54.996-101.247 -42.284  0.00  0.00    -0.220 NA
ATOM      6  C   UNL d   1     -54.972-101.579 -43.017  0.00  0.00     0.095 A 
ATOM      7  C   UNL d   1     -55.246-102.354 -42.951  0.00  0.00     0.058 A 
ATOM      8  S   UNL d   1     -55.431-102.483 -42.183  0.00  0.00    -0.046 SA
BRANCH   6   9
ATOM      9  C   UNL d   1     -54.711-101.184 -43.709  0.00  0.00     0.088 C 
BRANCH   9  10
ATOM     10  C   UNL d   1     -55.230-100.913 -44.268  0.00  0.00     0.302 C 
ATOM     11  O   UNL d   1     -55.468-101.373 -44.902  0.00  0.00    -0.259 OA
BRANCH  10  12
ATOM     12  O   UNL d   1     -55.541-100.136 -44.203  0.00  0.00    -0.271 OA
BRANCH  12  13
ATOM     13  C   UNL d   1     -55.032 -99.494 -44.321  0.00  0.00     0.126 C 
ATOM     14  C   UNL d   1     -55.189 -98.807 -43.897  0.00  0.00     0.029 C 
ENDBRANCH  12  13
ENDBRANCH  10  12
ENDBRANCH   9  10
ENDBRANCH   6   9
ENDBRANCH   3   4
ENDBRANCH   1   3
BRANCH   1  15
ATOM     15  N   UNL d   1     -55.436-102.451 -39.749  0.00  0.00    -0.179 NA
ATOM     16  C   UNL d   1     -55.998-102.456 -39.135  0.00  0.00     0.281 C 
ATOM     17  O   UNL d   1     -56.793-102.367 -39.307  0.00  0.00    -0.265 OA
BRANCH  16  18
ATOM     18  C   UNL d   1     -55.750-102.552 -38.347  0.00  0.00     0.058 A 
ATOM     19  C   UNL d   1     -56.277-102.420 -37.718  0.00  0.00     0.007 A 
ATOM     20  C   UNL d   1     -56.008-102.522 -36.942  0.00  0.00     0.030 A 
ATOM     21  C   UNL d   1     -55.221-102.753 -36.793  0.00  0.00     0.140 A 
ATOM     22  C   UNL d   1     -54.714-102.879 -37.419  0.00  0.00     0.030 A 
ATOM     23  F   UNL d   1     -54.959-102.852 -36.036  0.00  0.00    -0.204 F 
ATOM     24  C   UNL d   1     -54.966-102.782 -38.193  0.00  0.00     0.007 A 
ENDBRANCH  16  18
ENDBRANCH   1  15
TORSDOF 8
ENDMDL
